MODEL 1
REMARK VINA RESULT:      -8.7      0.000      0.000
REMARK  5 active torsions:
REMARK  status: ('A' for Active; 'I' for Inactive)
REMARK    1  A    between atoms: C_3  and  N_4 
REMARK       I    between atoms: N_4  and  C_5 
REMARK    2  A    between atoms: C_5  and  C_6 
REMARK    3  A    between atoms: C_14  and  C_15 
REMARK    4  A    between atoms: C_21  and  O_22 
REMARK    5  A    between atoms: C_24  and  O_25 
ROOT
HETATM    1  N   UNL     1      41.057 -14.673   2.272  1.00  0.00    -0.322 N 
HETATM    2  C   UNL     1      42.401 -14.657   2.581  1.00  0.00     0.257 C 
HETATM    3  O   UNL     1      43.236 -13.798   2.346  1.00  0.00    -0.267 OA
HETATM    4  H   UNL     1      40.542 -15.415   2.733  1.00  0.00     0.169 HD
ENDROOT
BRANCH   2   5
HETATM    5  C   UNL     1      42.861 -15.845   3.352  1.00  0.00     0.046 A 
HETATM    6  C   UNL     1      42.895 -15.877   4.766  1.00  0.00     0.008 A 
HETATM    7  C   UNL     1      43.408 -17.055   5.338  1.00  0.00     0.068 A 
HETATM    8  C   UNL     1      42.436 -14.848   5.634  1.00  0.00     0.015 A 
HETATM    9  C   UNL     1      43.505 -17.146   6.720  1.00  0.00     0.032 A 
HETATM   10  N   UNL     1      43.795 -18.116   4.610  1.00  0.00    -0.252 NA
HETATM   11  C   UNL     1      43.087 -16.114   7.563  1.00  0.00     0.002 A 
HETATM   12  C   UNL     1      42.540 -14.963   7.018  1.00  0.00     0.001 A 
HETATM   13  C   UNL     1      43.685 -18.097   3.260  1.00  0.00     0.040 A 
HETATM   14  C   UNL     1      43.229 -16.966   2.605  1.00  0.00     0.045 A 
BRANCH  13  15
HETATM   15  C   UNL     1      44.028 -19.356   2.500  1.00  0.00     0.038 A 
HETATM   16  C   UNL     1      43.771 -20.720   3.096  1.00  0.00     0.011 A 
HETATM   17  C   UNL     1      42.916 -20.233   1.965  1.00  0.00     0.011 A 
ENDBRANCH  13  15
ENDBRANCH   2   5
BRANCH   1  18
HETATM   18  C   UNL     1      40.283 -13.918   1.353  1.00  0.00     0.043 A 
HETATM   19  C   UNL     1      39.589 -12.719   1.574  1.00  0.00    -0.032 A 
HETATM   20  C   UNL     1      39.435 -12.031   2.900  1.00  0.00     0.050 C 
HETATM   21  C   UNL     1      38.961 -12.078   0.476  1.00  0.00     0.048 A 
HETATM   22  C   UNL     1      39.016 -12.596  -0.820  1.00  0.00     0.102 A 
HETATM   23  C   UNL     1      39.684 -13.803  -1.037  1.00  0.00     0.103 A 
HETATM   24  C   UNL     1      40.291 -14.454   0.043  1.00  0.00     0.069 A 
BRANCH  22  25
HETATM   25  O   UNL     1      38.445 -12.002  -1.917  1.00  0.00    -0.353 OA
HETATM   26  C   UNL     1      39.073 -10.829  -2.416  1.00  0.00     0.210 C 
ENDBRANCH  22  25
BRANCH  23  27
HETATM   27  O   UNL     1      39.687 -14.280  -2.324  1.00  0.00    -0.353 OA
HETATM   28  C   UNL     1      38.746 -15.297  -2.637  1.00  0.00     0.210 C 
ENDBRANCH  23  27
ENDBRANCH   1  18
TORSDOF 5
ENDMDL
MODEL 2
REMARK VINA RESULT:      -8.4      2.474      7.565
REMARK  5 active torsions:
REMARK  status: ('A' for Active; 'I' for Inactive)
REMARK    1  A    between atoms: C_3  and  N_4 
REMARK       I    between atoms: N_4  and  C_5 
REMARK    2  A    between atoms: C_5  and  C_6 
REMARK    3  A    between atoms: C_14  and  C_15 
REMARK    4  A    between atoms: C_21  and  O_22 
REMARK    5  A    between atoms: C_24  and  O_25 
ROOT
HETATM    1  N   UNL     1      42.316 -15.173   2.325  1.00  0.00    -0.322 N 
HETATM    2  C   UNL     1      40.986 -14.977   2.016  1.00  0.00     0.257 C 
HETATM    3  O   UNL     1      39.993 -15.441   2.553  1.00  0.00    -0.267 OA
HETATM    4  H   UNL     1      42.944 -14.536   1.847  1.00  0.00     0.169 HD
ENDROOT
BRANCH   2   5
HETATM    5  C   UNL     1      40.757 -14.024   0.893  1.00  0.00     0.046 A 
HETATM    6  C   UNL     1      41.054 -12.644   0.985  1.00  0.00     0.008 A 
HETATM    7  C   UNL     1      40.728 -11.873  -0.145  1.00  0.00     0.068 A 
HETATM    8  C   UNL     1      41.667 -11.996   2.093  1.00  0.00     0.015 A 
HETATM    9  C   UNL     1      40.958 -10.504  -0.115  1.00  0.00     0.032 A 
HETATM   10  N   UNL     1      40.218 -12.401  -1.270  1.00  0.00    -0.252 NA
HETATM   11  C   UNL     1      41.524  -9.870   0.993  1.00  0.00     0.002 A 
HETATM   12  C   UNL     1      41.890 -10.621   2.098  1.00  0.00     0.001 A 
HETATM   13  C   UNL     1      40.011 -13.736  -1.369  1.00  0.00     0.040 A 
HETATM   14  C   UNL     1      40.265 -14.570  -0.294  1.00  0.00     0.045 A 
BRANCH  13  15
HETATM   15  C   UNL     1      39.545 -14.288  -2.694  1.00  0.00     0.038 A 
HETATM   16  C   UNL     1      38.581 -15.450  -2.758  1.00  0.00     0.011 A 
HETATM   17  C   UNL     1      38.112 -14.076  -3.131  1.00  0.00     0.011 A 
ENDBRANCH  13  15
ENDBRANCH   2   5
BRANCH   1  18
HETATM   18  C   UNL     1      42.977 -16.160   3.101  1.00  0.00     0.043 A 
HETATM   19  C   UNL     1      43.288 -16.133   4.469  1.00  0.00    -0.032 A 
HETATM   20  C   UNL     1      43.071 -14.967   5.390  1.00  0.00     0.050 C 
HETATM   21  C   UNL     1      43.864 -17.283   5.064  1.00  0.00     0.048 A 
HETATM   22  C   UNL     1      44.126 -18.446   4.337  1.00  0.00     0.102 A 
HETATM   23  C   UNL     1      43.841 -18.467   2.970  1.00  0.00     0.103 A 
HETATM   24  C   UNL     1      43.290 -17.329   2.368  1.00  0.00     0.069 A 
BRANCH  22  25
HETATM   25  O   UNL     1      44.660 -19.591   4.871  1.00  0.00    -0.353 OA
HETATM   26  C   UNL     1      43.803 -20.389   5.677  1.00  0.00     0.210 C 
ENDBRANCH  22  25
BRANCH  23  27
HETATM   27  O   UNL     1      44.140 -19.626   2.297  1.00  0.00    -0.353 OA
HETATM   28  C   UNL     1      43.045 -20.391   1.813  1.00  0.00     0.210 C 
ENDBRANCH  23  27
ENDBRANCH   1  18
TORSDOF 5
ENDMDL
MODEL 3
REMARK VINA RESULT:      -8.2      1.830      2.716
REMARK  5 active torsions:
REMARK  status: ('A' for Active; 'I' for Inactive)
REMARK    1  A    between atoms: C_3  and  N_4 
REMARK       I    between atoms: N_4  and  C_5 
REMARK    2  A    between atoms: C_5  and  C_6 
REMARK    3  A    between atoms: C_14  and  C_15 
REMARK    4  A    between atoms: C_21  and  O_22 
REMARK    5  A    between atoms: C_24  and  O_25 
ROOT
HETATM    1  N   UNL     1      41.282 -14.648   1.335  1.00  0.00    -0.322 N 
HETATM    2  C   UNL     1      40.640 -15.560   2.146  1.00  0.00     0.257 C 
HETATM    3  O   UNL     1      39.451 -15.830   2.213  1.00  0.00    -0.267 OA
HETATM    4  H   UNL     1      42.292 -14.739   1.340  1.00  0.00     0.169 HD
ENDROOT
BRANCH   2   5
HETATM    5  C   UNL     1      41.555 -16.346   3.021  1.00  0.00     0.046 A 
HETATM    6  C   UNL     1      41.655 -16.133   4.416  1.00  0.00     0.008 A 
HETATM    7  C   UNL     1      42.606 -16.922   5.087  1.00  0.00     0.068 A 
HETATM    8  C   UNL     1      40.867 -15.226   5.178  1.00  0.00     0.015 A 
HETATM    9  C   UNL     1      42.785 -16.743   6.453  1.00  0.00     0.032 A 
HETATM   10  N   UNL     1      43.345 -17.861   4.474  1.00  0.00    -0.252 NA
HETATM   11  C   UNL     1      42.034 -15.823   7.187  1.00  0.00     0.002 A 
HETATM   12  C   UNL     1      41.063 -15.068   6.548  1.00  0.00     0.001 A 
HETATM   13  C   UNL     1      43.183 -18.104   3.151  1.00  0.00     0.040 A 
HETATM   14  C   UNL     1      42.298 -17.351   2.398  1.00  0.00     0.045 A 
BRANCH  13  15
HETATM   15  C   UNL     1      43.955 -19.247   2.537  1.00  0.00     0.038 A 
HETATM   16  C   UNL     1      43.840 -20.649   3.086  1.00  0.00     0.011 A 
HETATM   17  C   UNL     1      43.219 -20.318   1.762  1.00  0.00     0.011 A 
ENDBRANCH  13  15
ENDBRANCH   2   5
BRANCH   1  18
HETATM   18  C   UNL     1      40.806 -13.545   0.581  1.00  0.00     0.043 A 
HETATM   19  C   UNL     1      39.942 -13.550  -0.525  1.00  0.00    -0.032 A 
HETATM   20  C   UNL     1      39.419 -14.775  -1.218  1.00  0.00     0.050 C 
HETATM   21  C   UNL     1      39.513 -12.311  -1.064  1.00  0.00     0.048 A 
HETATM   22  C   UNL     1      39.913 -11.085  -0.527  1.00  0.00     0.102 A 
HETATM   23  C   UNL     1      40.793 -11.078   0.557  1.00  0.00     0.103 A 
HETATM   24  C   UNL     1      41.240 -12.295   1.085  1.00  0.00     0.069 A 
BRANCH  22  25
HETATM   25  O   UNL     1      39.507  -9.863  -0.999  1.00  0.00    -0.353 OA
HETATM   26  C   UNL     1      38.149  -9.505  -0.779  1.00  0.00     0.210 C 
ENDBRANCH  22  25
BRANCH  23  27
HETATM   27  O   UNL     1      41.175  -9.847   1.030  1.00  0.00    -0.353 OA
HETATM   28  C   UNL     1      40.861  -9.552   2.384  1.00  0.00     0.210 C 
ENDBRANCH  23  27
ENDBRANCH   1  18
TORSDOF 5
ENDMDL
MODEL 4
REMARK VINA RESULT:      -8.1      1.644      3.634
REMARK  5 active torsions:
REMARK  status: ('A' for Active; 'I' for Inactive)
REMARK    1  A    between atoms: C_3  and  N_4 
REMARK       I    between atoms: N_4  and  C_5 
REMARK    2  A    between atoms: C_5  and  C_6 
REMARK    3  A    between atoms: C_14  and  C_15 
REMARK    4  A    between atoms: C_21  and  O_22 
REMARK    5  A    between atoms: C_24  and  O_25 
ROOT
HETATM    1  N   UNL     1      41.379 -14.285   1.097  1.00  0.00    -0.322 N 
HETATM    2  C   UNL     1      40.818 -15.315   1.823  1.00  0.00     0.257 C 
HETATM    3  O   UNL     1      39.795 -15.944   1.606  1.00  0.00    -0.267 OA
HETATM    4  H   UNL     1      42.323 -14.051   1.384  1.00  0.00     0.169 HD
ENDROOT
BRANCH   2   5
HETATM    5  C   UNL     1      41.619 -15.728   3.009  1.00  0.00     0.046 A 
HETATM    6  C   UNL     1      42.382 -16.920   3.043  1.00  0.00     0.008 A 
HETATM    7  C   UNL     1      43.037 -17.190   4.258  1.00  0.00     0.068 A 
HETATM    8  C   UNL     1      42.557 -17.827   1.962  1.00  0.00     0.015 A 
HETATM    9  C   UNL     1      43.776 -18.360   4.378  1.00  0.00     0.032 A 
HETATM   10  N   UNL     1      42.999 -16.360   5.313  1.00  0.00    -0.252 NA
HETATM   11  C   UNL     1      43.911 -19.265   3.323  1.00  0.00     0.002 A 
HETATM   12  C   UNL     1      43.307 -18.992   2.105  1.00  0.00     0.001 A 
HETATM   13  C   UNL     1      42.325 -15.186   5.238  1.00  0.00     0.040 A 
HETATM   14  C   UNL     1      41.617 -14.852   4.096  1.00  0.00     0.045 A 
BRANCH  13  15
HETATM   15  C   UNL     1      42.410 -14.240   6.411  1.00  0.00     0.038 A 
HETATM   16  C   UNL     1      43.216 -14.592   7.638  1.00  0.00     0.011 A 
HETATM   17  C   UNL     1      43.713 -13.529   6.706  1.00  0.00     0.011 A 
ENDBRANCH  13  15
ENDBRANCH   2   5
BRANCH   1  18
HETATM   18  C   UNL     1      40.850 -13.425   0.100  1.00  0.00     0.043 A 
HETATM   19  C   UNL     1      40.783 -12.023   0.101  1.00  0.00    -0.032 A 
HETATM   20  C   UNL     1      41.172 -11.132   1.244  1.00  0.00     0.050 C 
HETATM   21  C   UNL     1      40.304 -11.360  -1.057  1.00  0.00     0.048 A 
HETATM   22  C   UNL     1      39.905 -12.053  -2.202  1.00  0.00     0.102 A 
HETATM   23  C   UNL     1      39.947 -13.449  -2.196  1.00  0.00     0.103 A 
HETATM   24  C   UNL     1      40.399 -14.115  -1.050  1.00  0.00     0.069 A 
BRANCH  22  25
HETATM   25  O   UNL     1      39.457 -11.456  -3.353  1.00  0.00    -0.353 OA
HETATM   26  C   UNL     1      38.423 -10.491  -3.219  1.00  0.00     0.210 C 
ENDBRANCH  22  25
BRANCH  23  27
HETATM   27  O   UNL     1      39.521 -14.081  -3.337  1.00  0.00    -0.353 OA
HETATM   28  C   UNL     1      38.297 -14.798  -3.257  1.00  0.00     0.210 C 
ENDBRANCH  23  27
ENDBRANCH   1  18
TORSDOF 5
ENDMDL
MODEL 5
REMARK VINA RESULT:      -7.8      3.743      7.648
REMARK  5 active torsions:
REMARK  status: ('A' for Active; 'I' for Inactive)
REMARK    1  A    between atoms: C_3  and  N_4 
REMARK       I    between atoms: N_4  and  C_5 
REMARK    2  A    between atoms: C_5  and  C_6 
REMARK    3  A    between atoms: C_14  and  C_15 
REMARK    4  A    between atoms: C_21  and  O_22 
REMARK    5  A    between atoms: C_24  and  O_25 
ROOT
HETATM    1  N   UNL     1      42.791 -14.355   4.487  1.00  0.00    -0.322 N 
HETATM    2  C   UNL     1      43.228 -13.097   4.131  1.00  0.00     0.257 C 
HETATM    3  O   UNL     1      43.655 -12.705   3.056  1.00  0.00    -0.267 OA
HETATM    4  H   UNL     1      42.317 -14.383   5.383  1.00  0.00     0.169 HD
ENDROOT
BRANCH   2   5
HETATM    5  C   UNL     1      43.108 -12.082   5.215  1.00  0.00     0.046 A 
HETATM    6  C   UNL     1      41.873 -11.505   5.593  1.00  0.00     0.008 A 
HETATM    7  C   UNL     1      41.941 -10.523   6.597  1.00  0.00     0.068 A 
HETATM    8  C   UNL     1      40.597 -11.852   5.069  1.00  0.00     0.015 A 
HETATM    9  C   UNL     1      40.772  -9.886   6.995  1.00  0.00     0.032 A 
HETATM   10  N   UNL     1      43.085 -10.178   7.210  1.00  0.00    -0.252 NA
HETATM   11  C   UNL     1      39.529 -10.206   6.448  1.00  0.00     0.002 A 
HETATM   12  C   UNL     1      39.439 -11.202   5.488  1.00  0.00     0.001 A 
HETATM   13  C   UNL     1      44.248 -10.795   6.889  1.00  0.00     0.040 A 
HETATM   14  C   UNL     1      44.287 -11.747   5.884  1.00  0.00     0.045 A 
BRANCH  13  15
HETATM   15  C   UNL     1      45.481 -10.450   7.688  1.00  0.00     0.038 A 
HETATM   16  C   UNL     1      45.643  -9.089   8.322  1.00  0.00     0.011 A 
HETATM   17  C   UNL     1      45.379 -10.284   9.188  1.00  0.00     0.011 A 
ENDBRANCH  13  15
ENDBRANCH   2   5
BRANCH   1  18
HETATM   18  C   UNL     1      42.970 -15.630   3.890  1.00  0.00     0.043 A 
HETATM   19  C   UNL     1      42.734 -16.014   2.561  1.00  0.00    -0.032 A 
HETATM   20  C   UNL     1      42.120 -15.148   1.499  1.00  0.00     0.050 C 
HETATM   21  C   UNL     1      43.084 -17.326   2.154  1.00  0.00     0.048 A 
HETATM   22  C   UNL     1      43.666 -18.247   3.029  1.00  0.00     0.102 A 
HETATM   23  C   UNL     1      43.878 -17.875   4.358  1.00  0.00     0.103 A 
HETATM   24  C   UNL     1      43.517 -16.589   4.775  1.00  0.00     0.069 A 
BRANCH  22  25
HETATM   25  O   UNL     1      44.043 -19.518   2.677  1.00  0.00    -0.353 OA
HETATM   26  C   UNL     1      43.142 -20.257   1.863  1.00  0.00     0.210 C 
ENDBRANCH  22  25
BRANCH  23  27
HETATM   27  O   UNL     1      44.429 -18.827   5.181  1.00  0.00    -0.353 OA
HETATM   28  C   UNL     1      43.576 -19.403   6.160  1.00  0.00     0.210 C 
ENDBRANCH  23  27
ENDBRANCH   1  18
TORSDOF 5
ENDMDL
MODEL 6
REMARK VINA RESULT:      -7.5      3.832      7.152
REMARK  5 active torsions:
REMARK  status: ('A' for Active; 'I' for Inactive)
REMARK    1  A    between atoms: C_3  and  N_4 
REMARK       I    between atoms: N_4  and  C_5 
REMARK    2  A    between atoms: C_5  and  C_6 
REMARK    3  A    between atoms: C_14  and  C_15 
REMARK    4  A    between atoms: C_21  and  O_22 
REMARK    5  A    between atoms: C_24  and  O_25 
ROOT
HETATM    1  N   UNL     1      41.994 -12.699   5.266  1.00  0.00    -0.322 N 
HETATM    2  C   UNL     1      41.412 -13.932   5.467  1.00  0.00     0.257 C 
HETATM    3  O   UNL     1      40.784 -14.341   6.431  1.00  0.00    -0.267 OA
HETATM    4  H   UNL     1      42.302 -12.544   4.312  1.00  0.00     0.169 HD
ENDROOT
BRANCH   2   5
HETATM    5  C   UNL     1      41.541 -14.861   4.309  1.00  0.00     0.046 A 
HETATM    6  C   UNL     1      42.366 -16.011   4.336  1.00  0.00     0.008 A 
HETATM    7  C   UNL     1      42.418 -16.752   3.142  1.00  0.00     0.068 A 
HETATM    8  C   UNL     1      43.104 -16.480   5.457  1.00  0.00     0.015 A 
HETATM    9  C   UNL     1      43.234 -17.874   3.082  1.00  0.00     0.032 A 
HETATM   10  N   UNL     1      41.698 -16.439   2.052  1.00  0.00    -0.252 NA
HETATM   11  C   UNL     1      43.986 -18.305   4.176  1.00  0.00     0.002 A 
HETATM   12  C   UNL     1      43.913 -17.611   5.373  1.00  0.00     0.001 A 
HETATM   13  C   UNL     1      40.856 -15.378   2.069  1.00  0.00     0.040 A 
HETATM   14  C   UNL     1      40.767 -14.565   3.186  1.00  0.00     0.045 A 
BRANCH  13  15
HETATM   15  C   UNL     1      39.987 -15.139   0.857  1.00  0.00     0.038 A 
HETATM   16  C   UNL     1      39.539 -13.746   0.483  1.00  0.00     0.011 A 
HETATM   17  C   UNL     1      40.569 -14.443  -0.355  1.00  0.00     0.011 A 
ENDBRANCH  13  15
ENDBRANCH   2   5
BRANCH   1  18
HETATM   18  C   UNL     1      42.339 -11.652   6.160  1.00  0.00     0.043 A 
HETATM   19  C   UNL     1      41.565 -10.550   6.555  1.00  0.00    -0.032 A 
HETATM   20  C   UNL     1      40.214 -10.192   6.009  1.00  0.00     0.050 C 
HETATM   21  C   UNL     1      42.075  -9.676   7.548  1.00  0.00     0.048 A 
HETATM   22  C   UNL     1      43.318  -9.878   8.152  1.00  0.00     0.102 A 
HETATM   23  C   UNL     1      44.101 -10.959   7.741  1.00  0.00     0.103 A 
HETATM   24  C   UNL     1      43.616 -11.817   6.747  1.00  0.00     0.069 A 
BRANCH  22  25
HETATM   25  O   UNL     1      43.844  -9.074   9.131  1.00  0.00    -0.353 OA
HETATM   26  C   UNL     1      43.652  -7.673   8.989  1.00  0.00     0.210 C 
ENDBRANCH  22  25
BRANCH  23  27
HETATM   27  O   UNL     1      45.324 -11.098   8.349  1.00  0.00    -0.353 OA
HETATM   28  C   UNL     1      46.462 -10.681   7.608  1.00  0.00     0.210 C 
ENDBRANCH  23  27
ENDBRANCH   1  18
TORSDOF 5
ENDMDL
MODEL 7
REMARK VINA RESULT:      -7.2     14.686     17.873
REMARK  5 active torsions:
REMARK  status: ('A' for Active; 'I' for Inactive)
REMARK    1  A    between atoms: C_3  and  N_4 
REMARK       I    between atoms: N_4  and  C_5 
REMARK    2  A    between atoms: C_5  and  C_6 
REMARK    3  A    between atoms: C_14  and  C_15 
REMARK    4  A    between atoms: C_21  and  O_22 
REMARK    5  A    between atoms: C_24  and  O_25 
ROOT
HETATM    1  N   UNL     1      48.016 -30.391   2.719  1.00  0.00    -0.322 N 
HETATM    2  C   UNL     1      47.490 -29.135   2.498  1.00  0.00     0.257 C 
HETATM    3  O   UNL     1      47.945 -28.044   2.803  1.00  0.00    -0.267 OA
HETATM    4  H   UNL     1      47.538 -31.128   2.212  1.00  0.00     0.169 HD
ENDROOT
BRANCH   2   5
HETATM    5  C   UNL     1      46.210 -29.138   1.737  1.00  0.00     0.046 A 
HETATM    6  C   UNL     1      46.131 -28.803   0.365  1.00  0.00     0.008 A 
HETATM    7  C   UNL     1      44.839 -28.802  -0.190  1.00  0.00     0.068 A 
HETATM    8  C   UNL     1      47.233 -28.502  -0.483  1.00  0.00     0.015 A 
HETATM    9  C   UNL     1      44.680 -28.448  -1.524  1.00  0.00     0.032 A 
HETATM   10  N   UNL     1      43.742 -29.146   0.504  1.00  0.00    -0.252 NA
HETATM   11  C   UNL     1      45.764 -28.117  -2.339  1.00  0.00     0.002 A 
HETATM   12  C   UNL     1      47.048 -28.154  -1.819  1.00  0.00     0.001 A 
HETATM   13  C   UNL     1      43.844 -29.538   1.797  1.00  0.00     0.040 A 
HETATM   14  C   UNL     1      45.070 -29.533   2.441  1.00  0.00     0.045 A 
BRANCH  13  15
HETATM   15  C   UNL     1      42.596 -30.022   2.495  1.00  0.00     0.038 A 
HETATM   16  C   UNL     1      41.502 -30.729   1.731  1.00  0.00     0.011 A 
HETATM   17  C   UNL     1      42.368 -31.508   2.675  1.00  0.00     0.011 A 
ENDBRANCH  13  15
ENDBRANCH   2   5
BRANCH   1  18
HETATM   18  C   UNL     1      49.026 -30.859   3.599  1.00  0.00     0.043 A 
HETATM   19  C   UNL     1      50.394 -30.546   3.605  1.00  0.00    -0.032 A 
HETATM   20  C   UNL     1      51.101 -29.709   2.578  1.00  0.00     0.050 C 
HETATM   21  C   UNL     1      51.208 -31.051   4.649  1.00  0.00     0.048 A 
HETATM   22  C   UNL     1      50.694 -31.844   5.678  1.00  0.00     0.102 A 
HETATM   23  C   UNL     1      49.338 -32.178   5.660  1.00  0.00     0.103 A 
HETATM   24  C   UNL     1      48.529 -31.701   4.622  1.00  0.00     0.069 A 
BRANCH  22  25
HETATM   25  O   UNL     1      51.436 -32.338   6.721  1.00  0.00    -0.353 OA
HETATM   26  C   UNL     1      52.774 -31.872   6.838  1.00  0.00     0.210 C 
ENDBRANCH  22  25
BRANCH  23  27
HETATM   27  O   UNL     1      48.890 -32.980   6.680  1.00  0.00    -0.353 OA
HETATM   28  C   UNL     1      47.716 -32.561   7.360  1.00  0.00     0.210 C 
ENDBRANCH  23  27
ENDBRANCH   1  18
TORSDOF 5
ENDMDL
MODEL 8
REMARK VINA RESULT:      -7.2      1.785      3.993
REMARK  5 active torsions:
REMARK  status: ('A' for Active; 'I' for Inactive)
REMARK    1  A    between atoms: C_3  and  N_4 
REMARK       I    between atoms: N_4  and  C_5 
REMARK    2  A    between atoms: C_5  and  C_6 
REMARK    3  A    between atoms: C_14  and  C_15 
REMARK    4  A    between atoms: C_21  and  O_22 
REMARK    5  A    between atoms: C_24  and  O_25 
ROOT
HETATM    1  N   UNL     1      40.397 -13.100   2.079  1.00  0.00    -0.322 N 
HETATM    2  C   UNL     1      41.687 -12.719   2.382  1.00  0.00     0.257 C 
HETATM    3  O   UNL     1      42.339 -11.784   1.943  1.00  0.00    -0.267 OA
HETATM    4  H   UNL     1      40.020 -13.799   2.709  1.00  0.00     0.169 HD
ENDROOT
BRANCH   2   5
HETATM    5  C   UNL     1      42.338 -13.555   3.430  1.00  0.00     0.046 A 
HETATM    6  C   UNL     1      42.644 -14.923   3.239  1.00  0.00     0.008 A 
HETATM    7  C   UNL     1      43.208 -15.582   4.346  1.00  0.00     0.068 A 
HETATM    8  C   UNL     1      42.459 -15.658   2.036  1.00  0.00     0.015 A 
HETATM    9  C   UNL     1      43.503 -16.936   4.246  1.00  0.00     0.032 A 
HETATM   10  N   UNL     1      43.495 -14.961   5.502  1.00  0.00    -0.252 NA
HETATM   11  C   UNL     1      43.281 -17.659   3.072  1.00  0.00     0.002 A 
HETATM   12  C   UNL     1      42.767 -17.014   1.958  1.00  0.00     0.001 A 
HETATM   13  C   UNL     1      43.264 -13.633   5.642  1.00  0.00     0.040 A 
HETATM   14  C   UNL     1      42.676 -12.908   4.620  1.00  0.00     0.045 A 
BRANCH  13  15
HETATM   15  C   UNL     1      43.711 -12.963   6.919  1.00  0.00     0.038 A 
HETATM   16  C   UNL     1      44.867 -11.992   6.926  1.00  0.00     0.011 A 
HETATM   17  C   UNL     1      43.470 -11.481   7.111  1.00  0.00     0.011 A 
ENDBRANCH  13  15
ENDBRANCH   2   5
BRANCH   1  18
HETATM   18  C   UNL     1      39.539 -12.777   0.997  1.00  0.00     0.043 A 
HETATM   19  C   UNL     1      38.539 -11.794   0.937  1.00  0.00    -0.032 A 
HETATM   20  C   UNL     1      38.092 -10.933   2.083  1.00  0.00     0.050 C 
HETATM   21  C   UNL     1      37.868 -11.574  -0.292  1.00  0.00     0.048 A 
HETATM   22  C   UNL     1      38.173 -12.296  -1.448  1.00  0.00     0.102 A 
HETATM   23  C   UNL     1      39.150 -13.292  -1.384  1.00  0.00     0.103 A 
HETATM   24  C   UNL     1      39.805 -13.531  -0.171  1.00  0.00     0.069 A 
BRANCH  22  25
HETATM   25  O   UNL     1      37.568 -12.104  -2.665  1.00  0.00    -0.353 OA
HETATM   26  C   UNL     1      36.649 -11.025  -2.765  1.00  0.00     0.210 C 
ENDBRANCH  22  25
BRANCH  23  27
HETATM   27  O   UNL     1      39.393 -13.988  -2.542  1.00  0.00    -0.353 OA
HETATM   28  C   UNL     1      38.808 -15.278  -2.654  1.00  0.00     0.210 C 
ENDBRANCH  23  27
ENDBRANCH   1  18
TORSDOF 5
ENDMDL
MODEL 9
REMARK VINA RESULT:      -7.2      1.700      2.151
REMARK  5 active torsions:
REMARK  status: ('A' for Active; 'I' for Inactive)
REMARK    1  A    between atoms: C_3  and  N_4 
REMARK       I    between atoms: N_4  and  C_5 
REMARK    2  A    between atoms: C_5  and  C_6 
REMARK    3  A    between atoms: C_14  and  C_15 
REMARK    4  A    between atoms: C_21  and  O_22 
REMARK    5  A    between atoms: C_24  and  O_25 
ROOT
HETATM    1  N   UNL     1      40.984 -13.785   1.381  1.00  0.00    -0.322 N 
HETATM    2  C   UNL     1      40.587 -13.966   2.690  1.00  0.00     0.257 C 
HETATM    3  O   UNL     1      39.528 -13.675   3.222  1.00  0.00    -0.267 OA
HETATM    4  H   UNL     1      41.841 -14.273   1.143  1.00  0.00     0.169 HD
ENDROOT
BRANCH   2   5
HETATM    5  C   UNL     1      41.596 -14.658   3.540  1.00  0.00     0.046 A 
HETATM    6  C   UNL     1      42.228 -14.035   4.642  1.00  0.00     0.008 A 
HETATM    7  C   UNL     1      43.196 -14.808   5.308  1.00  0.00     0.068 A 
HETATM    8  C   UNL     1      41.946 -12.731   5.136  1.00  0.00     0.015 A 
HETATM    9  C   UNL     1      43.883 -14.251   6.378  1.00  0.00     0.032 A 
HETATM   10  N   UNL     1      43.480 -16.077   4.970  1.00  0.00    -0.252 NA
HETATM   11  C   UNL     1      43.627 -12.956   6.832  1.00  0.00     0.002 A 
HETATM   12  C   UNL     1      42.646 -12.196   6.214  1.00  0.00     0.001 A 
HETATM   13  C   UNL     1      42.812 -16.684   3.959  1.00  0.00     0.040 A 
HETATM   14  C   UNL     1      41.869 -15.989   3.220  1.00  0.00     0.045 A 
BRANCH  13  15
HETATM   15  C   UNL     1      43.091 -18.144   3.696  1.00  0.00     0.038 A 
HETATM   16  C   UNL     1      43.083 -18.697   2.291  1.00  0.00     0.011 A 
HETATM   17  C   UNL     1      44.384 -18.549   3.022  1.00  0.00     0.011 A 
ENDBRANCH  13  15
ENDBRANCH   2   5
BRANCH   1  18
HETATM   18  C   UNL     1      40.480 -12.964   0.339  1.00  0.00     0.043 A 
HETATM   19  C   UNL     1      40.766 -11.616   0.072  1.00  0.00    -0.032 A 
HETATM   20  C   UNL     1      41.607 -10.716   0.930  1.00  0.00     0.050 C 
HETATM   21  C   UNL     1      40.226 -11.020  -1.095  1.00  0.00     0.048 A 
HETATM   22  C   UNL     1      39.425 -11.729  -1.993  1.00  0.00     0.102 A 
HETATM   23  C   UNL     1      39.118 -13.063  -1.715  1.00  0.00     0.103 A 
HETATM   24  C   UNL     1      39.630 -13.657  -0.555  1.00  0.00     0.069 A 
BRANCH  22  25
HETATM   25  O   UNL     1      38.898 -11.203  -3.145  1.00  0.00    -0.353 OA
HETATM   26  C   UNL     1      37.985 -10.123  -3.003  1.00  0.00     0.210 C 
ENDBRANCH  22  25
BRANCH  23  27
HETATM   27  O   UNL     1      38.306 -13.706  -2.616  1.00  0.00    -0.353 OA
HETATM   28  C   UNL     1      38.702 -15.009  -3.024  1.00  0.00     0.210 C 
ENDBRANCH  23  27
ENDBRANCH   1  18
TORSDOF 5
ENDMDL
MODEL 10
REMARK VINA RESULT:      -7.0      5.736      8.535
REMARK  5 active torsions:
REMARK  status: ('A' for Active; 'I' for Inactive)
REMARK    1  A    between atoms: C_3  and  N_4 
REMARK       I    between atoms: N_4  and  C_5 
REMARK    2  A    between atoms: C_5  and  C_6 
REMARK    3  A    between atoms: C_14  and  C_15 
REMARK    4  A    between atoms: C_21  and  O_22 
REMARK    5  A    between atoms: C_24  and  O_25 
ROOT
HETATM    1  N   UNL     1      43.118 -10.825   7.863  1.00  0.00    -0.322 N 
HETATM    2  C   UNL     1      44.134 -11.556   7.284  1.00  0.00     0.257 C 
HETATM    3  O   UNL     1      45.340 -11.473   7.459  1.00  0.00    -0.267 OA
HETATM    4  H   UNL     1      42.194 -11.204   7.690  1.00  0.00     0.169 HD
ENDROOT
BRANCH   2   5
HETATM    5  C   UNL     1      43.664 -12.621   6.355  1.00  0.00     0.046 A 
HETATM    6  C   UNL     1      43.206 -12.349   5.044  1.00  0.00     0.008 A 
HETATM    7  C   UNL     1      42.746 -13.460   4.316  1.00  0.00     0.068 A 
HETATM    8  C   UNL     1      43.201 -11.075   4.412  1.00  0.00     0.015 A 
HETATM    9  C   UNL     1      42.248 -13.265   3.034  1.00  0.00     0.032 A 
HETATM   10  N   UNL     1      42.780 -14.715   4.792  1.00  0.00    -0.252 NA
HETATM   11  C   UNL     1      42.211 -12.004   2.435  1.00  0.00     0.002 A 
HETATM   12  C   UNL     1      42.700 -10.905   3.123  1.00  0.00     0.001 A 
HETATM   13  C   UNL     1      43.292 -14.968   6.021  1.00  0.00     0.040 A 
HETATM   14  C   UNL     1      43.733 -13.933   6.828  1.00  0.00     0.045 A 
BRANCH  13  15
HETATM   15  C   UNL     1      43.411 -16.407   6.461  1.00  0.00     0.038 A 
HETATM   16  C   UNL     1      42.949 -17.535   5.568  1.00  0.00     0.011 A 
HETATM   17  C   UNL     1      44.416 -17.315   5.785  1.00  0.00     0.011 A 
ENDBRANCH  13  15
ENDBRANCH   2   5
BRANCH   1  18
HETATM   18  C   UNL     1      43.113  -9.590   8.562  1.00  0.00     0.043 A 
HETATM   19  C   UNL     1      43.552  -9.323   9.868  1.00  0.00    -0.032 A 
HETATM   20  C   UNL     1      44.032 -10.350  10.854  1.00  0.00     0.050 C 
HETATM   21  C   UNL     1      43.550  -7.984  10.331  1.00  0.00     0.048 A 
HETATM   22  C   UNL     1      43.133  -6.919   9.530  1.00  0.00     0.102 A 
HETATM   23  C   UNL     1      42.671  -7.185   8.239  1.00  0.00     0.103 A 
HETATM   24  C   UNL     1      42.650  -8.507   7.779  1.00  0.00     0.069 A 
BRANCH  22  25
HETATM   25  O   UNL     1      43.134  -5.605   9.925  1.00  0.00    -0.353 OA
HETATM   26  C   UNL     1      42.205  -5.233  10.934  1.00  0.00     0.210 C 
ENDBRANCH  22  25
BRANCH  23  27
HETATM   27  O   UNL     1      42.250  -6.106   7.503  1.00  0.00    -0.353 OA
HETATM   28  C   UNL     1      41.846  -6.357   6.164  1.00  0.00     0.210 C 
ENDBRANCH  23  27
ENDBRANCH   1  18
TORSDOF 5
ENDMDL
