MODEL 1
REMARK VINA RESULT:      -8.9      0.000      0.000
REMARK  6 active torsions:
REMARK  status: ('A' for Active; 'I' for Inactive)
REMARK    1  A    between atoms: C_6  and  C_7 
REMARK    2  A    between atoms: N_8  and  N_9 
REMARK       I    between atoms: N_9  and  C_10 
REMARK    3  A    between atoms: C_10  and  C_11 
REMARK    4  A    between atoms: C_14  and  O_15 
REMARK    5  A    between atoms: O_15  and  C_16 
REMARK    6  A    between atoms: C_16  and  C_17 
ROOT
HETATM    1  C   UNL     1      41.594 -14.896   2.651  1.00  0.00     0.217 C 
HETATM    2  N   UNL     1      42.566 -14.266   3.551  1.00  0.00    -0.247 N 
HETATM    3  C   UNL     1      43.304 -15.114   4.387  1.00  0.00     0.272 C 
HETATM    4  O   UNL     1      43.972 -14.763   5.353  1.00  0.00    -0.266 OA
HETATM    5  C   UNL     1      43.317 -16.547   4.001  1.00  0.00     0.054 A 
HETATM    6  C   UNL     1      42.852 -16.880   2.722  1.00  0.00     0.026 A 
HETATM    7  N   UNL     1      42.331 -15.884   1.853  1.00  0.00    -0.265 NA
HETATM    8  C   UNL     1      43.885 -17.515   4.833  1.00  0.00     0.019 A 
HETATM    9  C   UNL     1      44.007 -18.827   4.376  1.00  0.00     0.001 A 
HETATM   10  C   UNL     1      43.587 -19.156   3.085  1.00  0.00     0.002 A 
HETATM   11  C   UNL     1      43.028 -18.183   2.253  1.00  0.00     0.024 A 
HETATM   12  H   UNL     1      43.126 -15.406   1.429  1.00  0.00     0.130 HD
ENDROOT
BRANCH   2  13
HETATM   13  N   UNL     1      43.245 -13.072   3.033  1.00  0.00    -0.163 NA
HETATM   14  C   UNL     1      42.998 -11.874   3.691  1.00  0.00     0.249 C 
HETATM   15  O   UNL     1      42.376 -10.966   3.146  1.00  0.00    -0.272 OA
HETATM   16  H   UNL     1      42.986 -12.921   2.059  1.00  0.00     0.156 HD
BRANCH  14  17
HETATM   17  C   UNL     1      43.616 -11.648   5.010  1.00  0.00     0.028 A 
HETATM   18  C   UNL     1      45.004 -11.530   5.125  1.00  0.00     0.019 A 
HETATM   19  C   UNL     1      45.572 -11.294   6.379  1.00  0.00     0.038 A 
HETATM   20  C   UNL     1      44.766 -11.184   7.516  1.00  0.00     0.069 A 
HETATM   21  C   UNL     1      43.376 -11.272   7.388  1.00  0.00     0.038 A 
HETATM   22  C   UNL     1      42.799 -11.490   6.133  1.00  0.00     0.019 A 
BRANCH  20  23
HETATM   23  O   UNL     1      45.450 -10.971   8.683  1.00  0.00    -0.348 OA
BRANCH  23  24
HETATM   24  C   UNL     1      45.451  -9.636   9.185  1.00  0.00     0.202 C 
BRANCH  24  25
HETATM   25  C   UNL     1      44.940  -9.687  10.595  1.00  0.00    -0.011 C 
HETATM   26  C   UNL     1      43.979 -10.513  11.031  1.00  0.00     0.009 C 
ENDBRANCH  24  25
ENDBRANCH  23  24
ENDBRANCH  20  23
ENDBRANCH  14  17
ENDBRANCH   2  13
BRANCH   1  27
HETATM   27  C   UNL     1      40.743 -13.965   1.784  1.00  0.00    -0.014 A 
HETATM   28  C   UNL     1      39.770 -13.107   2.353  1.00  0.00    -0.052 A 
HETATM   29  C   UNL     1      38.991 -12.284   1.512  1.00  0.00     0.014 A 
HETATM   30  C   UNL     1      39.535 -13.007   3.837  1.00  0.00     0.049 C 
HETATM   31  C   UNL     1      39.128 -12.317   0.121  1.00  0.00    -0.061 A 
HETATM   32  C   UNL     1      38.232 -11.492  -0.754  1.00  0.00     0.048 C 
HETATM   33  C   UNL     1      40.057 -13.188  -0.440  1.00  0.00     0.007 A 
HETATM   34  C   UNL     1      40.855 -13.991   0.377  1.00  0.00     0.011 A 
ENDBRANCH   1  27
TORSDOF 6
ENDMDL
MODEL 2
REMARK VINA RESULT:      -8.8      2.242      7.271
REMARK  6 active torsions:
REMARK  status: ('A' for Active; 'I' for Inactive)
REMARK    1  A    between atoms: C_6  and  C_7 
REMARK    2  A    between atoms: N_8  and  N_9 
REMARK       I    between atoms: N_9  and  C_10 
REMARK    3  A    between atoms: C_10  and  C_11 
REMARK    4  A    between atoms: C_14  and  O_15 
REMARK    5  A    between atoms: O_15  and  C_16 
REMARK    6  A    between atoms: C_16  and  C_17 
ROOT
HETATM    1  C   UNL     1      42.082 -11.532   4.755  1.00  0.00     0.217 C 
HETATM    2  N   UNL     1      40.847 -12.068   5.338  1.00  0.00    -0.247 N 
HETATM    3  C   UNL     1      39.780 -12.308   4.462  1.00  0.00     0.272 C 
HETATM    4  O   UNL     1      38.619 -12.520   4.790  1.00  0.00    -0.266 OA
HETATM    5  C   UNL     1      40.131 -12.374   3.021  1.00  0.00     0.054 A 
HETATM    6  C   UNL     1      41.489 -12.480   2.687  1.00  0.00     0.026 A 
HETATM    7  N   UNL     1      42.490 -12.462   3.694  1.00  0.00    -0.265 NA
HETATM    8  C   UNL     1      39.142 -12.453   2.038  1.00  0.00     0.019 A 
HETATM    9  C   UNL     1      39.511 -12.658   0.709  1.00  0.00     0.001 A 
HETATM   10  C   UNL     1      40.858 -12.810   0.376  1.00  0.00     0.002 A 
HETATM   11  C   UNL     1      41.844 -12.739   1.363  1.00  0.00     0.024 A 
HETATM   12  H   UNL     1      42.528 -13.396   4.101  1.00  0.00     0.130 HD
ENDROOT
BRANCH   2  13
HETATM   13  N   UNL     1      41.015 -12.994   6.465  1.00  0.00    -0.163 NA
HETATM   14  C   UNL     1      40.613 -14.308   6.262  1.00  0.00     0.249 C 
HETATM   15  O   UNL     1      39.647 -14.776   6.860  1.00  0.00    -0.272 OA
HETATM   16  H   UNL     1      40.492 -12.656   7.271  1.00  0.00     0.156 HD
BRANCH  14  17
HETATM   17  C   UNL     1      41.448 -15.185   5.422  1.00  0.00     0.028 A 
HETATM   18  C   UNL     1      42.775 -15.441   5.776  1.00  0.00     0.019 A 
HETATM   19  C   UNL     1      43.546 -16.293   4.982  1.00  0.00     0.038 A 
HETATM   20  C   UNL     1      43.005 -16.880   3.834  1.00  0.00     0.069 A 
HETATM   21  C   UNL     1      41.666 -16.643   3.504  1.00  0.00     0.038 A 
HETATM   22  C   UNL     1      40.883 -15.807   4.305  1.00  0.00     0.019 A 
BRANCH  20  23
HETATM   23  O   UNL     1      43.872 -17.677   3.136  1.00  0.00    -0.348 OA
BRANCH  23  24
HETATM   24  C   UNL     1      44.372 -18.825   3.819  1.00  0.00     0.202 C 
BRANCH  24  25
HETATM   25  C   UNL     1      43.733 -20.031   3.196  1.00  0.00    -0.011 C 
HETATM   26  C   UNL     1      43.329 -20.109   1.921  1.00  0.00     0.009 C 
ENDBRANCH  24  25
ENDBRANCH  23  24
ENDBRANCH  20  23
ENDBRANCH  14  17
ENDBRANCH   2  13
BRANCH   1  27
HETATM   27  C   UNL     1      43.225 -11.211   5.720  1.00  0.00    -0.014 A 
HETATM   28  C   UNL     1      43.093 -10.217   6.721  1.00  0.00    -0.052 A 
HETATM   29  C   UNL     1      44.182  -9.937   7.573  1.00  0.00     0.014 A 
HETATM   30  C   UNL     1      41.819  -9.444   6.943  1.00  0.00     0.049 C 
HETATM   31  C   UNL     1      45.409 -10.593   7.434  1.00  0.00    -0.061 A 
HETATM   32  C   UNL     1      46.576 -10.220   8.299  1.00  0.00     0.048 C 
HETATM   33  C   UNL     1      45.552 -11.542   6.427  1.00  0.00     0.007 A 
HETATM   34  C   UNL     1      44.477 -11.850   5.590  1.00  0.00     0.011 A 
ENDBRANCH   1  27
TORSDOF 6
ENDMDL
MODEL 3
REMARK VINA RESULT:      -8.7      2.401      6.954
REMARK  6 active torsions:
REMARK  status: ('A' for Active; 'I' for Inactive)
REMARK    1  A    between atoms: C_6  and  C_7 
REMARK    2  A    between atoms: N_8  and  N_9 
REMARK       I    between atoms: N_9  and  C_10 
REMARK    3  A    between atoms: C_10  and  C_11 
REMARK    4  A    between atoms: C_14  and  O_15 
REMARK    5  A    between atoms: O_15  and  C_16 
REMARK    6  A    between atoms: C_16  and  C_17 
ROOT
HETATM    1  C   UNL     1      42.256 -10.783   5.533  1.00  0.00     0.217 C 
HETATM    2  N   UNL     1      42.613 -12.107   6.053  1.00  0.00    -0.247 N 
HETATM    3  C   UNL     1      43.730 -12.181   6.896  1.00  0.00     0.272 C 
HETATM    4  O   UNL     1      44.311 -13.209   7.224  1.00  0.00    -0.266 OA
HETATM    5  C   UNL     1      44.181 -10.894   7.483  1.00  0.00     0.054 A 
HETATM    6  C   UNL     1      43.315  -9.797   7.385  1.00  0.00     0.026 A 
HETATM    7  N   UNL     1      42.078  -9.903   6.695  1.00  0.00    -0.265 NA
HETATM    8  C   UNL     1      45.369 -10.810   8.212  1.00  0.00     0.019 A 
HETATM    9  C   UNL     1      45.687  -9.620   8.867  1.00  0.00     0.001 A 
HETATM   10  C   UNL     1      44.807  -8.537   8.813  1.00  0.00     0.002 A 
HETATM   11  C   UNL     1      43.616  -8.630   8.089  1.00  0.00     0.024 A 
HETATM   12  H   UNL     1      41.417 -10.356   7.326  1.00  0.00     0.130 HD
ENDROOT
BRANCH   2  13
HETATM   13  N   UNL     1      41.492 -13.012   6.338  1.00  0.00    -0.163 NA
HETATM   14  C   UNL     1      41.156 -13.925   5.347  1.00  0.00     0.249 C 
HETATM   15  O   UNL     1      40.092 -13.841   4.740  1.00  0.00    -0.272 OA
HETATM   16  H   UNL     1      40.649 -12.471   6.525  1.00  0.00     0.156 HD
BRANCH  14  17
HETATM   17  C   UNL     1      42.034 -15.088   5.126  1.00  0.00     0.028 A 
HETATM   18  C   UNL     1      42.613 -15.304   3.872  1.00  0.00     0.019 A 
HETATM   19  C   UNL     1      43.461 -16.398   3.686  1.00  0.00     0.038 A 
HETATM   20  C   UNL     1      43.726 -17.280   4.737  1.00  0.00     0.069 A 
HETATM   21  C   UNL     1      43.169 -17.040   5.997  1.00  0.00     0.038 A 
HETATM   22  C   UNL     1      42.334 -15.935   6.196  1.00  0.00     0.019 A 
BRANCH  20  23
HETATM   23  O   UNL     1      44.558 -18.319   4.416  1.00  0.00    -0.348 OA
BRANCH  23  24
HETATM   24  C   UNL     1      44.013 -19.632   4.539  1.00  0.00     0.202 C 
BRANCH  24  25
HETATM   25  C   UNL     1      44.001 -20.243   3.168  1.00  0.00    -0.011 C 
HETATM   26  C   UNL     1      43.236 -19.823   2.151  1.00  0.00     0.009 C 
ENDBRANCH  24  25
ENDBRANCH  23  24
ENDBRANCH  20  23
ENDBRANCH  14  17
ENDBRANCH   2  13
BRANCH   1  27
HETATM   27  C   UNL     1      41.075 -10.711   4.562  1.00  0.00    -0.014 A 
HETATM   28  C   UNL     1      41.222 -11.036   3.191  1.00  0.00    -0.052 A 
HETATM   29  C   UNL     1      40.111 -10.932   2.328  1.00  0.00     0.014 A 
HETATM   30  C   UNL     1      42.521 -11.517   2.599  1.00  0.00     0.049 C 
HETATM   31  C   UNL     1      38.868 -10.481   2.783  1.00  0.00    -0.061 A 
HETATM   32  C   UNL     1      37.725 -10.301   1.828  1.00  0.00     0.048 C 
HETATM   33  C   UNL     1      38.733 -10.125   4.121  1.00  0.00     0.007 A 
HETATM   34  C   UNL     1      39.815 -10.246   4.996  1.00  0.00     0.011 A 
ENDBRANCH   1  27
TORSDOF 6
ENDMDL
MODEL 4
REMARK VINA RESULT:      -8.2      1.942      7.060
REMARK  6 active torsions:
REMARK  status: ('A' for Active; 'I' for Inactive)
REMARK    1  A    between atoms: C_6  and  C_7 
REMARK    2  A    between atoms: N_8  and  N_9 
REMARK       I    between atoms: N_9  and  C_10 
REMARK    3  A    between atoms: C_10  and  C_11 
REMARK    4  A    between atoms: C_14  and  O_15 
REMARK    5  A    between atoms: O_15  and  C_16 
REMARK    6  A    between atoms: C_16  and  C_17 
ROOT
HETATM    1  C   UNL     1      43.222 -14.747   4.429  1.00  0.00     0.217 C 
HETATM    2  N   UNL     1      42.024 -14.791   3.582  1.00  0.00    -0.247 N 
HETATM    3  C   UNL     1      41.888 -15.891   2.726  1.00  0.00     0.272 C 
HETATM    4  O   UNL     1      41.097 -15.978   1.794  1.00  0.00    -0.266 OA
HETATM    5  C   UNL     1      42.738 -17.065   3.045  1.00  0.00     0.054 A 
HETATM    6  C   UNL     1      43.370 -17.090   4.296  1.00  0.00     0.026 A 
HETATM    7  N   UNL     1      43.245 -15.999   5.197  1.00  0.00    -0.265 NA
HETATM    8  C   UNL     1      42.810 -18.162   2.182  1.00  0.00     0.019 A 
HETATM    9  C   UNL     1      43.505 -19.303   2.581  1.00  0.00     0.001 A 
HETATM   10  C   UNL     1      44.098 -19.352   3.845  1.00  0.00     0.002 A 
HETATM   11  C   UNL     1      44.016 -18.256   4.707  1.00  0.00     0.024 A 
HETATM   12  H   UNL     1      42.342 -16.092   5.662  1.00  0.00     0.130 HD
ENDROOT
BRANCH   2  13
HETATM   13  N   UNL     1      40.797 -14.239   4.172  1.00  0.00    -0.163 NA
HETATM   14  C   UNL     1      40.505 -12.913   3.884  1.00  0.00     0.249 C 
HETATM   15  O   UNL     1      40.543 -12.050   4.757  1.00  0.00    -0.272 OA
HETATM   16  H   UNL     1      40.840 -14.308   5.188  1.00  0.00     0.156 HD
BRANCH  14  17
HETATM   17  C   UNL     1      40.008 -12.571   2.540  1.00  0.00     0.028 A 
HETATM   18  C   UNL     1      40.856 -12.663   1.432  1.00  0.00     0.019 A 
HETATM   19  C   UNL     1      40.363 -12.357   0.162  1.00  0.00     0.038 A 
HETATM   20  C   UNL     1      39.036 -11.953  -0.009  1.00  0.00     0.069 A 
HETATM   21  C   UNL     1      38.185 -11.894   1.100  1.00  0.00     0.038 A 
HETATM   22  C   UNL     1      38.666 -12.217   2.373  1.00  0.00     0.019 A 
BRANCH  20  23
HETATM   23  O   UNL     1      38.687 -11.666  -1.301  1.00  0.00    -0.348 OA
BRANCH  23  24
HETATM   24  C   UNL     1      39.609 -12.064  -2.313  1.00  0.00     0.202 C 
BRANCH  24  25
HETATM   25  C   UNL     1      38.974 -13.182  -3.085  1.00  0.00    -0.011 C 
HETATM   26  C   UNL     1      39.063 -14.480  -2.764  1.00  0.00     0.009 C 
ENDBRANCH  24  25
ENDBRANCH  23  24
ENDBRANCH  20  23
ENDBRANCH  14  17
ENDBRANCH   2  13
BRANCH   1  27
HETATM   27  C   UNL     1      43.402 -13.515   5.318  1.00  0.00    -0.014 A 
HETATM   28  C   UNL     1      43.750 -12.254   4.774  1.00  0.00    -0.052 A 
HETATM   29  C   UNL     1      43.930 -11.151   5.635  1.00  0.00     0.014 A 
HETATM   30  C   UNL     1      43.920 -12.019   3.296  1.00  0.00     0.049 C 
HETATM   31  C   UNL     1      43.808 -11.274   7.022  1.00  0.00    -0.061 A 
HETATM   32  C   UNL     1      44.084 -10.105   7.920  1.00  0.00     0.048 C 
HETATM   33  C   UNL     1      43.503 -12.521   7.560  1.00  0.00     0.007 A 
HETATM   34  C   UNL     1      43.296 -13.619   6.721  1.00  0.00     0.011 A 
ENDBRANCH   1  27
TORSDOF 6
ENDMDL
MODEL 5
REMARK VINA RESULT:      -8.2      2.291      3.627
REMARK  6 active torsions:
REMARK  status: ('A' for Active; 'I' for Inactive)
REMARK    1  A    between atoms: C_6  and  C_7 
REMARK    2  A    between atoms: N_8  and  N_9 
REMARK       I    between atoms: N_9  and  C_10 
REMARK    3  A    between atoms: C_10  and  C_11 
REMARK    4  A    between atoms: C_14  and  O_15 
REMARK    5  A    between atoms: O_15  and  C_16 
REMARK    6  A    between atoms: C_16  and  C_17 
ROOT
HETATM    1  C   UNL     1      40.744 -14.034   0.150  1.00  0.00     0.217 C 
HETATM    2  N   UNL     1      39.763 -14.190   1.230  1.00  0.00    -0.247 N 
HETATM    3  C   UNL     1      39.906 -15.307   2.063  1.00  0.00     0.272 C 
HETATM    4  O   UNL     1      39.062 -15.726   2.848  1.00  0.00    -0.266 OA
HETATM    5  C   UNL     1      41.229 -15.978   2.022  1.00  0.00     0.054 A 
HETATM    6  C   UNL     1      42.284 -15.296   1.399  1.00  0.00     0.026 A 
HETATM    7  N   UNL     1      42.072 -14.037   0.778  1.00  0.00    -0.265 NA
HETATM    8  C   UNL     1      41.448 -17.187   2.687  1.00  0.00     0.019 A 
HETATM    9  C   UNL     1      42.739 -17.713   2.745  1.00  0.00     0.001 A 
HETATM   10  C   UNL     1      43.802 -17.017   2.166  1.00  0.00     0.002 A 
HETATM   11  C   UNL     1      43.579 -15.803   1.510  1.00  0.00     0.024 A 
HETATM   12  H   UNL     1      42.065 -13.332   1.515  1.00  0.00     0.130 HD
ENDROOT
BRANCH   2  13
HETATM   13  N   UNL     1      39.276 -12.949   1.843  1.00  0.00    -0.163 NA
HETATM   14  C   UNL     1      39.587 -12.746   3.181  1.00  0.00     0.249 C 
HETATM   15  O   UNL     1      38.714 -12.754   4.045  1.00  0.00    -0.272 OA
HETATM   16  H   UNL     1      38.260 -12.905   1.776  1.00  0.00     0.156 HD
BRANCH  14  17
HETATM   17  C   UNL     1      40.968 -12.378   3.541  1.00  0.00     0.028 A 
HETATM   18  C   UNL     1      41.501 -11.154   3.125  1.00  0.00     0.019 A 
HETATM   19  C   UNL     1      42.803 -10.810   3.494  1.00  0.00     0.038 A 
HETATM   20  C   UNL     1      43.578 -11.681   4.265  1.00  0.00     0.069 A 
HETATM   21  C   UNL     1      43.028 -12.890   4.704  1.00  0.00     0.038 A 
HETATM   22  C   UNL     1      41.717 -13.233   4.354  1.00  0.00     0.019 A 
BRANCH  20  23
HETATM   23  O   UNL     1      44.841 -11.231   4.540  1.00  0.00    -0.348 OA
BRANCH  23  24
HETATM   24  C   UNL     1      45.344 -11.505   5.847  1.00  0.00     0.202 C 
BRANCH  24  25
HETATM   25  C   UNL     1      44.518 -10.716   6.819  1.00  0.00    -0.011 C 
HETATM   26  C   UNL     1      44.096 -11.169   8.008  1.00  0.00     0.009 C 
ENDBRANCH  24  25
ENDBRANCH  23  24
ENDBRANCH  20  23
ENDBRANCH  14  17
ENDBRANCH   2  13
BRANCH   1  27
HETATM   27  C   UNL     1      40.552 -12.849  -0.799  1.00  0.00    -0.014 A 
HETATM   28  C   UNL     1      39.778 -12.964  -1.980  1.00  0.00    -0.052 A 
HETATM   29  C   UNL     1      39.649 -11.852  -2.839  1.00  0.00     0.014 A 
HETATM   30  C   UNL     1      39.054 -14.228  -2.364  1.00  0.00     0.049 C 
HETATM   31  C   UNL     1      40.295 -10.641  -2.574  1.00  0.00    -0.061 A 
HETATM   32  C   UNL     1      40.207  -9.500  -3.544  1.00  0.00     0.048 C 
HETATM   33  C   UNL     1      41.086 -10.539  -1.433  1.00  0.00     0.007 A 
HETATM   34  C   UNL     1      41.205 -11.621  -0.559  1.00  0.00     0.011 A 
ENDBRANCH   1  27
TORSDOF 6
ENDMDL
MODEL 6
REMARK VINA RESULT:      -7.9      3.090      6.018
REMARK  6 active torsions:
REMARK  status: ('A' for Active; 'I' for Inactive)
REMARK    1  A    between atoms: C_6  and  C_7 
REMARK    2  A    between atoms: N_8  and  N_9 
REMARK       I    between atoms: N_9  and  C_10 
REMARK    3  A    between atoms: C_10  and  C_11 
REMARK    4  A    between atoms: C_14  and  O_15 
REMARK    5  A    between atoms: O_15  and  C_16 
REMARK    6  A    between atoms: C_16  and  C_17 
ROOT
HETATM    1  C   UNL     1      40.809 -14.270   1.076  1.00  0.00     0.217 C 
HETATM    2  N   UNL     1      40.032 -13.268   1.816  1.00  0.00    -0.247 N 
HETATM    3  C   UNL     1      39.329 -12.321   1.060  1.00  0.00     0.272 C 
HETATM    4  O   UNL     1      38.833 -11.287   1.492  1.00  0.00    -0.266 OA
HETATM    5  C   UNL     1      39.120 -12.663  -0.369  1.00  0.00     0.054 A 
HETATM    6  C   UNL     1      39.377 -13.983  -0.766  1.00  0.00     0.026 A 
HETATM    7  N   UNL     1      39.877 -14.938   0.158  1.00  0.00    -0.265 NA
HETATM    8  C   UNL     1      38.572 -11.738  -1.261  1.00  0.00     0.019 A 
HETATM    9  C   UNL     1      38.259 -12.141  -2.560  1.00  0.00     0.001 A 
HETATM   10  C   UNL     1      38.470 -13.466  -2.948  1.00  0.00     0.002 A 
HETATM   11  C   UNL     1      39.010 -14.389  -2.050  1.00  0.00     0.024 A 
HETATM   12  H   UNL     1      39.085 -15.268   0.710  1.00  0.00     0.130 HD
ENDROOT
BRANCH   2  13
HETATM   13  N   UNL     1      39.415 -13.727   3.066  1.00  0.00    -0.163 NA
HETATM   14  C   UNL     1      40.083 -13.420   4.244  1.00  0.00     0.249 C 
HETATM   15  O   UNL     1      40.597 -14.299   4.931  1.00  0.00    -0.272 OA
HETATM   16  H   UNL     1      39.313 -14.741   3.051  1.00  0.00     0.156 HD
BRANCH  14  17
HETATM   17  C   UNL     1      40.048 -12.033   4.740  1.00  0.00     0.028 A 
HETATM   18  C   UNL     1      41.040 -11.124   4.357  1.00  0.00     0.019 A 
HETATM   19  C   UNL     1      40.979  -9.807   4.817  1.00  0.00     0.038 A 
HETATM   20  C   UNL     1      39.945  -9.395   5.662  1.00  0.00     0.069 A 
HETATM   21  C   UNL     1      38.939 -10.301   6.015  1.00  0.00     0.038 A 
HETATM   22  C   UNL     1      38.982 -11.616   5.543  1.00  0.00     0.019 A 
BRANCH  20  23
HETATM   23  O   UNL     1      40.014  -8.085   6.054  1.00  0.00    -0.348 OA
BRANCH  23  24
HETATM   24  C   UNL     1      40.973  -7.772   7.062  1.00  0.00     0.202 C 
BRANCH  24  25
HETATM   25  C   UNL     1      41.774  -6.601   6.572  1.00  0.00    -0.011 C 
HETATM   26  C   UNL     1      41.661  -6.054   5.354  1.00  0.00     0.009 C 
ENDBRANCH  24  25
ENDBRANCH  23  24
ENDBRANCH  20  23
ENDBRANCH  14  17
ENDBRANCH   2  13
BRANCH   1  27
HETATM   27  C   UNL     1      41.627 -15.265   1.901  1.00  0.00    -0.014 A 
HETATM   28  C   UNL     1      42.825 -14.879   2.552  1.00  0.00    -0.052 A 
HETATM   29  C   UNL     1      43.560 -15.836   3.282  1.00  0.00     0.014 A 
HETATM   30  C   UNL     1      43.352 -13.468   2.526  1.00  0.00     0.049 C 
HETATM   31  C   UNL     1      43.158 -17.173   3.353  1.00  0.00    -0.061 A 
HETATM   32  C   UNL     1      44.000 -18.188   4.067  1.00  0.00     0.048 C 
HETATM   33  C   UNL     1      42.002 -17.561   2.681  1.00  0.00     0.007 A 
HETATM   34  C   UNL     1      41.247 -16.622   1.975  1.00  0.00     0.011 A 
ENDBRANCH   1  27
TORSDOF 6
ENDMDL
MODEL 7
REMARK VINA RESULT:      -7.8      2.206      7.998
REMARK  6 active torsions:
REMARK  status: ('A' for Active; 'I' for Inactive)
REMARK    1  A    between atoms: C_6  and  C_7 
REMARK    2  A    between atoms: N_8  and  N_9 
REMARK       I    between atoms: N_9  and  C_10 
REMARK    3  A    between atoms: C_10  and  C_11 
REMARK    4  A    between atoms: C_14  and  O_15 
REMARK    5  A    between atoms: O_15  and  C_16 
REMARK    6  A    between atoms: C_16  and  C_17 
ROOT
HETATM    1  C   UNL     1      42.992 -13.041   6.685  1.00  0.00     0.217 C 
HETATM    2  N   UNL     1      42.701 -12.203   5.517  1.00  0.00    -0.247 N 
HETATM    3  C   UNL     1      42.525 -10.832   5.744  1.00  0.00     0.272 C 
HETATM    4  O   UNL     1      42.048 -10.031   4.949  1.00  0.00    -0.266 OA
HETATM    5  C   UNL     1      43.036 -10.323   7.041  1.00  0.00     0.054 A 
HETATM    6  C   UNL     1      43.881 -11.161   7.782  1.00  0.00     0.026 A 
HETATM    7  N   UNL     1      44.184 -12.473   7.330  1.00  0.00    -0.265 NA
HETATM    8  C   UNL     1      42.786  -9.011   7.453  1.00  0.00     0.019 A 
HETATM    9  C   UNL     1      43.400  -8.526   8.607  1.00  0.00     0.001 A 
HETATM   10  C   UNL     1      44.278  -9.341   9.324  1.00  0.00     0.002 A 
HETATM   11  C   UNL     1      44.533 -10.649   8.903  1.00  0.00     0.024 A 
HETATM   12  H   UNL     1      44.908 -12.388   6.617  1.00  0.00     0.130 HD
ENDROOT
BRANCH   2  13
HETATM   13  N   UNL     1      43.347 -12.601   4.260  1.00  0.00    -0.163 NA
HETATM   14  C   UNL     1      42.618 -13.427   3.414  1.00  0.00     0.249 C 
HETATM   15  O   UNL     1      42.962 -14.587   3.207  1.00  0.00    -0.272 OA
HETATM   16  H   UNL     1      44.217 -13.093   4.459  1.00  0.00     0.156 HD
BRANCH  14  17
HETATM   17  C   UNL     1      41.498 -12.849   2.651  1.00  0.00     0.028 A 
HETATM   18  C   UNL     1      41.713 -11.758   1.803  1.00  0.00     0.019 A 
HETATM   19  C   UNL     1      40.646 -11.237   1.069  1.00  0.00     0.038 A 
HETATM   20  C   UNL     1      39.366 -11.789   1.183  1.00  0.00     0.069 A 
HETATM   21  C   UNL     1      39.165 -12.900   2.009  1.00  0.00     0.038 A 
HETATM   22  C   UNL     1      40.234 -13.439   2.733  1.00  0.00     0.019 A 
BRANCH  20  23
HETATM   23  O   UNL     1      38.408 -11.173   0.424  1.00  0.00    -0.348 OA
BRANCH  23  24
HETATM   24  C   UNL     1      38.584 -11.226  -0.990  1.00  0.00     0.202 C 
BRANCH  24  25
HETATM   25  C   UNL     1      37.865 -12.447  -1.486  1.00  0.00    -0.011 C 
HETATM   26  C   UNL     1      38.462 -13.590  -1.849  1.00  0.00     0.009 C 
ENDBRANCH  24  25
ENDBRANCH  23  24
ENDBRANCH  20  23
ENDBRANCH  14  17
ENDBRANCH   2  13
BRANCH   1  27
HETATM   27  C   UNL     1      43.122 -14.547   6.447  1.00  0.00    -0.014 A 
HETATM   28  C   UNL     1      41.981 -15.375   6.303  1.00  0.00    -0.052 A 
HETATM   29  C   UNL     1      42.148 -16.763   6.109  1.00  0.00     0.014 A 
HETATM   30  C   UNL     1      40.573 -14.839   6.324  1.00  0.00     0.049 C 
HETATM   31  C   UNL     1      43.415 -17.354   6.090  1.00  0.00    -0.061 A 
HETATM   32  C   UNL     1      43.561 -18.841   5.964  1.00  0.00     0.048 C 
HETATM   33  C   UNL     1      44.534 -16.547   6.269  1.00  0.00     0.007 A 
HETATM   34  C   UNL     1      44.389 -15.168   6.437  1.00  0.00     0.011 A 
ENDBRANCH   1  27
TORSDOF 6
ENDMDL
MODEL 8
REMARK VINA RESULT:      -7.8      3.668      7.680
REMARK  6 active torsions:
REMARK  status: ('A' for Active; 'I' for Inactive)
REMARK    1  A    between atoms: C_6  and  C_7 
REMARK    2  A    between atoms: N_8  and  N_9 
REMARK       I    between atoms: N_9  and  C_10 
REMARK    3  A    between atoms: C_10  and  C_11 
REMARK    4  A    between atoms: C_14  and  O_15 
REMARK    5  A    between atoms: O_15  and  C_16 
REMARK    6  A    between atoms: C_16  and  C_17 
ROOT
HETATM    1  C   UNL     1      41.853  -9.159   6.586  1.00  0.00     0.217 C 
HETATM    2  N   UNL     1      41.816 -10.621   6.464  1.00  0.00    -0.247 N 
HETATM    3  C   UNL     1      43.040 -11.298   6.533  1.00  0.00     0.272 C 
HETATM    4  O   UNL     1      43.230 -12.467   6.216  1.00  0.00    -0.266 OA
HETATM    5  C   UNL     1      44.170 -10.529   7.111  1.00  0.00     0.054 A 
HETATM    6  C   UNL     1      43.869  -9.337   7.783  1.00  0.00     0.026 A 
HETATM    7  N   UNL     1      42.534  -8.856   7.852  1.00  0.00    -0.265 NA
HETATM    8  C   UNL     1      45.472 -11.035   7.093  1.00  0.00     0.019 A 
HETATM    9  C   UNL     1      46.482 -10.351   7.770  1.00  0.00     0.001 A 
HETATM   10  C   UNL     1      46.180  -9.187   8.480  1.00  0.00     0.002 A 
HETATM   11  C   UNL     1      44.875  -8.690   8.502  1.00  0.00     0.024 A 
HETATM   12  H   UNL     1      42.061  -9.380   8.589  1.00  0.00     0.130 HD
ENDROOT
BRANCH   2  13
HETATM   13  N   UNL     1      40.643 -11.286   7.044  1.00  0.00    -0.163 NA
HETATM   14  C   UNL     1      39.732 -11.840   6.154  1.00  0.00     0.249 C 
HETATM   15  O   UNL     1      38.602 -11.376   6.030  1.00  0.00    -0.272 OA
HETATM   16  H   UNL     1      40.117 -10.626   7.616  1.00  0.00     0.156 HD
BRANCH  14  17
HETATM   17  C   UNL     1      40.090 -13.088   5.456  1.00  0.00     0.028 A 
HETATM   18  C   UNL     1      40.327 -14.258   6.184  1.00  0.00     0.019 A 
HETATM   19  C   UNL     1      40.643 -15.437   5.506  1.00  0.00     0.038 A 
HETATM   20  C   UNL     1      40.734 -15.454   4.111  1.00  0.00     0.069 A 
HETATM   21  C   UNL     1      40.465 -14.287   3.388  1.00  0.00     0.038 A 
HETATM   22  C   UNL     1      40.129 -13.107   4.059  1.00  0.00     0.019 A 
BRANCH  20  23
HETATM   23  O   UNL     1      41.069 -16.668   3.574  1.00  0.00    -0.348 OA
BRANCH  23  24
HETATM   24  C   UNL     1      41.866 -16.643   2.391  1.00  0.00     0.202 C 
BRANCH  24  25
HETATM   25  C   UNL     1      42.687 -17.900   2.377  1.00  0.00    -0.011 C 
HETATM   26  C   UNL     1      43.750 -18.128   3.160  1.00  0.00     0.009 C 
ENDBRANCH  24  25
ENDBRANCH  23  24
ENDBRANCH  20  23
ENDBRANCH  14  17
ENDBRANCH   2  13
BRANCH   1  27
HETATM   27  C   UNL     1      40.524  -8.414   6.448  1.00  0.00    -0.014 A 
HETATM   28  C   UNL     1      39.898  -8.243   5.188  1.00  0.00    -0.052 A 
HETATM   29  C   UNL     1      38.685  -7.528   5.105  1.00  0.00     0.014 A 
HETATM   30  C   UNL     1      40.458  -8.816   3.912  1.00  0.00     0.049 C 
HETATM   31  C   UNL     1      38.096  -6.948   6.232  1.00  0.00    -0.061 A 
HETATM   32  C   UNL     1      36.850  -6.124   6.104  1.00  0.00     0.048 C 
HETATM   33  C   UNL     1      38.730  -7.083   7.464  1.00  0.00     0.007 A 
HETATM   34  C   UNL     1      39.918  -7.809   7.570  1.00  0.00     0.011 A 
ENDBRANCH   1  27
TORSDOF 6
ENDMDL
MODEL 9
REMARK VINA RESULT:      -7.6      7.729     12.114
REMARK  6 active torsions:
REMARK  status: ('A' for Active; 'I' for Inactive)
REMARK    1  A    between atoms: C_6  and  C_7 
REMARK    2  A    between atoms: N_8  and  N_9 
REMARK       I    between atoms: N_9  and  C_10 
REMARK    3  A    between atoms: C_10  and  C_11 
REMARK    4  A    between atoms: C_14  and  O_15 
REMARK    5  A    between atoms: O_15  and  C_16 
REMARK    6  A    between atoms: C_16  and  C_17 
ROOT
HETATM    1  C   UNL     1      40.195  -6.456  13.065  1.00  0.00     0.217 C 
HETATM    2  N   UNL     1      39.338  -7.415  12.358  1.00  0.00    -0.247 N 
HETATM    3  C   UNL     1      39.026  -7.127  11.023  1.00  0.00     0.272 C 
HETATM    4  O   UNL     1      38.149  -7.670  10.361  1.00  0.00    -0.266 OA
HETATM    5  C   UNL     1      39.895  -6.124  10.360  1.00  0.00     0.054 A 
HETATM    6  C   UNL     1      41.091  -5.774  11.002  1.00  0.00     0.026 A 
HETATM    7  N   UNL     1      41.423  -6.317  12.271  1.00  0.00    -0.265 NA
HETATM    8  C   UNL     1      39.596  -5.638   9.085  1.00  0.00     0.019 A 
HETATM    9  C   UNL     1      40.509  -4.807   8.436  1.00  0.00     0.001 A 
HETATM   10  C   UNL     1      41.723  -4.491   9.051  1.00  0.00     0.002 A 
HETATM   11  C   UNL     1      42.021  -4.987  10.322  1.00  0.00     0.024 A 
HETATM   12  H   UNL     1      41.794  -7.254  12.112  1.00  0.00     0.130 HD
ENDROOT
BRANCH   2  13
HETATM   13  N   UNL     1      39.515  -8.827  12.720  1.00  0.00    -0.163 NA
HETATM   14  C   UNL     1      39.941  -9.684  11.714  1.00  0.00     0.249 C 
HETATM   15  O   UNL     1      39.203 -10.559  11.270  1.00  0.00    -0.272 OA
HETATM   16  H   UNL     1      38.636  -9.208  13.067  1.00  0.00     0.156 HD
BRANCH  14  17
HETATM   17  C   UNL     1      41.348  -9.623  11.277  1.00  0.00     0.028 A 
HETATM   18  C   UNL     1      41.659  -9.332   9.946  1.00  0.00     0.019 A 
HETATM   19  C   UNL     1      42.996  -9.256   9.554  1.00  0.00     0.038 A 
HETATM   20  C   UNL     1      44.023  -9.477  10.477  1.00  0.00     0.069 A 
HETATM   21  C   UNL     1      43.704  -9.736  11.814  1.00  0.00     0.038 A 
HETATM   22  C   UNL     1      42.367  -9.795  12.218  1.00  0.00     0.019 A 
BRANCH  20  23
HETATM   23  O   UNL     1      45.287  -9.390   9.958  1.00  0.00    -0.348 OA
BRANCH  23  24
HETATM   24  C   UNL     1      45.432  -8.634   8.758  1.00  0.00     0.202 C 
BRANCH  24  25
HETATM   25  C   UNL     1      46.305  -9.429   7.830  1.00  0.00    -0.011 C 
HETATM   26  C   UNL     1      46.205 -10.750   7.631  1.00  0.00     0.009 C 
ENDBRANCH  24  25
ENDBRANCH  23  24
ENDBRANCH  20  23
ENDBRANCH  14  17
ENDBRANCH   2  13
BRANCH   1  27
HETATM   27  C   UNL     1      40.484  -6.738  14.541  1.00  0.00    -0.014 A 
HETATM   28  C   UNL     1      39.596  -6.321  15.563  1.00  0.00    -0.052 A 
HETATM   29  C   UNL     1      39.916  -6.580  16.912  1.00  0.00     0.014 A 
HETATM   30  C   UNL     1      38.292  -5.623  15.279  1.00  0.00     0.049 C 
HETATM   31  C   UNL     1      41.110  -7.210  17.275  1.00  0.00    -0.061 A 
HETATM   32  C   UNL     1      41.464  -7.401  18.720  1.00  0.00     0.048 C 
HETATM   33  C   UNL     1      42.001  -7.586  16.275  1.00  0.00     0.007 A 
HETATM   34  C   UNL     1      41.690  -7.360  14.932  1.00  0.00     0.011 A 
ENDBRANCH   1  27
TORSDOF 6
ENDMDL
MODEL 10
REMARK VINA RESULT:      -7.5      8.077     11.352
REMARK  6 active torsions:
REMARK  status: ('A' for Active; 'I' for Inactive)
REMARK    1  A    between atoms: C_6  and  C_7 
REMARK    2  A    between atoms: N_8  and  N_9 
REMARK       I    between atoms: N_9  and  C_10 
REMARK    3  A    between atoms: C_10  and  C_11 
REMARK    4  A    between atoms: C_14  and  O_15 
REMARK    5  A    between atoms: O_15  and  C_16 
REMARK    6  A    between atoms: C_16  and  C_17 
ROOT
HETATM    1  C   UNL     1      42.421  -8.113  11.724  1.00  0.00     0.217 C 
HETATM    2  N   UNL     1      41.046  -8.605  11.574  1.00  0.00    -0.247 N 
HETATM    3  C   UNL     1      40.128  -8.243  12.568  1.00  0.00     0.272 C 
HETATM    4  O   UNL     1      39.023  -8.746  12.738  1.00  0.00    -0.266 OA
HETATM    5  C   UNL     1      40.526  -7.102  13.429  1.00  0.00     0.054 A 
HETATM    6  C   UNL     1      41.612  -6.320  13.011  1.00  0.00     0.026 A 
HETATM    7  N   UNL     1      42.339  -6.651  11.836  1.00  0.00    -0.265 NA
HETATM    8  C   UNL     1      39.772  -6.743  14.548  1.00  0.00     0.019 A 
HETATM    9  C   UNL     1      40.095  -5.581  15.249  1.00  0.00     0.001 A 
HETATM   10  C   UNL     1      41.147  -4.773  14.811  1.00  0.00     0.002 A 
HETATM   11  C   UNL     1      41.892  -5.131  13.685  1.00  0.00     0.024 A 
HETATM   12  H   UNL     1      41.800  -6.311  11.040  1.00  0.00     0.130 HD
ENDROOT
BRANCH   2  13
HETATM   13  N   UNL     1      40.546  -8.709  10.198  1.00  0.00    -0.163 NA
HETATM   14  C   UNL     1      39.512  -7.853   9.840  1.00  0.00     0.249 C 
HETATM   15  O   UNL     1      38.388  -8.281   9.595  1.00  0.00    -0.272 OA
HETATM   16  H   UNL     1      40.207  -9.654  10.023  1.00  0.00     0.156 HD
BRANCH  14  17
HETATM   17  C   UNL     1      39.816  -6.428   9.618  1.00  0.00     0.028 A 
HETATM   18  C   UNL     1      39.202  -5.448  10.403  1.00  0.00     0.019 A 
HETATM   19  C   UNL     1      39.517  -4.103  10.195  1.00  0.00     0.038 A 
HETATM   20  C   UNL     1      40.433  -3.732   9.206  1.00  0.00     0.069 A 
HETATM   21  C   UNL     1      41.067  -4.720   8.446  1.00  0.00     0.038 A 
HETATM   22  C   UNL     1      40.770  -6.070   8.661  1.00  0.00     0.019 A 
BRANCH  20  23
HETATM   23  O   UNL     1      40.638  -2.383   9.094  1.00  0.00    -0.348 OA
BRANCH  23  24
HETATM   24  C   UNL     1      41.990  -1.955   8.938  1.00  0.00     0.202 C 
BRANCH  24  25
HETATM   25  C   UNL     1      42.589  -1.851  10.309  1.00  0.00    -0.011 C 
HETATM   26  C   UNL     1      43.440  -2.739  10.841  1.00  0.00     0.009 C 
ENDBRANCH  24  25
ENDBRANCH  23  24
ENDBRANCH  20  23
ENDBRANCH  14  17
ENDBRANCH   2  13
BRANCH   1  27
HETATM   27  C   UNL     1      43.439  -8.560  10.673  1.00  0.00    -0.014 A 
HETATM   28  C   UNL     1      44.060  -9.832  10.737  1.00  0.00    -0.052 A 
HETATM   29  C   UNL     1      45.012 -10.192   9.759  1.00  0.00     0.014 A 
HETATM   30  C   UNL     1      43.736 -10.848  11.800  1.00  0.00     0.049 C 
HETATM   31  C   UNL     1      45.388  -9.310   8.742  1.00  0.00    -0.061 A 
HETATM   32  C   UNL     1      46.461  -9.686   7.764  1.00  0.00     0.048 C 
HETATM   33  C   UNL     1      44.806  -8.047   8.700  1.00  0.00     0.007 A 
HETATM   34  C   UNL     1      43.844  -7.682   9.644  1.00  0.00     0.011 A 
ENDBRANCH   1  27
TORSDOF 6
ENDMDL
