MODEL 1
REMARK VINA RESULT:      -8.7      0.000      0.000
REMARK  2 active torsions:
REMARK  status: ('A' for Active; 'I' for Inactive)
REMARK    1  A    between atoms: C_10  and  C_11 
REMARK    2  A    between atoms: C_12  and  O_13 
ROOT
HETATM    1  C   UNL     1      40.326 -11.902  -2.989  1.00  0.00     0.076 C 
HETATM    2  C   UNL     1      39.692 -11.909  -1.656  1.00  0.00     0.050 A 
HETATM    3  O   UNL     1      40.395 -12.489  -0.644  1.00  0.00    -0.312 OA
HETATM    4  C   UNL     1      39.644 -12.387   0.500  1.00  0.00     0.121 A 
HETATM    5  C   UNL     1      40.084 -12.878   1.765  1.00  0.00     0.163 A 
HETATM    6  N   UNL     1      39.408 -12.821   2.893  1.00  0.00    -0.221 NA
HETATM    7  C   UNL     1      40.238 -13.355   3.862  1.00  0.00     0.149 A 
HETATM    8  C   UNL     1      41.441 -13.742   3.288  1.00  0.00     0.046 A 
HETATM    9  C   UNL     1      42.690 -14.244   3.917  1.00  0.00     0.070 C 
HETATM   10  C   UNL     1      42.500 -15.450   4.860  1.00  0.00     0.045 C 
HETATM   11  C   UNL     1      41.086 -15.630   5.454  1.00  0.00     0.132 C 
HETATM   12  N   UNL     1      40.517 -14.423   6.029  1.00  0.00    -0.355 N 
HETATM   13  C   UNL     1      39.888 -13.444   5.283  1.00  0.00     0.272 C 
HETATM   14  O   UNL     1      39.074 -12.705   5.834  1.00  0.00    -0.266 OA
HETATM   15  N   UNL     1      41.313 -13.452   1.954  1.00  0.00    -0.340 N 
HETATM   16  H   UNL     1      42.008 -13.572   1.230  1.00  0.00     0.167 HD
HETATM   17  C   UNL     1      38.460 -11.739   0.196  1.00  0.00     0.043 A 
HETATM   18  C   UNL     1      38.491 -11.430  -1.184  1.00  0.00     0.035 A 
HETATM   19  H   UNL     1      40.147 -14.470   6.970  1.00  0.00     0.162 HD
ENDROOT
BRANCH  10  20
HETATM   20  C   UNL     1      43.004 -16.735   4.197  1.00  0.00    -0.019 A 
HETATM   21  C   UNL     1      43.898 -17.596   4.872  1.00  0.00     0.074 A 
HETATM   22  C   UNL     1      44.338 -18.769   4.245  1.00  0.00     0.037 A 
HETATM   23  C   UNL     1      43.916 -19.086   2.954  1.00  0.00     0.003 A 
HETATM   24  C   UNL     1      43.060 -18.229   2.271  1.00  0.00     0.001 A 
HETATM   25  C   UNL     1      42.613 -17.059   2.884  1.00  0.00     0.010 A 
BRANCH  21  26
HETATM   26  O   UNL     1      44.284 -17.204   6.127  1.00  0.00    -0.355 OA
HETATM   27  C   UNL     1      43.576 -17.743   7.236  1.00  0.00     0.210 C 
ENDBRANCH  21  26
ENDBRANCH  10  20
TORSDOF 2
ENDMDL
MODEL 2
REMARK VINA RESULT:      -8.6      2.188      4.857
REMARK  2 active torsions:
REMARK  status: ('A' for Active; 'I' for Inactive)
REMARK    1  A    between atoms: C_10  and  C_11 
REMARK    2  A    between atoms: C_12  and  O_13 
ROOT
HETATM    1  C   UNL     1      38.874 -10.547   8.488  1.00  0.00     0.076 C 
HETATM    2  C   UNL     1      39.042 -10.518   7.021  1.00  0.00     0.050 A 
HETATM    3  O   UNL     1      39.400 -11.687   6.422  1.00  0.00    -0.312 OA
HETATM    4  C   UNL     1      39.496 -11.452   5.073  1.00  0.00     0.121 A 
HETATM    5  C   UNL     1      39.837 -12.468   4.130  1.00  0.00     0.163 A 
HETATM    6  N   UNL     1      39.958 -12.304   2.829  1.00  0.00    -0.221 NA
HETATM    7  C   UNL     1      40.237 -13.557   2.312  1.00  0.00     0.149 A 
HETATM    8  C   UNL     1      40.286 -14.488   3.340  1.00  0.00     0.046 A 
HETATM    9  C   UNL     1      40.423 -15.967   3.293  1.00  0.00     0.070 C 
HETATM   10  C   UNL     1      41.626 -16.479   2.476  1.00  0.00     0.045 C 
HETATM   11  C   UNL     1      42.180 -15.514   1.405  1.00  0.00     0.132 C 
HETATM   12  N   UNL     1      41.169 -14.934   0.538  1.00  0.00    -0.355 N 
HETATM   13  C   UNL     1      40.405 -13.835   0.882  1.00  0.00     0.272 C 
HETATM   14  O   UNL     1      39.911 -13.148  -0.010  1.00  0.00    -0.266 OA
HETATM   15  N   UNL     1      40.054 -13.772   4.486  1.00  0.00    -0.340 N 
HETATM   16  H   UNL     1      39.985 -14.128   5.430  1.00  0.00     0.167 HD
HETATM   17  C   UNL     1      39.198 -10.123   4.832  1.00  0.00     0.043 A 
HETATM   18  C   UNL     1      38.905  -9.524   6.079  1.00  0.00     0.035 A 
HETATM   19  H   UNL     1      41.307 -14.993  -0.463  1.00  0.00     0.162 HD
ENDROOT
BRANCH  10  20
HETATM   20  C   UNL     1      42.731 -16.987   3.407  1.00  0.00    -0.019 A 
HETATM   21  C   UNL     1      43.431 -18.180   3.119  1.00  0.00     0.074 A 
HETATM   22  C   UNL     1      44.442 -18.618   3.983  1.00  0.00     0.037 A 
HETATM   23  C   UNL     1      44.752 -17.896   5.136  1.00  0.00     0.003 A 
HETATM   24  C   UNL     1      44.049 -16.737   5.443  1.00  0.00     0.001 A 
HETATM   25  C   UNL     1      43.041 -16.289   4.590  1.00  0.00     0.010 A 
BRANCH  21  26
HETATM   26  O   UNL     1      43.053 -18.843   1.981  1.00  0.00    -0.355 OA
HETATM   27  C   UNL     1      43.141 -20.261   1.980  1.00  0.00     0.210 C 
ENDBRANCH  21  26
ENDBRANCH  10  20
TORSDOF 2
ENDMDL
MODEL 3
REMARK VINA RESULT:      -8.3      6.059      8.888
REMARK  2 active torsions:
REMARK  status: ('A' for Active; 'I' for Inactive)
REMARK    1  A    between atoms: C_10  and  C_11 
REMARK    2  A    between atoms: C_12  and  O_13 
ROOT
HETATM    1  C   UNL     1      39.916  -9.458  13.413  1.00  0.00     0.076 C 
HETATM    2  C   UNL     1      41.273  -9.243  12.872  1.00  0.00     0.050 A 
HETATM    3  O   UNL     1      41.512  -9.705  11.614  1.00  0.00    -0.312 OA
HETATM    4  C   UNL     1      42.814  -9.403  11.298  1.00  0.00     0.121 A 
HETATM    5  C   UNL     1      43.403  -9.728  10.040  1.00  0.00     0.163 A 
HETATM    6  N   UNL     1      44.645  -9.478   9.682  1.00  0.00    -0.221 NA
HETATM    7  C   UNL     1      44.757  -9.907   8.371  1.00  0.00     0.149 A 
HETATM    8  C   UNL     1      43.545 -10.430   7.944  1.00  0.00     0.046 A 
HETATM    9  C   UNL     1      43.119 -10.896   6.599  1.00  0.00     0.070 C 
HETATM   10  C   UNL     1      44.049 -11.944   5.953  1.00  0.00     0.045 C 
HETATM   11  C   UNL     1      45.505 -11.968   6.468  1.00  0.00     0.132 C 
HETATM   12  N   UNL     1      46.145 -10.665   6.524  1.00  0.00    -0.355 N 
HETATM   13  C   UNL     1      45.976  -9.773   7.567  1.00  0.00     0.272 C 
HETATM   14  O   UNL     1      46.841  -8.924   7.773  1.00  0.00    -0.266 OA
HETATM   15  N   UNL     1      42.708 -10.329   9.025  1.00  0.00    -0.340 N 
HETATM   16  H   UNL     1      41.731 -10.584   9.072  1.00  0.00     0.167 HD
HETATM   17  C   UNL     1      43.390  -8.749  12.373  1.00  0.00     0.043 A 
HETATM   18  C   UNL     1      42.403  -8.643  13.380  1.00  0.00     0.035 A 
HETATM   19  H   UNL     1      47.052 -10.558   6.087  1.00  0.00     0.162 HD
ENDROOT
BRANCH  10  20
HETATM   20  C   UNL     1      43.409 -13.334   6.000  1.00  0.00    -0.019 A 
HETATM   21  C   UNL     1      42.897 -13.936   4.829  1.00  0.00     0.074 A 
HETATM   22  C   UNL     1      42.323 -15.212   4.899  1.00  0.00     0.037 A 
HETATM   23  C   UNL     1      42.235 -15.885   6.118  1.00  0.00     0.003 A 
HETATM   24  C   UNL     1      42.708 -15.287   7.280  1.00  0.00     0.001 A 
HETATM   25  C   UNL     1      43.285 -14.018   7.224  1.00  0.00     0.010 A 
BRANCH  21  26
HETATM   26  O   UNL     1      43.000 -13.202   3.677  1.00  0.00    -0.355 OA
HETATM   27  C   UNL     1      43.172 -13.908   2.455  1.00  0.00     0.210 C 
ENDBRANCH  21  26
ENDBRANCH  10  20
TORSDOF 2
ENDMDL
MODEL 4
REMARK VINA RESULT:      -7.9      1.781      7.178
REMARK  2 active torsions:
REMARK  status: ('A' for Active; 'I' for Inactive)
REMARK    1  A    between atoms: C_10  and  C_11 
REMARK    2  A    between atoms: C_12  and  O_13 
ROOT
HETATM    1  C   UNL     1      43.464 -20.285   1.892  1.00  0.00     0.076 C 
HETATM    2  C   UNL     1      43.580 -19.116   2.786  1.00  0.00     0.050 A 
HETATM    3  O   UNL     1      42.725 -18.081   2.557  1.00  0.00    -0.312 OA
HETATM    4  C   UNL     1      42.987 -17.108   3.489  1.00  0.00     0.121 A 
HETATM    5  C   UNL     1      42.262 -15.881   3.557  1.00  0.00     0.163 A 
HETATM    6  N   UNL     1      42.473 -14.907   4.416  1.00  0.00    -0.221 NA
HETATM    7  C   UNL     1      41.506 -13.952   4.153  1.00  0.00     0.149 A 
HETATM    8  C   UNL     1      40.703 -14.375   3.104  1.00  0.00     0.046 A 
HETATM    9  C   UNL     1      39.467 -13.776   2.537  1.00  0.00     0.070 C 
HETATM   10  C   UNL     1      39.593 -12.293   2.132  1.00  0.00     0.045 C 
HETATM   11  C   UNL     1      40.713 -11.492   2.831  1.00  0.00     0.132 C 
HETATM   12  N   UNL     1      40.750 -11.644   4.275  1.00  0.00    -0.355 N 
HETATM   13  C   UNL     1      41.352 -12.710   4.917  1.00  0.00     0.272 C 
HETATM   14  O   UNL     1      41.729 -12.571   6.080  1.00  0.00    -0.266 OA
HETATM   15  N   UNL     1      41.214 -15.589   2.725  1.00  0.00    -0.340 N 
HETATM   16  H   UNL     1      40.862 -16.208   2.007  1.00  0.00     0.167 HD
HETATM   17  C   UNL     1      44.018 -17.542   4.305  1.00  0.00     0.043 A 
HETATM   18  C   UNL     1      44.396 -18.829   3.857  1.00  0.00     0.035 A 
HETATM   19  H   UNL     1      40.771 -10.807   4.844  1.00  0.00     0.162 HD
ENDROOT
BRANCH  10  20
HETATM   20  C   UNL     1      39.664 -12.156   0.609  1.00  0.00    -0.019 A 
HETATM   21  C   UNL     1      38.528 -11.773  -0.139  1.00  0.00     0.074 A 
HETATM   22  C   UNL     1      38.623 -11.648  -1.530  1.00  0.00     0.037 A 
HETATM   23  C   UNL     1      39.824 -11.915  -2.188  1.00  0.00     0.003 A 
HETATM   24  C   UNL     1      40.939 -12.322  -1.463  1.00  0.00     0.001 A 
HETATM   25  C   UNL     1      40.859 -12.448  -0.077  1.00  0.00     0.010 A 
BRANCH  21  26
HETATM   26  O   UNL     1      37.381 -11.551   0.577  1.00  0.00    -0.355 OA
HETATM   27  C   UNL     1      36.854 -10.231   0.589  1.00  0.00     0.210 C 
ENDBRANCH  21  26
ENDBRANCH  10  20
TORSDOF 2
ENDMDL
MODEL 5
REMARK VINA RESULT:      -7.8      3.505      9.146
REMARK  2 active torsions:
REMARK  status: ('A' for Active; 'I' for Inactive)
REMARK    1  A    between atoms: C_10  and  C_11 
REMARK    2  A    between atoms: C_12  and  O_13 
ROOT
HETATM    1  C   UNL     1      43.315 -15.787   3.189  1.00  0.00     0.076 C 
HETATM    2  C   UNL     1      42.008 -15.585   2.531  1.00  0.00     0.050 A 
HETATM    3  O   UNL     1      41.981 -14.735   1.468  1.00  0.00    -0.312 OA
HETATM    4  C   UNL     1      40.691 -14.691   1.001  1.00  0.00     0.121 A 
HETATM    5  C   UNL     1      40.299 -13.907  -0.126  1.00  0.00     0.163 A 
HETATM    6  N   UNL     1      39.081 -13.813  -0.614  1.00  0.00    -0.221 NA
HETATM    7  C   UNL     1      39.179 -13.002  -1.730  1.00  0.00     0.149 A 
HETATM    8  C   UNL     1      40.496 -12.602  -1.904  1.00  0.00     0.046 A 
HETATM    9  C   UNL     1      41.133 -11.842  -3.011  1.00  0.00     0.070 C 
HETATM   10  C   UNL     1      40.451 -10.501  -3.351  1.00  0.00     0.045 C 
HETATM   11  C   UNL     1      38.968 -10.370  -2.937  1.00  0.00     0.132 C 
HETATM   12  N   UNL     1      38.134 -11.494  -3.326  1.00  0.00    -0.355 N 
HETATM   13  C   UNL     1      38.050 -12.670  -2.604  1.00  0.00     0.272 C 
HETATM   14  O   UNL     1      37.047 -13.372  -2.722  1.00  0.00    -0.266 OA
HETATM   15  N   UNL     1      41.185 -13.167  -0.862  1.00  0.00    -0.340 N 
HETATM   16  H   UNL     1      42.179 -13.117  -0.683  1.00  0.00     0.167 HD
HETATM   17  C   UNL     1      39.908 -15.520   1.783  1.00  0.00     0.043 A 
HETATM   18  C   UNL     1      40.751 -16.095   2.763  1.00  0.00     0.035 A 
HETATM   19  H   UNL     1      37.275 -11.302  -3.826  1.00  0.00     0.162 HD
ENDROOT
BRANCH  10  20
HETATM   20  C   UNL     1      41.288  -9.326  -2.838  1.00  0.00    -0.019 A 
HETATM   21  C   UNL     1      41.539  -8.202  -3.656  1.00  0.00     0.074 A 
HETATM   22  C   UNL     1      42.301  -7.138  -3.159  1.00  0.00     0.037 A 
HETATM   23  C   UNL     1      42.831  -7.185  -1.869  1.00  0.00     0.003 A 
HETATM   24  C   UNL     1      42.615  -8.300  -1.068  1.00  0.00     0.001 A 
HETATM   25  C   UNL     1      41.855  -9.366  -1.549  1.00  0.00     0.010 A 
BRANCH  21  26
HETATM   26  O   UNL     1      41.003  -8.241  -4.917  1.00  0.00    -0.355 OA
HETATM   27  C   UNL     1      41.197  -7.109  -5.753  1.00  0.00     0.210 C 
ENDBRANCH  21  26
ENDBRANCH  10  20
TORSDOF 2
ENDMDL
MODEL 6
REMARK VINA RESULT:      -7.5      1.762      2.340
REMARK  2 active torsions:
REMARK  status: ('A' for Active; 'I' for Inactive)
REMARK    1  A    between atoms: C_10  and  C_11 
REMARK    2  A    between atoms: C_12  and  O_13 
ROOT
HETATM    1  C   UNL     1      41.694  -9.823  -1.590  1.00  0.00     0.076 C 
HETATM    2  C   UNL     1      40.906 -10.033  -0.358  1.00  0.00     0.050 A 
HETATM    3  O   UNL     1      41.404 -10.922   0.545  1.00  0.00    -0.312 OA
HETATM    4  C   UNL     1      40.538 -10.966   1.608  1.00  0.00     0.121 A 
HETATM    5  C   UNL     1      40.757 -11.787   2.755  1.00  0.00     0.163 A 
HETATM    6  N   UNL     1      39.961 -11.883   3.799  1.00  0.00    -0.221 NA
HETATM    7  C   UNL     1      40.595 -12.737   4.684  1.00  0.00     0.149 A 
HETATM    8  C   UNL     1      41.801 -13.161   4.144  1.00  0.00     0.046 A 
HETATM    9  C   UNL     1      42.892 -13.970   4.745  1.00  0.00     0.070 C 
HETATM   10  C   UNL     1      42.441 -15.314   5.353  1.00  0.00     0.045 C 
HETATM   11  C   UNL     1      40.954 -15.410   5.760  1.00  0.00     0.132 C 
HETATM   12  N   UNL     1      40.474 -14.290   6.551  1.00  0.00    -0.355 N 
HETATM   13  C   UNL     1      40.066 -13.087   6.006  1.00  0.00     0.272 C 
HETATM   14  O   UNL     1      39.289 -12.376   6.642  1.00  0.00    -0.266 OA
HETATM   15  N   UNL     1      41.873 -12.565   2.911  1.00  0.00    -0.340 N 
HETATM   16  H   UNL     1      42.630 -12.622   2.244  1.00  0.00     0.167 HD
HETATM   17  C   UNL     1      39.489 -10.098   1.363  1.00  0.00     0.043 A 
HETATM   18  C   UNL     1      39.726  -9.497   0.104  1.00  0.00     0.035 A 
HETATM   19  H   UNL     1      39.989 -14.490   7.417  1.00  0.00     0.162 HD
ENDROOT
BRANCH  10  20
HETATM   20  C   UNL     1      42.858 -16.480   4.452  1.00  0.00    -0.019 A 
HETATM   21  C   UNL     1      42.277 -16.655   3.177  1.00  0.00     0.074 A 
HETATM   22  C   UNL     1      42.682 -17.726   2.371  1.00  0.00     0.037 A 
HETATM   23  C   UNL     1      43.642 -18.632   2.822  1.00  0.00     0.003 A 
HETATM   24  C   UNL     1      44.198 -18.485   4.088  1.00  0.00     0.001 A 
HETATM   25  C   UNL     1      43.804 -17.421   4.901  1.00  0.00     0.010 A 
BRANCH  21  26
HETATM   26  O   UNL     1      41.326 -15.737   2.815  1.00  0.00    -0.355 OA
HETATM   27  C   UNL     1      40.452 -16.075   1.746  1.00  0.00     0.210 C 
ENDBRANCH  21  26
ENDBRANCH  10  20
TORSDOF 2
ENDMDL
MODEL 7
REMARK VINA RESULT:      -7.4      4.678      6.854
REMARK  2 active torsions:
REMARK  status: ('A' for Active; 'I' for Inactive)
REMARK    1  A    between atoms: C_10  and  C_11 
REMARK    2  A    between atoms: C_12  and  O_13 
ROOT
HETATM    1  C   UNL     1      43.308 -16.273   1.536  1.00  0.00     0.076 C 
HETATM    2  C   UNL     1      42.179 -15.817   2.372  1.00  0.00     0.050 A 
HETATM    3  O   UNL     1      42.327 -14.620   3.003  1.00  0.00    -0.312 OA
HETATM    4  C   UNL     1      41.179 -14.378   3.714  1.00  0.00     0.121 A 
HETATM    5  C   UNL     1      40.978 -13.196   4.488  1.00  0.00     0.163 A 
HETATM    6  N   UNL     1      39.908 -12.911   5.199  1.00  0.00    -0.221 NA
HETATM    7  C   UNL     1      40.125 -11.650   5.725  1.00  0.00     0.149 A 
HETATM    8  C   UNL     1      41.363 -11.177   5.314  1.00  0.00     0.046 A 
HETATM    9  C   UNL     1      41.994  -9.845   5.500  1.00  0.00     0.070 C 
HETATM   10  C   UNL     1      42.047  -9.353   6.961  1.00  0.00     0.045 C 
HETATM   11  C   UNL     1      41.011  -9.974   7.924  1.00  0.00     0.132 C 
HETATM   12  N   UNL     1      39.648  -9.974   7.421  1.00  0.00    -0.355 N 
HETATM   13  C   UNL     1      39.153 -10.929   6.553  1.00  0.00     0.272 C 
HETATM   14  O   UNL     1      37.940 -11.131   6.516  1.00  0.00    -0.266 OA
HETATM   15  N   UNL     1      41.897 -12.182   4.550  1.00  0.00    -0.340 N 
HETATM   16  H   UNL     1      42.780 -12.177   4.057  1.00  0.00     0.167 HD
HETATM   17  C   UNL     1      40.308 -15.437   3.525  1.00  0.00     0.043 A 
HETATM   18  C   UNL     1      40.948 -16.359   2.663  1.00  0.00     0.035 A 
HETATM   19  H   UNL     1      38.919  -9.597   8.015  1.00  0.00     0.162 HD
ENDROOT
BRANCH  10  20
HETATM   20  C   UNL     1      43.470  -9.461   7.515  1.00  0.00    -0.019 A 
HETATM   21  C   UNL     1      44.070  -8.376   8.192  1.00  0.00     0.074 A 
HETATM   22  C   UNL     1      45.371  -8.505   8.695  1.00  0.00     0.037 A 
HETATM   23  C   UNL     1      46.087  -9.688   8.516  1.00  0.00     0.003 A 
HETATM   24  C   UNL     1      45.517 -10.751   7.825  1.00  0.00     0.001 A 
HETATM   25  C   UNL     1      44.221 -10.637   7.321  1.00  0.00     0.010 A 
BRANCH  21  26
HETATM   26  O   UNL     1      43.310  -7.241   8.306  1.00  0.00    -0.355 OA
HETATM   27  C   UNL     1      43.137  -6.688   9.604  1.00  0.00     0.210 C 
ENDBRANCH  21  26
ENDBRANCH  10  20
TORSDOF 2
ENDMDL
MODEL 8
REMARK VINA RESULT:      -7.3     15.243     17.327
REMARK  2 active torsions:
REMARK  status: ('A' for Active; 'I' for Inactive)
REMARK    1  A    between atoms: C_10  and  C_11 
REMARK    2  A    between atoms: C_12  and  O_13 
ROOT
HETATM    1  C   UNL     1      41.150 -34.009   3.586  1.00  0.00     0.076 C 
HETATM    2  C   UNL     1      41.325 -32.786   2.778  1.00  0.00     0.050 A 
HETATM    3  O   UNL     1      42.597 -32.473   2.407  1.00  0.00    -0.312 OA
HETATM    4  C   UNL     1      42.544 -31.319   1.666  1.00  0.00     0.121 A 
HETATM    5  C   UNL     1      43.701 -30.708   1.096  1.00  0.00     0.163 A 
HETATM    6  N   UNL     1      43.718 -29.598   0.388  1.00  0.00    -0.221 NA
HETATM    7  C   UNL     1      45.032 -29.418  -0.006  1.00  0.00     0.149 A 
HETATM    8  C   UNL     1      45.816 -30.452   0.488  1.00  0.00     0.046 A 
HETATM    9  C   UNL     1      47.244 -30.779   0.241  1.00  0.00     0.070 C 
HETATM   10  C   UNL     1      48.227 -29.618   0.497  1.00  0.00     0.045 C 
HETATM   11  C   UNL     1      47.629 -28.195   0.428  1.00  0.00     0.132 C 
HETATM   12  N   UNL     1      46.816 -27.942  -0.749  1.00  0.00    -0.355 N 
HETATM   13  C   UNL     1      45.489 -28.314  -0.857  1.00  0.00     0.272 C 
HETATM   14  O   UNL     1      44.762 -27.712  -1.644  1.00  0.00    -0.266 OA
HETATM   15  N   UNL     1      44.956 -31.245   1.204  1.00  0.00    -0.340 N 
HETATM   16  H   UNL     1      45.171 -32.110   1.681  1.00  0.00     0.167 HD
HETATM   17  C   UNL     1      41.226 -30.909   1.577  1.00  0.00     0.043 A 
HETATM   18  C   UNL     1      40.444 -31.850   2.287  1.00  0.00     0.035 A 
HETATM   19  H   UNL     1      47.016 -27.116  -1.300  1.00  0.00     0.162 HD
ENDROOT
BRANCH  10  20
HETATM   20  C   UNL     1      49.000 -29.844   1.799  1.00  0.00    -0.019 A 
HETATM   21  C   UNL     1      50.372 -30.183   1.778  1.00  0.00     0.074 A 
HETATM   22  C   UNL     1      51.057 -30.377   2.984  1.00  0.00     0.037 A 
HETATM   23  C   UNL     1      50.393 -30.258   4.205  1.00  0.00     0.003 A 
HETATM   24  C   UNL     1      49.037 -29.955   4.234  1.00  0.00     0.001 A 
HETATM   25  C   UNL     1      48.343 -29.757   3.041  1.00  0.00     0.010 A 
BRANCH  21  26
HETATM   26  O   UNL     1      50.946 -30.303   0.540  1.00  0.00    -0.355 OA
HETATM   27  C   UNL     1      51.372 -31.596   0.130  1.00  0.00     0.210 C 
ENDBRANCH  21  26
ENDBRANCH  10  20
TORSDOF 2
ENDMDL
MODEL 9
REMARK VINA RESULT:      -7.2      2.364      7.091
REMARK  2 active torsions:
REMARK  status: ('A' for Active; 'I' for Inactive)
REMARK    1  A    between atoms: C_10  and  C_11 
REMARK    2  A    between atoms: C_12  and  O_13 
ROOT
HETATM    1  C   UNL     1      43.119 -20.126   1.896  1.00  0.00     0.076 C 
HETATM    2  C   UNL     1      43.602 -19.199   2.940  1.00  0.00     0.050 A 
HETATM    3  O   UNL     1      42.894 -18.049   3.114  1.00  0.00    -0.312 OA
HETATM    4  C   UNL     1      43.495 -17.338   4.123  1.00  0.00     0.121 A 
HETATM    5  C   UNL     1      43.004 -16.080   4.585  1.00  0.00     0.163 A 
HETATM    6  N   UNL     1      43.540 -15.346   5.537  1.00  0.00    -0.221 NA
HETATM    7  C   UNL     1      42.705 -14.253   5.690  1.00  0.00     0.149 A 
HETATM    8  C   UNL     1      41.646 -14.344   4.799  1.00  0.00     0.046 A 
HETATM    9  C   UNL     1      40.431 -13.500   4.659  1.00  0.00     0.070 C 
HETATM   10  C   UNL     1      40.706 -11.989   4.518  1.00  0.00     0.045 C 
HETATM   11  C   UNL     1      42.059 -11.491   5.071  1.00  0.00     0.132 C 
HETATM   12  N   UNL     1      42.368 -11.956   6.413  1.00  0.00    -0.355 N 
HETATM   13  C   UNL     1      42.912 -13.197   6.686  1.00  0.00     0.272 C 
HETATM   14  O   UNL     1      43.538 -13.357   7.733  1.00  0.00    -0.266 OA
HETATM   15  N   UNL     1      41.868 -15.497   4.092  1.00  0.00    -0.340 N 
HETATM   16  H   UNL     1      41.281 -15.901   3.374  1.00  0.00     0.167 HD
HETATM   17  C   UNL     1      44.588 -18.053   4.579  1.00  0.00     0.043 A 
HETATM   18  C   UNL     1      44.656 -19.247   3.823  1.00  0.00     0.035 A 
HETATM   19  H   UNL     1      42.640 -11.269   7.106  1.00  0.00     0.162 HD
ENDROOT
BRANCH  10  20
HETATM   20  C   UNL     1      40.482 -11.533   3.074  1.00  0.00    -0.019 A 
HETATM   21  C   UNL     1      39.358 -10.752   2.725  1.00  0.00     0.074 A 
HETATM   22  C   UNL     1      39.181 -10.343   1.397  1.00  0.00     0.037 A 
HETATM   23  C   UNL     1      40.096 -10.715   0.412  1.00  0.00     0.003 A 
HETATM   24  C   UNL     1      41.190 -11.508   0.740  1.00  0.00     0.001 A 
HETATM   25  C   UNL     1      41.379 -11.921   2.059  1.00  0.00     0.010 A 
BRANCH  21  26
HETATM   26  O   UNL     1      38.494 -10.448   3.744  1.00  0.00    -0.355 OA
HETATM   27  C   UNL     1      38.371  -9.084   4.124  1.00  0.00     0.210 C 
ENDBRANCH  21  26
ENDBRANCH  10  20
TORSDOF 2
ENDMDL
MODEL 10
REMARK VINA RESULT:      -7.1      3.496      7.337
REMARK  2 active torsions:
REMARK  status: ('A' for Active; 'I' for Inactive)
REMARK    1  A    between atoms: C_10  and  C_11 
REMARK    2  A    between atoms: C_12  and  O_13 
ROOT
HETATM    1  C   UNL     1      43.875 -18.096   4.791  1.00  0.00     0.076 C 
HETATM    2  C   UNL     1      43.453 -17.144   3.744  1.00  0.00     0.050 A 
HETATM    3  O   UNL     1      43.275 -15.850   4.127  1.00  0.00    -0.312 OA
HETATM    4  C   UNL     1      42.895 -15.135   3.019  1.00  0.00     0.121 A 
HETATM    5  C   UNL     1      42.639 -13.731   3.051  1.00  0.00     0.163 A 
HETATM    6  N   UNL     1      42.260 -12.993   2.029  1.00  0.00    -0.221 NA
HETATM    7  C   UNL     1      42.192 -11.694   2.502  1.00  0.00     0.149 A 
HETATM    8  C   UNL     1      42.537 -11.666   3.846  1.00  0.00     0.046 A 
HETATM    9  C   UNL     1      42.738 -10.515   4.764  1.00  0.00     0.070 C 
HETATM   10  C   UNL     1      41.562  -9.519   4.820  1.00  0.00     0.045 C 
HETATM   11  C   UNL     1      40.624  -9.508   3.593  1.00  0.00     0.132 C 
HETATM   12  N   UNL     1      41.308  -9.437   2.313  1.00  0.00    -0.355 N 
HETATM   13  C   UNL     1      41.847 -10.536   1.671  1.00  0.00     0.272 C 
HETATM   14  O   UNL     1      42.007 -10.497   0.453  1.00  0.00    -0.266 OA
HETATM   15  N   UNL     1      42.793 -12.971   4.179  1.00  0.00    -0.340 N 
HETATM   16  H   UNL     1      43.105 -13.328   5.073  1.00  0.00     0.167 HD
HETATM   17  C   UNL     1      42.833 -15.994   1.937  1.00  0.00     0.043 A 
HETATM   18  C   UNL     1      43.193 -17.281   2.400  1.00  0.00     0.035 A 
HETATM   19  H   UNL     1      41.016  -8.727   1.653  1.00  0.00     0.162 HD
ENDROOT
BRANCH  10  20
HETATM   20  C   UNL     1      40.782  -9.681   6.127  1.00  0.00    -0.019 A 
HETATM   21  C   UNL     1      41.122  -8.926   7.272  1.00  0.00     0.074 A 
HETATM   22  C   UNL     1      40.387  -9.088   8.454  1.00  0.00     0.037 A 
HETATM   23  C   UNL     1      39.334 -10.001   8.516  1.00  0.00     0.003 A 
HETATM   24  C   UNL     1      39.012 -10.769   7.403  1.00  0.00     0.001 A 
HETATM   25  C   UNL     1      39.734 -10.616   6.220  1.00  0.00     0.010 A 
BRANCH  21  26
HETATM   26  O   UNL     1      42.182  -8.068   7.138  1.00  0.00    -0.355 OA
HETATM   27  C   UNL     1      43.251  -8.186   8.067  1.00  0.00     0.210 C 
ENDBRANCH  21  26
ENDBRANCH  10  20
TORSDOF 2
ENDMDL
