MODEL 1
REMARK VINA RESULT:      -7.1      0.000      0.000
REMARK  5 active torsions:
REMARK  status: ('A' for Active; 'I' for Inactive)
REMARK    1  A    between atoms: C_3  and  N_4 
REMARK       I    between atoms: N_4  and  C_5 
REMARK       I    between atoms: C_5  and  N_6 
REMARK    2  A    between atoms: N_6  and  C_7 
REMARK    3  A    between atoms: C_7  and  C_8 
REMARK    4  A    between atoms: C_8  and  O_9 
REMARK    5  A    between atoms: O_9  and  C_10 
ROOT
HETATM    1  N   UNL     1      42.105 -14.476   4.694  1.00  0.00    -0.307 N 
HETATM    2  C   UNL     1      41.791 -14.142   5.977  1.00  0.00     0.320 C 
HETATM    3  N   UNL     1      42.258 -14.999   6.930  1.00  0.00    -0.340 N 
HETATM    4  O   UNL     1      41.194 -13.136   6.341  1.00  0.00    -0.247 OA
HETATM    5  H   UNL     1      43.053 -14.830   4.644  1.00  0.00     0.170 HD
HETATM    6  H   UNL     1      42.005 -14.640   7.843  1.00  0.00     0.164 HD
ENDROOT
BRANCH   3   7
HETATM    7  C   UNL     1      42.382 -16.456   6.864  1.00  0.00     0.156 C 
BRANCH   7   8
HETATM    8  C   UNL     1      43.725 -17.064   6.405  1.00  0.00     0.142 C 
HETATM    9  C   UNL     1      44.865 -16.136   6.829  1.00  0.00     0.042 C 
BRANCH   8  10
HETATM   10  O   UNL     1      43.688 -17.180   4.977  1.00  0.00    -0.343 OA
BRANCH  10  11
HETATM   11  C   UNL     1      43.751 -18.409   4.378  1.00  0.00     0.086 A 
HETATM   12  C   UNL     1      43.513 -18.445   2.995  1.00  0.00     0.044 A 
HETATM   13 BR   UNL     1      43.147 -16.860   2.009  1.00  0.00    -0.048 Br
HETATM   14  C   UNL     1      43.545 -19.654   2.293  1.00  0.00     0.022 A 
HETATM   15  C   UNL     1      43.806 -20.842   2.970  1.00  0.00     0.002 A 
HETATM   16  C   UNL     1      44.030 -20.820   4.345  1.00  0.00     0.003 A 
HETATM   17  C   UNL     1      44.001 -19.610   5.047  1.00  0.00     0.038 A 
ENDBRANCH  10  11
ENDBRANCH   8  10
ENDBRANCH   7   8
ENDBRANCH   3   7
BRANCH   1  18
HETATM   18  C   UNL     1      41.618 -13.864   3.516  1.00  0.00     0.059 A 
HETATM   19  C   UNL     1      42.215 -12.792   2.835  1.00  0.00    -0.032 A 
HETATM   20  C   UNL     1      43.469 -12.090   3.272  1.00  0.00     0.050 C 
HETATM   21  C   UNL     1      41.596 -12.325   1.661  1.00  0.00     0.028 A 
HETATM   22  C   UNL     1      40.398 -12.884   1.247  1.00  0.00     0.117 A 
HETATM   23  N   UNL     1      39.768 -13.869   1.913  1.00  0.00    -0.271 NA
HETATM   24  C   UNL     1      40.394 -14.331   3.021  1.00  0.00     0.146 A 
ENDBRANCH   1  18
TORSDOF 5
ENDMDL
MODEL 2
REMARK VINA RESULT:      -7.0      3.661      5.047
REMARK  5 active torsions:
REMARK  status: ('A' for Active; 'I' for Inactive)
REMARK    1  A    between atoms: C_3  and  N_4 
REMARK       I    between atoms: N_4  and  C_5 
REMARK       I    between atoms: C_5  and  N_6 
REMARK    2  A    between atoms: N_6  and  C_7 
REMARK    3  A    between atoms: C_7  and  C_8 
REMARK    4  A    between atoms: C_8  and  O_9 
REMARK    5  A    between atoms: O_9  and  C_10 
ROOT
HETATM    1  N   UNL     1      42.708 -11.504   6.998  1.00  0.00    -0.307 N 
HETATM    2  C   UNL     1      42.133 -11.477   5.764  1.00  0.00     0.320 C 
HETATM    3  N   UNL     1      41.179 -12.427   5.548  1.00  0.00    -0.340 N 
HETATM    4  O   UNL     1      42.350 -10.657   4.879  1.00  0.00    -0.247 OA
HETATM    5  H   UNL     1      42.013 -11.703   7.708  1.00  0.00     0.170 HD
HETATM    6  H   UNL     1      40.791 -12.293   4.622  1.00  0.00     0.164 HD
ENDROOT
BRANCH   3   7
HETATM    7  C   UNL     1      41.146 -13.810   6.025  1.00  0.00     0.156 C 
BRANCH   7   8
HETATM    8  C   UNL     1      41.179 -14.952   4.986  1.00  0.00     0.142 C 
HETATM    9  C   UNL     1      40.632 -16.229   5.628  1.00  0.00     0.042 C 
BRANCH   8  10
HETATM   10  O   UNL     1      42.542 -15.144   4.589  1.00  0.00    -0.343 OA
BRANCH  10  11
HETATM   11  C   UNL     1      42.947 -16.333   4.047  1.00  0.00     0.086 A 
HETATM   12  C   UNL     1      43.871 -17.082   4.794  1.00  0.00     0.044 A 
HETATM   13 BR   UNL     1      44.503 -16.477   6.482  1.00  0.00    -0.048 Br
HETATM   14  C   UNL     1      44.352 -18.305   4.320  1.00  0.00     0.022 A 
HETATM   15  C   UNL     1      43.922 -18.790   3.089  1.00  0.00     0.002 A 
HETATM   16  C   UNL     1      43.015 -18.051   2.333  1.00  0.00     0.003 A 
HETATM   17  C   UNL     1      42.531 -16.827   2.807  1.00  0.00     0.038 A 
ENDBRANCH  10  11
ENDBRANCH   8  10
ENDBRANCH   7   8
ENDBRANCH   3   7
BRANCH   1  18
HETATM   18  C   UNL     1      43.824 -10.750   7.430  1.00  0.00     0.059 A 
HETATM   19  C   UNL     1      43.781  -9.486   8.040  1.00  0.00    -0.032 A 
HETATM   20  C   UNL     1      42.526  -8.705   8.306  1.00  0.00     0.050 C 
HETATM   21  C   UNL     1      44.997  -8.893   8.424  1.00  0.00     0.028 A 
HETATM   22  C   UNL     1      46.193  -9.532   8.139  1.00  0.00     0.117 A 
HETATM   23  N   UNL     1      46.271 -10.713   7.499  1.00  0.00    -0.271 NA
HETATM   24  C   UNL     1      45.090 -11.288   7.167  1.00  0.00     0.146 A 
ENDBRANCH   1  18
TORSDOF 5
ENDMDL
MODEL 3
REMARK VINA RESULT:      -7.0      2.443      3.741
REMARK  5 active torsions:
REMARK  status: ('A' for Active; 'I' for Inactive)
REMARK    1  A    between atoms: C_3  and  N_4 
REMARK       I    between atoms: N_4  and  C_5 
REMARK       I    between atoms: C_5  and  N_6 
REMARK    2  A    between atoms: N_6  and  C_7 
REMARK    3  A    between atoms: C_7  and  C_8 
REMARK    4  A    between atoms: C_8  and  O_9 
REMARK    5  A    between atoms: O_9  and  C_10 
ROOT
HETATM    1  N   UNL     1      40.750 -12.883   1.840  1.00  0.00    -0.307 N 
HETATM    2  C   UNL     1      39.805 -12.619   2.784  1.00  0.00     0.320 C 
HETATM    3  N   UNL     1      40.264 -12.573   4.068  1.00  0.00    -0.340 N 
HETATM    4  O   UNL     1      38.624 -12.365   2.580  1.00  0.00    -0.247 OA
HETATM    5  H   UNL     1      41.613 -12.399   2.059  1.00  0.00     0.170 HD
HETATM    6  H   UNL     1      39.495 -12.332   4.681  1.00  0.00     0.164 HD
ENDROOT
BRANCH   3   7
HETATM    7  C   UNL     1      41.303 -13.393   4.693  1.00  0.00     0.156 C 
BRANCH   7   8
HETATM    8  C   UNL     1      41.359 -14.900   4.357  1.00  0.00     0.142 C 
HETATM    9  C   UNL     1      40.716 -15.690   5.499  1.00  0.00     0.042 C 
BRANCH   8  10
HETATM   10  O   UNL     1      42.736 -15.267   4.217  1.00  0.00    -0.343 OA
BRANCH  10  11
HETATM   11  C   UNL     1      43.082 -16.529   3.819  1.00  0.00     0.086 A 
HETATM   12  C   UNL     1      43.919 -17.253   4.682  1.00  0.00     0.044 A 
HETATM   13 BR   UNL     1      44.519 -16.517   6.330  1.00  0.00    -0.048 Br
HETATM   14  C   UNL     1      44.336 -18.548   4.359  1.00  0.00     0.022 A 
HETATM   15  C   UNL     1      43.926 -19.130   3.163  1.00  0.00     0.002 A 
HETATM   16  C   UNL     1      43.105 -18.417   2.292  1.00  0.00     0.003 A 
HETATM   17  C   UNL     1      42.686 -17.122   2.616  1.00  0.00     0.038 A 
ENDBRANCH  10  11
ENDBRANCH   8  10
ENDBRANCH   7   8
ENDBRANCH   3   7
BRANCH   1  18
HETATM   18  C   UNL     1      40.527 -13.146   0.469  1.00  0.00     0.059 A 
HETATM   19  C   UNL     1      40.122 -14.371  -0.082  1.00  0.00    -0.032 A 
HETATM   20  C   UNL     1      39.889 -15.630   0.704  1.00  0.00     0.050 C 
HETATM   21  C   UNL     1      39.929 -14.441  -1.474  1.00  0.00     0.028 A 
HETATM   22  C   UNL     1      40.198 -13.334  -2.262  1.00  0.00     0.117 A 
HETATM   23  N   UNL     1      40.649 -12.165  -1.771  1.00  0.00    -0.271 NA
HETATM   24  C   UNL     1      40.797 -12.102  -0.426  1.00  0.00     0.146 A 
ENDBRANCH   1  18
TORSDOF 5
ENDMDL
MODEL 4
REMARK VINA RESULT:      -7.0      2.862      4.265
REMARK  5 active torsions:
REMARK  status: ('A' for Active; 'I' for Inactive)
REMARK    1  A    between atoms: C_3  and  N_4 
REMARK       I    between atoms: N_4  and  C_5 
REMARK       I    between atoms: C_5  and  N_6 
REMARK    2  A    between atoms: N_6  and  C_7 
REMARK    3  A    between atoms: C_7  and  C_8 
REMARK    4  A    between atoms: C_8  and  O_9 
REMARK    5  A    between atoms: O_9  and  C_10 
ROOT
HETATM    1  N   UNL     1      41.085 -13.653  -0.122  1.00  0.00    -0.307 N 
HETATM    2  C   UNL     1      40.809 -13.504   1.203  1.00  0.00     0.320 C 
HETATM    3  N   UNL     1      41.838 -13.806   2.046  1.00  0.00    -0.340 N 
HETATM    4  O   UNL     1      39.767 -13.076   1.686  1.00  0.00    -0.247 OA
HETATM    5  H   UNL     1      42.025 -13.334  -0.325  1.00  0.00     0.170 HD
HETATM    6  H   UNL     1      41.542 -13.625   2.998  1.00  0.00     0.164 HD
ENDROOT
BRANCH   3   7
HETATM    7  C   UNL     1      42.844 -14.861   1.915  1.00  0.00     0.156 C 
BRANCH   7   8
HETATM    8  C   UNL     1      42.471 -16.297   2.344  1.00  0.00     0.142 C 
HETATM    9  C   UNL     1      41.189 -16.252   3.178  1.00  0.00     0.042 C 
BRANCH   8  10
HETATM   10  O   UNL     1      43.552 -16.816   3.127  1.00  0.00    -0.343 OA
BRANCH  10  11
HETATM   11  C   UNL     1      43.651 -18.158   3.374  1.00  0.00     0.086 A 
HETATM   12  C   UNL     1      43.923 -18.534   4.699  1.00  0.00     0.044 A 
HETATM   13 BR   UNL     1      44.121 -17.239   6.077  1.00  0.00    -0.048 Br
HETATM   14  C   UNL     1      44.052 -19.881   5.049  1.00  0.00     0.022 A 
HETATM   15  C   UNL     1      43.919 -20.867   4.076  1.00  0.00     0.002 A 
HETATM   16  C   UNL     1      43.661 -20.505   2.756  1.00  0.00     0.003 A 
HETATM   17  C   UNL     1      43.530 -19.157   2.405  1.00  0.00     0.038 A 
ENDBRANCH  10  11
ENDBRANCH   8  10
ENDBRANCH   7   8
ENDBRANCH   3   7
BRANCH   1  18
HETATM   18  C   UNL     1      40.165 -13.568  -1.193  1.00  0.00     0.059 A 
HETATM   19  C   UNL     1      39.882 -12.420  -1.950  1.00  0.00    -0.032 A 
HETATM   20  C   UNL     1      40.495 -11.068  -1.718  1.00  0.00     0.050 C 
HETATM   21  C   UNL     1      38.949 -12.529  -2.996  1.00  0.00     0.028 A 
HETATM   22  C   UNL     1      38.295 -13.732  -3.212  1.00  0.00     0.117 A 
HETATM   23  N   UNL     1      38.498 -14.832  -2.464  1.00  0.00    -0.271 NA
HETATM   24  C   UNL     1      39.424 -14.721  -1.483  1.00  0.00     0.146 A 
ENDBRANCH   1  18
TORSDOF 5
ENDMDL
MODEL 5
REMARK VINA RESULT:      -6.8      3.221      5.131
REMARK  5 active torsions:
REMARK  status: ('A' for Active; 'I' for Inactive)
REMARK    1  A    between atoms: C_3  and  N_4 
REMARK       I    between atoms: N_4  and  C_5 
REMARK       I    between atoms: C_5  and  N_6 
REMARK    2  A    between atoms: N_6  and  C_7 
REMARK    3  A    between atoms: C_7  and  C_8 
REMARK    4  A    between atoms: C_8  and  O_9 
REMARK    5  A    between atoms: O_9  and  C_10 
ROOT
HETATM    1  N   UNL     1      41.258 -12.212   0.108  1.00  0.00    -0.307 N 
HETATM    2  C   UNL     1      40.760 -11.134   0.776  1.00  0.00     0.320 C 
HETATM    3  N   UNL     1      41.581 -10.614   1.732  1.00  0.00    -0.340 N 
HETATM    4  O   UNL     1      39.693 -10.572   0.555  1.00  0.00    -0.247 OA
HETATM    5  H   UNL     1      42.246 -12.085  -0.078  1.00  0.00     0.170 HD
HETATM    6  H   UNL     1      41.135  -9.799   2.136  1.00  0.00     0.164 HD
ENDROOT
BRANCH   3   7
HETATM    7  C   UNL     1      42.487 -11.320   2.638  1.00  0.00     0.156 C 
BRANCH   7   8
HETATM    8  C   UNL     1      41.905 -12.413   3.563  1.00  0.00     0.142 C 
HETATM    9  C   UNL     1      41.374 -11.756   4.839  1.00  0.00     0.042 C 
BRANCH   8  10
HETATM   10  O   UNL     1      42.961 -13.327   3.881  1.00  0.00    -0.343 OA
BRANCH  10  11
HETATM   11  C   UNL     1      43.018 -14.557   3.287  1.00  0.00     0.086 A 
HETATM   12  C   UNL     1      42.786 -15.666   4.117  1.00  0.00     0.044 A 
HETATM   13 BR   UNL     1      42.393 -15.457   5.965  1.00  0.00    -0.048 Br
HETATM   14  C   UNL     1      42.832 -16.966   3.605  1.00  0.00     0.022 A 
HETATM   15  C   UNL     1      43.119 -17.172   2.259  1.00  0.00     0.002 A 
HETATM   16  C   UNL     1      43.363 -16.081   1.428  1.00  0.00     0.003 A 
HETATM   17  C   UNL     1      43.315 -14.779   1.939  1.00  0.00     0.038 A 
ENDBRANCH  10  11
ENDBRANCH   8  10
ENDBRANCH   7   8
ENDBRANCH   3   7
BRANCH   1  18
HETATM   18  C   UNL     1      40.564 -13.038  -0.806  1.00  0.00     0.059 A 
HETATM   19  C   UNL     1      39.925 -14.250  -0.503  1.00  0.00    -0.032 A 
HETATM   20  C   UNL     1      39.903 -14.892   0.855  1.00  0.00     0.050 C 
HETATM   21  C   UNL     1      39.262 -14.928  -1.542  1.00  0.00     0.028 A 
HETATM   22  C   UNL     1      39.309 -14.423  -2.832  1.00  0.00     0.117 A 
HETATM   23  N   UNL     1      39.967 -13.298  -3.166  1.00  0.00    -0.271 NA
HETATM   24  C   UNL     1      40.570 -12.638  -2.149  1.00  0.00     0.146 A 
ENDBRANCH   1  18
TORSDOF 5
ENDMDL
MODEL 6
REMARK VINA RESULT:      -6.8      2.467      6.005
REMARK  5 active torsions:
REMARK  status: ('A' for Active; 'I' for Inactive)
REMARK    1  A    between atoms: C_3  and  N_4 
REMARK       I    between atoms: N_4  and  C_5 
REMARK       I    between atoms: C_5  and  N_6 
REMARK    2  A    between atoms: N_6  and  C_7 
REMARK    3  A    between atoms: C_7  and  C_8 
REMARK    4  A    between atoms: C_8  and  O_9 
REMARK    5  A    between atoms: O_9  and  C_10 
ROOT
HETATM    1  N   UNL     1      42.487 -16.506   2.975  1.00  0.00    -0.307 N 
HETATM    2  C   UNL     1      42.883 -15.577   2.061  1.00  0.00     0.320 C 
HETATM    3  N   UNL     1      42.103 -14.461   1.994  1.00  0.00    -0.340 N 
HETATM    4  O   UNL     1      43.886 -15.630   1.358  1.00  0.00    -0.247 OA
HETATM    5  H   UNL     1      42.167 -16.053   3.822  1.00  0.00     0.170 HD
HETATM    6  H   UNL     1      42.505 -13.822   1.317  1.00  0.00     0.164 HD
ENDROOT
BRANCH   3   7
HETATM    7  C   UNL     1      40.650 -14.354   2.139  1.00  0.00     0.156 C 
BRANCH   7   8
HETATM    8  C   UNL     1      40.079 -13.778   3.453  1.00  0.00     0.142 C 
HETATM    9  C   UNL     1      39.152 -12.606   3.124  1.00  0.00     0.042 C 
BRANCH   8  10
HETATM   10  O   UNL     1      41.180 -13.329   4.251  1.00  0.00    -0.343 OA
BRANCH  10  11
HETATM   11  C   UNL     1      41.589 -14.048   5.339  1.00  0.00     0.086 A 
HETATM   12  C   UNL     1      42.752 -13.600   5.987  1.00  0.00     0.044 A 
HETATM   13 BR   UNL     1      43.689 -12.058   5.388  1.00  0.00    -0.048 Br
HETATM   14  C   UNL     1      43.256 -14.275   7.103  1.00  0.00     0.022 A 
HETATM   15  C   UNL     1      42.607 -15.411   7.579  1.00  0.00     0.002 A 
HETATM   16  C   UNL     1      41.461 -15.872   6.937  1.00  0.00     0.003 A 
HETATM   17  C   UNL     1      40.954 -15.197   5.821  1.00  0.00     0.038 A 
ENDBRANCH  10  11
ENDBRANCH   8  10
ENDBRANCH   7   8
ENDBRANCH   3   7
BRANCH   1  18
HETATM   18  C   UNL     1      43.010 -17.810   3.138  1.00  0.00     0.059 A 
HETATM   19  C   UNL     1      43.879 -18.230   4.157  1.00  0.00    -0.032 A 
HETATM   20  C   UNL     1      44.429 -17.340   5.235  1.00  0.00     0.050 C 
HETATM   21  C   UNL     1      44.280 -19.578   4.173  1.00  0.00     0.028 A 
HETATM   22  C   UNL     1      43.865 -20.430   3.162  1.00  0.00     0.117 A 
HETATM   23  N   UNL     1      43.085 -20.043   2.137  1.00  0.00    -0.271 NA
HETATM   24  C   UNL     1      42.678 -18.751   2.155  1.00  0.00     0.146 A 
ENDBRANCH   1  18
TORSDOF 5
ENDMDL
MODEL 7
REMARK VINA RESULT:      -6.7     13.962     15.804
REMARK  5 active torsions:
REMARK  status: ('A' for Active; 'I' for Inactive)
REMARK    1  A    between atoms: C_3  and  N_4 
REMARK       I    between atoms: N_4  and  C_5 
REMARK       I    between atoms: C_5  and  N_6 
REMARK    2  A    between atoms: N_6  and  C_7 
REMARK    3  A    between atoms: C_7  and  C_8 
REMARK    4  A    between atoms: C_8  and  O_9 
REMARK    5  A    between atoms: O_9  and  C_10 
ROOT
HETATM    1  N   UNL     1      47.411 -29.811   1.516  1.00  0.00    -0.307 N 
HETATM    2  C   UNL     1      46.916 -28.591   1.864  1.00  0.00     0.320 C 
HETATM    3  N   UNL     1      45.719 -28.615   2.515  1.00  0.00    -0.340 N 
HETATM    4  O   UNL     1      47.468 -27.509   1.701  1.00  0.00    -0.247 OA
HETATM    5  H   UNL     1      47.243 -30.484   2.254  1.00  0.00     0.170 HD
HETATM    6  H   UNL     1      45.462 -27.666   2.762  1.00  0.00     0.164 HD
ENDROOT
BRANCH   3   7
HETATM    7  C   UNL     1      44.583 -29.513   2.301  1.00  0.00     0.156 C 
BRANCH   7   8
HETATM    8  C   UNL     1      43.845 -29.461   0.945  1.00  0.00     0.142 C 
HETATM    9  C   UNL     1      42.521 -30.220   1.067  1.00  0.00     0.042 C 
BRANCH   8  10
HETATM   10  O   UNL     1      44.683 -30.085  -0.035  1.00  0.00    -0.343 OA
BRANCH  10  11
HETATM   11  C   UNL     1      44.740 -29.599  -1.312  1.00  0.00     0.086 A 
HETATM   12  C   UNL     1      44.471 -30.514  -2.344  1.00  0.00     0.044 A 
HETATM   13 BR   UNL     1      44.030 -32.326  -1.973  1.00  0.00    -0.048 Br
HETATM   14  C   UNL     1      44.514 -30.116  -3.684  1.00  0.00     0.022 A 
HETATM   15  C   UNL     1      44.834 -28.800  -4.007  1.00  0.00     0.002 A 
HETATM   16  C   UNL     1      45.114 -27.888  -2.993  1.00  0.00     0.003 A 
HETATM   17  C   UNL     1      45.070 -28.285  -1.652  1.00  0.00     0.038 A 
ENDBRANCH  10  11
ENDBRANCH   8  10
ENDBRANCH   7   8
ENDBRANCH   3   7
BRANCH   1  18
HETATM   18  C   UNL     1      48.538 -30.067   0.700  1.00  0.00     0.059 A 
HETATM   19  C   UNL     1      49.835 -30.358   1.150  1.00  0.00    -0.032 A 
HETATM   20  C   UNL     1      50.249 -30.413   2.593  1.00  0.00     0.050 C 
HETATM   21  C   UNL     1      50.830 -30.608   0.189  1.00  0.00     0.028 A 
HETATM   22  C   UNL     1      50.526 -30.500  -1.159  1.00  0.00     0.117 A 
HETATM   23  N   UNL     1      49.310 -30.160  -1.621  1.00  0.00    -0.271 NA
HETATM   24  C   UNL     1      48.353 -29.957  -0.684  1.00  0.00     0.146 A 
ENDBRANCH   1  18
TORSDOF 5
ENDMDL
MODEL 8
REMARK VINA RESULT:      -6.5      2.514      5.828
REMARK  5 active torsions:
REMARK  status: ('A' for Active; 'I' for Inactive)
REMARK    1  A    between atoms: C_3  and  N_4 
REMARK       I    between atoms: N_4  and  C_5 
REMARK       I    between atoms: C_5  and  N_6 
REMARK    2  A    between atoms: N_6  and  C_7 
REMARK    3  A    between atoms: C_7  and  C_8 
REMARK    4  A    between atoms: C_8  and  O_9 
REMARK    5  A    between atoms: O_9  and  C_10 
ROOT
HETATM    1  N   UNL     1      43.071 -15.616   5.060  1.00  0.00    -0.307 N 
HETATM    2  C   UNL     1      42.377 -15.531   6.229  1.00  0.00     0.320 C 
HETATM    3  N   UNL     1      42.454 -14.327   6.863  1.00  0.00    -0.340 N 
HETATM    4  O   UNL     1      41.660 -16.400   6.713  1.00  0.00    -0.247 OA
HETATM    5  H   UNL     1      42.985 -14.753   4.535  1.00  0.00     0.170 HD
HETATM    6  H   UNL     1      41.874 -14.358   7.694  1.00  0.00     0.164 HD
ENDROOT
BRANCH   3   7
HETATM    7  C   UNL     1      43.597 -13.417   6.956  1.00  0.00     0.156 C 
BRANCH   7   8
HETATM    8  C   UNL     1      43.789 -12.355   5.851  1.00  0.00     0.142 C 
HETATM    9  C   UNL     1      44.666 -11.224   6.392  1.00  0.00     0.042 C 
BRANCH   8  10
HETATM   10  O   UNL     1      42.495 -11.852   5.497  1.00  0.00    -0.343 OA
BRANCH  10  11
HETATM   11  C   UNL     1      41.937 -12.159   4.287  1.00  0.00     0.086 A 
HETATM   12  C   UNL     1      40.546 -12.351   4.268  1.00  0.00     0.044 A 
HETATM   13 BR   UNL     1      39.498 -12.167   5.844  1.00  0.00    -0.048 Br
HETATM   14  C   UNL     1      39.883 -12.678   3.081  1.00  0.00     0.022 A 
HETATM   15  C   UNL     1      40.607 -12.826   1.901  1.00  0.00     0.002 A 
HETATM   16  C   UNL     1      41.988 -12.651   1.910  1.00  0.00     0.003 A 
HETATM   17  C   UNL     1      42.652 -12.322   3.097  1.00  0.00     0.038 A 
ENDBRANCH  10  11
ENDBRANCH   8  10
ENDBRANCH   7   8
ENDBRANCH   3   7
BRANCH   1  18
HETATM   18  C   UNL     1      43.296 -16.780   4.290  1.00  0.00     0.059 A 
HETATM   19  C   UNL     1      42.621 -17.134   3.111  1.00  0.00    -0.032 A 
HETATM   20  C   UNL     1      41.512 -16.337   2.486  1.00  0.00     0.050 C 
HETATM   21  C   UNL     1      42.995 -18.326   2.466  1.00  0.00     0.028 A 
HETATM   22  C   UNL     1      43.961 -19.141   3.033  1.00  0.00     0.117 A 
HETATM   23  N   UNL     1      44.580 -18.862   4.195  1.00  0.00    -0.271 NA
HETATM   24  C   UNL     1      44.235 -17.694   4.786  1.00  0.00     0.146 A 
ENDBRANCH   1  18
TORSDOF 5
ENDMDL
MODEL 9
REMARK VINA RESULT:      -6.4      4.113      7.512
REMARK  5 active torsions:
REMARK  status: ('A' for Active; 'I' for Inactive)
REMARK    1  A    between atoms: C_3  and  N_4 
REMARK       I    between atoms: N_4  and  C_5 
REMARK       I    between atoms: C_5  and  N_6 
REMARK    2  A    between atoms: N_6  and  C_7 
REMARK    3  A    between atoms: C_7  and  C_8 
REMARK    4  A    between atoms: C_8  and  O_9 
REMARK    5  A    between atoms: O_9  and  C_10 
ROOT
HETATM    1  N   UNL     1      42.831 -15.363   5.084  1.00  0.00    -0.307 N 
HETATM    2  C   UNL     1      42.395 -15.308   6.373  1.00  0.00     0.320 C 
HETATM    3  N   UNL     1      42.312 -14.054   6.904  1.00  0.00    -0.340 N 
HETATM    4  O   UNL     1      42.022 -16.254   7.056  1.00  0.00    -0.247 OA
HETATM    5  H   UNL     1      42.435 -14.602   4.544  1.00  0.00     0.170 HD
HETATM    6  H   UNL     1      41.942 -14.122   7.844  1.00  0.00     0.164 HD
ENDROOT
BRANCH   3   7
HETATM    7  C   UNL     1      43.200 -12.911   6.683  1.00  0.00     0.156 C 
BRANCH   7   8
HETATM    8  C   UNL     1      42.579 -11.568   6.239  1.00  0.00     0.142 C 
HETATM    9  C   UNL     1      42.333 -11.606   4.729  1.00  0.00     0.042 C 
BRANCH   8  10
HETATM   10  O   UNL     1      43.509 -10.527   6.563  1.00  0.00    -0.343 OA
BRANCH  10  11
HETATM   11  C   UNL     1      43.646 -10.094   7.853  1.00  0.00     0.086 A 
HETATM   12  C   UNL     1      44.942 -10.135   8.394  1.00  0.00     0.044 A 
HETATM   13 BR   UNL     1      46.425 -10.740   7.370  1.00  0.00    -0.048 Br
HETATM   14  C   UNL     1      45.184  -9.723   9.708  1.00  0.00     0.022 A 
HETATM   15  C   UNL     1      44.130  -9.274  10.499  1.00  0.00     0.002 A 
HETATM   16  C   UNL     1      42.839  -9.241   9.977  1.00  0.00     0.003 A 
HETATM   17  C   UNL     1      42.596  -9.651   8.662  1.00  0.00     0.038 A 
ENDBRANCH  10  11
ENDBRANCH   8  10
ENDBRANCH   7   8
ENDBRANCH   3   7
BRANCH   1  18
HETATM   18  C   UNL     1      43.162 -16.526   4.351  1.00  0.00     0.059 A 
HETATM   19  C   UNL     1      42.557 -16.951   3.158  1.00  0.00    -0.032 A 
HETATM   20  C   UNL     1      41.420 -16.246   2.476  1.00  0.00     0.050 C 
HETATM   21  C   UNL     1      43.034 -18.129   2.555  1.00  0.00     0.028 A 
HETATM   22  C   UNL     1      44.031 -18.863   3.176  1.00  0.00     0.117 A 
HETATM   23  N   UNL     1      44.587 -18.517   4.351  1.00  0.00    -0.271 NA
HETATM   24  C   UNL     1      44.142 -17.362   4.901  1.00  0.00     0.146 A 
ENDBRANCH   1  18
TORSDOF 5
ENDMDL
MODEL 10
REMARK VINA RESULT:      -6.3      3.276      4.980
REMARK  5 active torsions:
REMARK  status: ('A' for Active; 'I' for Inactive)
REMARK    1  A    between atoms: C_3  and  N_4 
REMARK       I    between atoms: N_4  and  C_5 
REMARK       I    between atoms: C_5  and  N_6 
REMARK    2  A    between atoms: N_6  and  C_7 
REMARK    3  A    between atoms: C_7  and  C_8 
REMARK    4  A    between atoms: C_8  and  O_9 
REMARK    5  A    between atoms: O_9  and  C_10 
ROOT
HETATM    1  N   UNL     1      42.124 -11.665   5.782  1.00  0.00    -0.307 N 
HETATM    2  C   UNL     1      41.738 -11.343   4.516  1.00  0.00     0.320 C 
HETATM    3  N   UNL     1      40.676 -12.051   4.035  1.00  0.00    -0.340 N 
HETATM    4  O   UNL     1      42.209 -10.454   3.816  1.00  0.00    -0.247 OA
HETATM    5  H   UNL     1      41.313 -11.834   6.366  1.00  0.00     0.170 HD
HETATM    6  H   UNL     1      40.448 -11.708   3.110  1.00  0.00     0.164 HD
ENDROOT
BRANCH   3   7
HETATM    7  C   UNL     1      40.345 -13.460   4.258  1.00  0.00     0.156 C 
BRANCH   7   8
HETATM    8  C   UNL     1      40.829 -14.505   3.230  1.00  0.00     0.142 C 
HETATM    9  C   UNL     1      39.901 -14.476   2.013  1.00  0.00     0.042 C 
BRANCH   8  10
HETATM   10  O   UNL     1      40.781 -15.792   3.857  1.00  0.00    -0.343 OA
BRANCH  10  11
HETATM   11  C   UNL     1      41.867 -16.622   3.824  1.00  0.00     0.086 A 
HETATM   12  C   UNL     1      42.515 -16.858   5.047  1.00  0.00     0.044 A 
HETATM   13 BR   UNL     1      41.892 -16.077   6.665  1.00  0.00    -0.048 Br
HETATM   14  C   UNL     1      43.641 -17.684   5.115  1.00  0.00     0.022 A 
HETATM   15  C   UNL     1      44.137 -18.277   3.958  1.00  0.00     0.002 A 
HETATM   16  C   UNL     1      43.511 -18.041   2.737  1.00  0.00     0.003 A 
HETATM   17  C   UNL     1      42.383 -17.216   2.668  1.00  0.00     0.038 A 
ENDBRANCH  10  11
ENDBRANCH   8  10
ENDBRANCH   7   8
ENDBRANCH   3   7
BRANCH   1  18
HETATM   18  C   UNL     1      43.280 -11.210   6.457  1.00  0.00     0.059 A 
HETATM   19  C   UNL     1      43.322 -10.210   7.441  1.00  0.00    -0.032 A 
HETATM   20  C   UNL     1      42.132  -9.428   7.920  1.00  0.00     0.050 C 
HETATM   21  C   UNL     1      44.565  -9.902   8.021  1.00  0.00     0.028 A 
HETATM   22  C   UNL     1      45.711 -10.537   7.569  1.00  0.00     0.117 A 
HETATM   23  N   UNL     1      45.712 -11.452   6.583  1.00  0.00    -0.271 NA
HETATM   24  C   UNL     1      44.503 -11.764   6.059  1.00  0.00     0.146 A 
ENDBRANCH   1  18
TORSDOF 5
ENDMDL
