MODEL 1
REMARK VINA RESULT:     -10.7      0.000      0.000
REMARK  7 active torsions:
REMARK  status: ('A' for Active; 'I' for Inactive)
REMARK    1  A    between atoms: C_2  and  C_3 
REMARK    2  A    between atoms: C_4  and  N_5 
REMARK    3  A    between atoms: N_5  and  C_6 
REMARK    4  A    between atoms: C_8  and  N_9 
REMARK    5  A    between atoms: C_11  and  C_12 
REMARK    6  A    between atoms: C_12  and  N_13 
REMARK    7  A    between atoms: C_17  and  C_18 
ROOT
HETATM    1  C   UNL     1      41.088 -11.066   4.366  1.00  0.00     0.218 C 
ENDROOT
BRANCH   1   2
HETATM    2  C   UNL     1      40.865 -10.940   2.869  1.00  0.00     0.166 A 
HETATM    3  N   UNL     1      41.682 -10.152   2.167  1.00  0.00    -0.200 NA
HETATM    4  C   UNL     1      41.451 -10.120   0.867  1.00  0.00     0.219 A 
HETATM    5  N   UNL     1      40.533 -10.834   0.243  1.00  0.00    -0.031 NA
HETATM    6  C   UNL     1      39.763 -11.599   1.010  1.00  0.00     0.731 A 
HETATM    7  N   UNL     1      39.886 -11.675   2.334  1.00  0.00    -0.045 NA
BRANCH   4   8
HETATM    8  N   UNL     1      42.264  -9.314   0.097  1.00  0.00    -0.270 NA
HETATM    9  H   UNL     1      41.700  -8.692  -0.467  1.00  0.00     0.127 HD
HETATM   10  H   UNL     1      42.962  -9.866  -0.380  1.00  0.00     0.127 HD
ENDBRANCH   4   8
BRANCH   6  11
HETATM   11  N   UNL     1      38.734 -12.359   0.457  1.00  0.00    -0.188 N 
HETATM   12  H   UNL     1      38.061 -12.601   1.168  1.00  0.00     0.184 HD
BRANCH  11  13
HETATM   13  C   UNL     1      38.633 -13.067  -0.752  1.00  0.00     0.055 A 
HETATM   14  C   UNL     1      39.431 -14.213  -0.977  1.00  0.00    -0.031 A 
HETATM   15  C   UNL     1      39.313 -14.921  -2.190  1.00  0.00     0.009 A 
HETATM   16  C   UNL     1      38.400 -14.527  -3.164  1.00  0.00     0.001 A 
HETATM   17  C   UNL     1      37.588 -13.424  -2.937  1.00  0.00     0.002 A 
HETATM   18  C   UNL     1      37.699 -12.711  -1.740  1.00  0.00     0.030 A 
BRANCH  14  19
HETATM   19  C   UNL     1      40.424 -14.727   0.044  1.00  0.00     0.036 C 
HETATM   20  C   UNL     1      39.802 -15.759   0.972  1.00  0.00     0.010 C 
ENDBRANCH  14  19
ENDBRANCH  11  13
ENDBRANCH   6  11
ENDBRANCH   1   2
BRANCH   1  21
HETATM   21  N   UNL     1      41.418 -12.411   4.784  1.00  0.00    -0.260 N 
HETATM   22  C   UNL     1      40.645 -13.160   5.607  1.00  0.00     0.326 A 
HETATM   23  O   UNL     1      39.531 -12.892   6.021  1.00  0.00    -0.247 OA
HETATM   24  N   UNL     1      41.326 -14.308   5.922  1.00  0.00    -0.321 N 
HETATM   25  C   UNL     1      42.672 -14.332   5.387  1.00  0.00     0.140 A 
HETATM   26  H   UNL     1      40.918 -15.000   6.534  1.00  0.00     0.165 HD
HETATM   27  C   UNL     1      43.703 -14.188   6.513  1.00  0.00     0.054 C 
HETATM   28  C   UNL     1      42.640 -12.996   4.605  1.00  0.00     0.261 A 
HETATM   29  O   UNL     1      43.569 -12.515   3.966  1.00  0.00    -0.270 OA
BRANCH  25  30
HETATM   30  C   UNL     1      42.892 -15.593   4.561  1.00  0.00    -0.020 A 
HETATM   31  C   UNL     1      43.266 -16.791   5.206  1.00  0.00     0.022 A 
HETATM   32  C   UNL     1      43.491 -17.984   4.493  1.00  0.00    -0.025 A 
HETATM   33  C   UNL     1      43.337 -17.988   3.092  1.00  0.00    -0.026 A 
HETATM   34  C   UNL     1      43.867 -19.170   5.146  1.00  0.00     0.012 A 
HETATM   35  C   UNL     1      42.966 -16.803   2.444  1.00  0.00     0.013 A 
HETATM   36  C   UNL     1      43.563 -19.177   2.378  1.00  0.00     0.012 A 
HETATM   37  C   UNL     1      42.747 -15.624   3.166  1.00  0.00     0.011 A 
HETATM   38  C   UNL     1      43.936 -20.347   3.040  1.00  0.00     0.001 A 
HETATM   39  C   UNL     1      44.088 -20.344   4.423  1.00  0.00     0.001 A 
ENDBRANCH  25  30
ENDBRANCH   1  21
TORSDOF 7
ENDMDL
MODEL 2
REMARK VINA RESULT:     -10.5      1.418      7.409
REMARK  7 active torsions:
REMARK  status: ('A' for Active; 'I' for Inactive)
REMARK    1  A    between atoms: C_2  and  C_3 
REMARK    2  A    between atoms: C_4  and  N_5 
REMARK    3  A    between atoms: N_5  and  C_6 
REMARK    4  A    between atoms: C_8  and  N_9 
REMARK    5  A    between atoms: C_11  and  C_12 
REMARK    6  A    between atoms: C_12  and  N_13 
REMARK    7  A    between atoms: C_17  and  C_18 
ROOT
HETATM    1  C   UNL     1      42.000 -12.357   5.363  1.00  0.00     0.218 C 
ENDROOT
BRANCH   1   2
HETATM    2  C   UNL     1      41.857 -13.839   5.660  1.00  0.00     0.166 A 
HETATM    3  N   UNL     1      40.735 -14.266   6.245  1.00  0.00    -0.200 NA
HETATM    4  C   UNL     1      40.665 -15.571   6.440  1.00  0.00     0.219 A 
HETATM    5  N   UNL     1      41.578 -16.444   6.056  1.00  0.00    -0.031 NA
HETATM    6  C   UNL     1      42.663 -15.942   5.476  1.00  0.00     0.731 A 
HETATM    7  N   UNL     1      42.851 -14.640   5.268  1.00  0.00    -0.045 NA
BRANCH   4   8
HETATM    8  N   UNL     1      39.529 -16.063   7.048  1.00  0.00    -0.270 NA
HETATM    9  H   UNL     1      39.367 -15.579   7.920  1.00  0.00     0.127 HD
HETATM   10  H   UNL     1      39.548 -17.072   7.074  1.00  0.00     0.127 HD
ENDBRANCH   4   8
BRANCH   6  11
HETATM   11  N   UNL     1      43.707 -16.773   5.074  1.00  0.00    -0.188 N 
HETATM   12  H   UNL     1      44.568 -16.250   5.028  1.00  0.00     0.184 HD
BRANCH  11  13
HETATM   13  C   UNL     1      43.721 -18.036   4.459  1.00  0.00     0.055 A 
HETATM   14  C   UNL     1      43.471 -18.157   3.072  1.00  0.00    -0.031 A 
HETATM   15  C   UNL     1      43.498 -19.429   2.466  1.00  0.00     0.009 A 
HETATM   16  C   UNL     1      43.795 -20.570   3.205  1.00  0.00     0.001 A 
HETATM   17  C   UNL     1      44.076 -20.456   4.560  1.00  0.00     0.002 A 
HETATM   18  C   UNL     1      44.048 -19.200   5.173  1.00  0.00     0.030 A 
BRANCH  14  19
HETATM   19  C   UNL     1      43.173 -16.963   2.191  1.00  0.00     0.036 C 
HETATM   20  C   UNL     1      41.682 -16.671   2.115  1.00  0.00     0.010 C 
ENDBRANCH  14  19
ENDBRANCH  11  13
ENDBRANCH   6  11
ENDBRANCH   1   2
BRANCH   1  21
HETATM   21  N   UNL     1      41.754 -12.026   3.976  1.00  0.00    -0.260 N 
HETATM   22  C   UNL     1      42.679 -11.477   3.153  1.00  0.00     0.326 A 
HETATM   23  O   UNL     1      43.860 -11.288   3.388  1.00  0.00    -0.247 OA
HETATM   24  N   UNL     1      42.071 -11.148   1.968  1.00  0.00    -0.321 N 
HETATM   25  C   UNL     1      40.640 -11.377   1.985  1.00  0.00     0.140 A 
HETATM   26  H   UNL     1      42.594 -10.718   1.219  1.00  0.00     0.165 HD
HETATM   27  C   UNL     1      39.880 -10.045   1.993  1.00  0.00     0.054 C 
HETATM   28  C   UNL     1      40.516 -11.997   3.398  1.00  0.00     0.261 A 
HETATM   29  O   UNL     1      39.476 -12.363   3.934  1.00  0.00    -0.270 OA
BRANCH  25  30
HETATM   30  C   UNL     1      40.232 -12.268   0.818  1.00  0.00    -0.020 A 
HETATM   31  C   UNL     1      39.114 -11.916   0.032  1.00  0.00     0.022 A 
HETATM   32  C   UNL     1      38.685 -12.704  -1.052  1.00  0.00    -0.025 A 
HETATM   33  C   UNL     1      39.392 -13.882  -1.368  1.00  0.00    -0.026 A 
HETATM   34  C   UNL     1      37.569 -12.345  -1.825  1.00  0.00     0.012 A 
HETATM   35  C   UNL     1      40.502 -14.239  -0.592  1.00  0.00     0.013 A 
HETATM   36  C   UNL     1      38.966 -14.673  -2.448  1.00  0.00     0.012 A 
HETATM   37  C   UNL     1      40.916 -13.445   0.484  1.00  0.00     0.011 A 
HETATM   38  C   UNL     1      37.855 -14.303  -3.207  1.00  0.00     0.001 A 
HETATM   39  C   UNL     1      37.157 -13.141  -2.897  1.00  0.00     0.001 A 
ENDBRANCH  25  30
ENDBRANCH   1  21
TORSDOF 7
ENDMDL
MODEL 3
REMARK VINA RESULT:     -10.1      0.585      1.688
REMARK  7 active torsions:
REMARK  status: ('A' for Active; 'I' for Inactive)
REMARK    1  A    between atoms: C_2  and  C_3 
REMARK    2  A    between atoms: C_4  and  N_5 
REMARK    3  A    between atoms: N_5  and  C_6 
REMARK    4  A    between atoms: C_8  and  N_9 
REMARK    5  A    between atoms: C_11  and  C_12 
REMARK    6  A    between atoms: C_12  and  N_13 
REMARK    7  A    between atoms: C_17  and  C_18 
ROOT
HETATM    1  C   UNL     1      41.087 -11.356   4.539  1.00  0.00     0.218 C 
ENDROOT
BRANCH   1   2
HETATM    2  C   UNL     1      40.874 -11.204   3.042  1.00  0.00     0.166 A 
HETATM    3  N   UNL     1      41.654 -10.352   2.371  1.00  0.00    -0.200 NA
HETATM    4  C   UNL     1      41.436 -10.299   1.070  1.00  0.00     0.219 A 
HETATM    5  N   UNL     1      40.568 -11.047   0.416  1.00  0.00    -0.031 NA
HETATM    6  C   UNL     1      39.834 -11.874   1.153  1.00  0.00     0.731 A 
HETATM    7  N   UNL     1      39.945 -11.978   2.476  1.00  0.00    -0.045 NA
BRANCH   4   8
HETATM    8  N   UNL     1      42.211  -9.428   0.331  1.00  0.00    -0.270 NA
HETATM    9  H   UNL     1      43.092  -9.863   0.097  1.00  0.00     0.127 HD
HETATM   10  H   UNL     1      42.244  -8.521   0.773  1.00  0.00     0.127 HD
ENDBRANCH   4   8
BRANCH   6  11
HETATM   11  N   UNL     1      38.856 -12.676   0.567  1.00  0.00    -0.188 N 
HETATM   12  H   UNL     1      38.287 -13.106   1.280  1.00  0.00     0.184 HD
BRANCH  11  13
HETATM   13  C   UNL     1      38.727 -13.209  -0.727  1.00  0.00     0.055 A 
HETATM   14  C   UNL     1      37.958 -12.532  -1.703  1.00  0.00    -0.031 A 
HETATM   15  C   UNL     1      37.844 -13.072  -3.000  1.00  0.00     0.009 A 
HETATM   16  C   UNL     1      38.500 -14.249  -3.347  1.00  0.00     0.001 A 
HETATM   17  C   UNL     1      39.284 -14.901  -2.405  1.00  0.00     0.002 A 
HETATM   18  C   UNL     1      39.401 -14.378  -1.114  1.00  0.00     0.030 A 
BRANCH  14  19
HETATM   19  C   UNL     1      37.241 -11.231  -1.417  1.00  0.00     0.036 C 
HETATM   20  C   UNL     1      36.500 -10.709  -2.638  1.00  0.00     0.010 C 
ENDBRANCH  14  19
ENDBRANCH  11  13
ENDBRANCH   6  11
ENDBRANCH   1   2
BRANCH   1  21
HETATM   21  N   UNL     1      41.456 -12.699   4.930  1.00  0.00    -0.260 N 
HETATM   22  C   UNL     1      40.747 -13.457   5.800  1.00  0.00     0.326 A 
HETATM   23  O   UNL     1      39.660 -13.200   6.288  1.00  0.00    -0.247 OA
HETATM   24  N   UNL     1      41.456 -14.600   6.065  1.00  0.00    -0.321 N 
HETATM   25  C   UNL     1      42.765 -14.610   5.442  1.00  0.00     0.140 A 
HETATM   26  H   UNL     1      41.096 -15.297   6.702  1.00  0.00     0.165 HD
HETATM   27  C   UNL     1      43.867 -14.460   6.497  1.00  0.00     0.054 C 
HETATM   28  C   UNL     1      42.668 -13.273   4.668  1.00  0.00     0.261 A 
HETATM   29  O   UNL     1      43.549 -12.782   3.970  1.00  0.00    -0.270 OA
BRANCH  25  30
HETATM   30  C   UNL     1      42.940 -15.867   4.599  1.00  0.00    -0.020 A 
HETATM   31  C   UNL     1      43.349 -17.068   5.218  1.00  0.00     0.022 A 
HETATM   32  C   UNL     1      43.535 -18.258   4.489  1.00  0.00    -0.025 A 
HETATM   33  C   UNL     1      43.305 -18.256   3.098  1.00  0.00    -0.026 A 
HETATM   34  C   UNL     1      43.947 -19.446   5.115  1.00  0.00     0.012 A 
HETATM   35  C   UNL     1      42.899 -17.068   2.476  1.00  0.00     0.013 A 
HETATM   36  C   UNL     1      43.492 -19.441   2.367  1.00  0.00     0.012 A 
HETATM   37  C   UNL     1      42.719 -15.892   3.215  1.00  0.00     0.011 A 
HETATM   38  C   UNL     1      43.901 -20.614   3.003  1.00  0.00     0.001 A 
HETATM   39  C   UNL     1      44.128 -20.617   4.376  1.00  0.00     0.001 A 
ENDBRANCH  25  30
ENDBRANCH   1  21
TORSDOF 7
ENDMDL
MODEL 4
REMARK VINA RESULT:     -10.0      4.423      8.204
REMARK  7 active torsions:
REMARK  status: ('A' for Active; 'I' for Inactive)
REMARK    1  A    between atoms: C_2  and  C_3 
REMARK    2  A    between atoms: C_4  and  N_5 
REMARK    3  A    between atoms: N_5  and  C_6 
REMARK    4  A    between atoms: C_8  and  N_9 
REMARK    5  A    between atoms: C_11  and  C_12 
REMARK    6  A    between atoms: C_12  and  N_13 
REMARK    7  A    between atoms: C_17  and  C_18 
ROOT
HETATM    1  C   UNL     1      42.092 -11.077   5.411  1.00  0.00     0.218 C 
ENDROOT
BRANCH   1   2
HETATM    2  C   UNL     1      43.267 -10.911   6.358  1.00  0.00     0.166 A 
HETATM    3  N   UNL     1      44.494 -11.181   5.904  1.00  0.00    -0.200 NA
HETATM    4  C   UNL     1      45.470 -10.980   6.771  1.00  0.00     0.219 A 
HETATM    5  N   UNL     1      45.313 -10.497   7.989  1.00  0.00    -0.031 NA
HETATM    6  C   UNL     1      44.063 -10.248   8.365  1.00  0.00     0.731 A 
HETATM    7  N   UNL     1      43.004 -10.452   7.584  1.00  0.00    -0.045 NA
BRANCH   4   8
HETATM    8  N   UNL     1      46.756 -11.251   6.354  1.00  0.00    -0.270 NA
HETATM    9  H   UNL     1      46.736 -11.786   5.497  1.00  0.00     0.127 HD
HETATM   10  H   UNL     1      47.307 -11.617   7.117  1.00  0.00     0.127 HD
ENDBRANCH   4   8
BRANCH   6  11
HETATM   11  N   UNL     1      43.782  -9.778   9.648  1.00  0.00    -0.188 N 
HETATM   12  H   UNL     1      43.668 -10.553  10.283  1.00  0.00     0.184 HD
BRANCH  11  13
HETATM   13  C   UNL     1      43.347  -8.528  10.118  1.00  0.00     0.055 A 
HETATM   14  C   UNL     1      42.932  -8.376  11.461  1.00  0.00    -0.031 A 
HETATM   15  C   UNL     1      42.507  -7.114  11.923  1.00  0.00     0.009 A 
HETATM   16  C   UNL     1      42.516  -6.003  11.085  1.00  0.00     0.001 A 
HETATM   17  C   UNL     1      42.955  -6.136   9.775  1.00  0.00     0.002 A 
HETATM   18  C   UNL     1      43.375  -7.383   9.304  1.00  0.00     0.030 A 
BRANCH  14  19
HETATM   19  C   UNL     1      42.924  -9.525  12.446  1.00  0.00     0.036 C 
HETATM   20  C   UNL     1      42.206  -9.164  13.737  1.00  0.00     0.010 C 
ENDBRANCH  14  19
ENDBRANCH  11  13
ENDBRANCH   6  11
ENDBRANCH   1   2
BRANCH   1  21
HETATM   21  N   UNL     1      42.199 -12.247   4.567  1.00  0.00    -0.260 N 
HETATM   22  C   UNL     1      42.745 -12.240   3.327  1.00  0.00     0.326 A 
HETATM   23  O   UNL     1      43.326 -11.318   2.781  1.00  0.00    -0.247 OA
HETATM   24  N   UNL     1      42.541 -13.468   2.751  1.00  0.00    -0.321 N 
HETATM   25  C   UNL     1      41.731 -14.348   3.569  1.00  0.00     0.140 A 
HETATM   26  H   UNL     1      42.872 -13.663   1.817  1.00  0.00     0.165 HD
HETATM   27  C   UNL     1      40.348 -14.549   2.940  1.00  0.00     0.054 C 
HETATM   28  C   UNL     1      41.559 -13.431   4.804  1.00  0.00     0.261 A 
HETATM   29  O   UNL     1      40.916 -13.698   5.813  1.00  0.00    -0.270 OA
BRANCH  25  30
HETATM   30  C   UNL     1      42.456 -15.668   3.804  1.00  0.00    -0.020 A 
HETATM   31  C   UNL     1      42.306 -16.719   2.874  1.00  0.00     0.022 A 
HETATM   32  C   UNL     1      42.943 -17.963   3.044  1.00  0.00    -0.025 A 
HETATM   33  C   UNL     1      43.759 -18.169   4.174  1.00  0.00    -0.026 A 
HETATM   34  C   UNL     1      42.783 -19.003   2.113  1.00  0.00     0.012 A 
HETATM   35  C   UNL     1      43.913 -17.131   5.102  1.00  0.00     0.013 A 
HETATM   36  C   UNL     1      44.395 -19.410   4.347  1.00  0.00     0.012 A 
HETATM   37  C   UNL     1      43.272 -15.900   4.920  1.00  0.00     0.011 A 
HETATM   38  C   UNL     1      44.227 -20.434   3.414  1.00  0.00     0.001 A 
HETATM   39  C   UNL     1      43.421 -20.231   2.298  1.00  0.00     0.001 A 
ENDBRANCH  25  30
ENDBRANCH   1  21
TORSDOF 7
ENDMDL
MODEL 5
REMARK VINA RESULT:      -9.9      3.539      7.678
REMARK  7 active torsions:
REMARK  status: ('A' for Active; 'I' for Inactive)
REMARK    1  A    between atoms: C_2  and  C_3 
REMARK    2  A    between atoms: C_4  and  N_5 
REMARK    3  A    between atoms: N_5  and  C_6 
REMARK    4  A    between atoms: C_8  and  N_9 
REMARK    5  A    between atoms: C_11  and  C_12 
REMARK    6  A    between atoms: C_12  and  N_13 
REMARK    7  A    between atoms: C_17  and  C_18 
ROOT
HETATM    1  C   UNL     1      40.435 -13.745   5.072  1.00  0.00     0.218 C 
ENDROOT
BRANCH   1   2
HETATM    2  C   UNL     1      40.803 -14.445   3.776  1.00  0.00     0.166 A 
HETATM    3  N   UNL     1      40.060 -14.209   2.691  1.00  0.00    -0.200 NA
HETATM    4  C   UNL     1      40.460 -14.823   1.593  1.00  0.00     0.219 A 
HETATM    5  N   UNL     1      41.537 -15.580   1.498  1.00  0.00    -0.031 NA
HETATM    6  C   UNL     1      42.228 -15.762   2.619  1.00  0.00     0.731 A 
HETATM    7  N   UNL     1      41.889 -15.222   3.788  1.00  0.00    -0.045 NA
BRANCH   4   8
HETATM    8  N   UNL     1      39.722 -14.619   0.446  1.00  0.00    -0.270 NA
HETATM    9  H   UNL     1      38.992 -13.942   0.620  1.00  0.00     0.127 HD
HETATM   10  H   UNL     1      39.448 -15.501   0.038  1.00  0.00     0.127 HD
ENDBRANCH   4   8
BRANCH   6  11
HETATM   11  N   UNL     1      43.356 -16.580   2.638  1.00  0.00    -0.188 N 
HETATM   12  H   UNL     1      44.099 -16.158   2.102  1.00  0.00     0.184 HD
BRANCH  11  13
HETATM   13  C   UNL     1      43.532 -17.933   2.974  1.00  0.00     0.055 A 
HETATM   14  C   UNL     1      43.991 -18.293   4.263  1.00  0.00    -0.031 A 
HETATM   15  C   UNL     1      44.154 -19.654   4.591  1.00  0.00     0.009 A 
HETATM   16  C   UNL     1      43.844 -20.655   3.675  1.00  0.00     0.001 A 
HETATM   17  C   UNL     1      43.361 -20.311   2.420  1.00  0.00     0.002 A 
HETATM   18  C   UNL     1      43.199 -18.964   2.081  1.00  0.00     0.030 A 
BRANCH  14  19
HETATM   19  C   UNL     1      44.318 -17.268   5.327  1.00  0.00     0.036 C 
HETATM   20  C   UNL     1      43.475 -17.458   6.578  1.00  0.00     0.010 C 
ENDBRANCH  14  19
ENDBRANCH  11  13
ENDBRANCH   6  11
ENDBRANCH   1   2
BRANCH   1  21
HETATM   21  N   UNL     1      41.318 -12.647   5.399  1.00  0.00    -0.260 N 
HETATM   22  C   UNL     1      41.169 -11.387   4.923  1.00  0.00     0.326 A 
HETATM   23  O   UNL     1      40.240 -10.951   4.266  1.00  0.00    -0.247 OA
HETATM   24  N   UNL     1      42.259 -10.645   5.300  1.00  0.00    -0.321 N 
HETATM   25  C   UNL     1      43.269 -11.429   5.981  1.00  0.00     0.140 A 
HETATM   26  H   UNL     1      42.340  -9.674   5.035  1.00  0.00     0.165 HD
HETATM   27  C   UNL     1      44.509 -11.600   5.096  1.00  0.00     0.054 C 
HETATM   28  C   UNL     1      42.527 -12.788   6.020  1.00  0.00     0.261 A 
HETATM   29  O   UNL     1      42.966 -13.832   6.488  1.00  0.00    -0.270 OA
BRANCH  25  30
HETATM   30  C   UNL     1      43.604 -10.804   7.330  1.00  0.00    -0.020 A 
HETATM   31  C   UNL     1      42.606 -10.103   8.039  1.00  0.00     0.022 A 
HETATM   32  C   UNL     1      42.859  -9.498   9.284  1.00  0.00    -0.025 A 
HETATM   33  C   UNL     1      44.148  -9.594   9.846  1.00  0.00    -0.026 A 
HETATM   34  C   UNL     1      41.858  -8.800   9.979  1.00  0.00     0.012 A 
HETATM   35  C   UNL     1      45.145 -10.289   9.148  1.00  0.00     0.013 A 
HETATM   36  C   UNL     1      44.405  -8.990  11.089  1.00  0.00     0.012 A 
HETATM   37  C   UNL     1      44.878 -10.884   7.910  1.00  0.00     0.011 A 
HETATM   38  C   UNL     1      43.400  -8.300  11.766  1.00  0.00     0.001 A 
HETATM   39  C   UNL     1      42.127  -8.204  11.213  1.00  0.00     0.001 A 
ENDBRANCH  25  30
ENDBRANCH   1  21
TORSDOF 7
ENDMDL
MODEL 6
REMARK VINA RESULT:      -9.9      2.993      7.013
REMARK  7 active torsions:
REMARK  status: ('A' for Active; 'I' for Inactive)
REMARK    1  A    between atoms: C_2  and  C_3 
REMARK    2  A    between atoms: C_4  and  N_5 
REMARK    3  A    between atoms: N_5  and  C_6 
REMARK    4  A    between atoms: C_8  and  N_9 
REMARK    5  A    between atoms: C_11  and  C_12 
REMARK    6  A    between atoms: C_12  and  N_13 
REMARK    7  A    between atoms: C_17  and  C_18 
ROOT
HETATM    1  C   UNL     1      39.919 -10.796   3.373  1.00  0.00     0.218 C 
ENDROOT
BRANCH   1   2
HETATM    2  C   UNL     1      40.138 -10.533   4.853  1.00  0.00     0.166 A 
HETATM    3  N   UNL     1      39.219 -10.966   5.720  1.00  0.00    -0.200 NA
HETATM    4  C   UNL     1      39.493 -10.734   6.991  1.00  0.00     0.219 A 
HETATM    5  N   UNL     1      40.601 -10.172   7.436  1.00  0.00    -0.031 NA
HETATM    6  C   UNL     1      41.469  -9.774   6.512  1.00  0.00     0.731 A 
HETATM    7  N   UNL     1      41.273  -9.924   5.204  1.00  0.00    -0.045 NA
BRANCH   4   8
HETATM    8  N   UNL     1      38.571 -11.155   7.927  1.00  0.00    -0.270 NA
HETATM    9  H   UNL     1      37.957 -11.848   7.520  1.00  0.00     0.127 HD
HETATM   10  H   UNL     1      38.139 -10.363   8.381  1.00  0.00     0.127 HD
ENDBRANCH   4   8
BRANCH   6  11
HETATM   11  N   UNL     1      42.651  -9.128   6.874  1.00  0.00    -0.188 N 
HETATM   12  H   UNL     1      42.987  -8.567   6.107  1.00  0.00     0.184 HD
BRANCH  11  13
HETATM   13  C   UNL     1      43.561  -9.349   7.921  1.00  0.00     0.055 A 
HETATM   14  C   UNL     1      44.598 -10.301   7.775  1.00  0.00    -0.031 A 
HETATM   15  C   UNL     1      45.511 -10.506   8.829  1.00  0.00     0.009 A 
HETATM   16  C   UNL     1      45.428  -9.766  10.004  1.00  0.00     0.001 A 
HETATM   17  C   UNL     1      44.435  -8.806  10.141  1.00  0.00     0.002 A 
HETATM   18  C   UNL     1      43.521  -8.596   9.105  1.00  0.00     0.030 A 
BRANCH  14  19
HETATM   19  C   UNL     1      44.778 -11.123   6.517  1.00  0.00     0.036 C 
HETATM   20  C   UNL     1      44.438 -12.588   6.742  1.00  0.00     0.010 C 
ENDBRANCH  14  19
ENDBRANCH  11  13
ENDBRANCH   6  11
ENDBRANCH   1   2
BRANCH   1  21
HETATM   21  N   UNL     1      40.724 -11.883   2.861  1.00  0.00    -0.260 N 
HETATM   22  C   UNL     1      41.840 -11.712   2.113  1.00  0.00     0.326 A 
HETATM   23  O   UNL     1      42.404 -10.663   1.856  1.00  0.00    -0.247 OA
HETATM   24  N   UNL     1      42.260 -12.939   1.666  1.00  0.00    -0.321 N 
HETATM   25  C   UNL     1      41.354 -14.011   2.023  1.00  0.00     0.140 A 
HETATM   26  H   UNL     1      43.080 -13.024   1.082  1.00  0.00     0.165 HD
HETATM   27  C   UNL     1      40.622 -14.536   0.782  1.00  0.00     0.054 C 
HETATM   28  C   UNL     1      40.338 -13.194   2.858  1.00  0.00     0.261 A 
HETATM   29  O   UNL     1      39.327 -13.635   3.393  1.00  0.00    -0.270 OA
BRANCH  25  30
HETATM   30  C   UNL     1      42.102 -15.114   2.762  1.00  0.00    -0.020 A 
HETATM   31  C   UNL     1      42.218 -16.391   2.172  1.00  0.00     0.022 A 
HETATM   32  C   UNL     1      42.890 -17.450   2.811  1.00  0.00    -0.025 A 
HETATM   33  C   UNL     1      43.469 -17.233   4.078  1.00  0.00    -0.026 A 
HETATM   34  C   UNL     1      42.996 -18.718   2.216  1.00  0.00     0.012 A 
HETATM   35  C   UNL     1      43.358 -15.968   4.670  1.00  0.00     0.013 A 
HETATM   36  C   UNL     1      44.139 -18.289   4.719  1.00  0.00     0.012 A 
HETATM   37  C   UNL     1      42.685 -14.925   4.023  1.00  0.00     0.011 A 
HETATM   38  C   UNL     1      44.235 -19.543   4.115  1.00  0.00     0.001 A 
HETATM   39  C   UNL     1      43.665 -19.758   2.865  1.00  0.00     0.001 A 
ENDBRANCH  25  30
ENDBRANCH   1  21
TORSDOF 7
ENDMDL
MODEL 7
REMARK VINA RESULT:      -9.8      1.371      2.194
REMARK  7 active torsions:
REMARK  status: ('A' for Active; 'I' for Inactive)
REMARK    1  A    between atoms: C_2  and  C_3 
REMARK    2  A    between atoms: C_4  and  N_5 
REMARK    3  A    between atoms: N_5  and  C_6 
REMARK    4  A    between atoms: C_8  and  N_9 
REMARK    5  A    between atoms: C_11  and  C_12 
REMARK    6  A    between atoms: C_12  and  N_13 
REMARK    7  A    between atoms: C_17  and  C_18 
ROOT
HETATM    1  C   UNL     1      41.751  -9.959   3.958  1.00  0.00     0.218 C 
ENDROOT
BRANCH   1   2
HETATM    2  C   UNL     1      40.724 -10.237   2.874  1.00  0.00     0.166 A 
HETATM    3  N   UNL     1      39.496  -9.730   3.015  1.00  0.00    -0.200 NA
HETATM    4  C   UNL     1      38.667  -9.982   2.018  1.00  0.00     0.219 A 
HETATM    5  N   UNL     1      38.986 -10.630   0.914  1.00  0.00    -0.031 NA
HETATM    6  C   UNL     1      40.229 -11.097   0.845  1.00  0.00     0.731 A 
HETATM    7  N   UNL     1      41.131 -10.934   1.811  1.00  0.00    -0.045 NA
BRANCH   4   8
HETATM    8  N   UNL     1      37.384  -9.487   2.119  1.00  0.00    -0.270 NA
HETATM    9  H   UNL     1      37.409  -8.493   2.296  1.00  0.00     0.127 HD
HETATM   10  H   UNL     1      36.832 -10.055   2.746  1.00  0.00     0.127 HD
ENDBRANCH   4   8
BRANCH   6  11
HETATM   11  N   UNL     1      40.654 -11.835  -0.258  1.00  0.00    -0.188 N 
HETATM   12  H   UNL     1      41.496 -11.431  -0.641  1.00  0.00     0.184 HD
BRANCH  11  13
HETATM   13  C   UNL     1      40.001 -12.778  -1.069  1.00  0.00     0.055 A 
HETATM   14  C   UNL     1      40.015 -14.149  -0.720  1.00  0.00    -0.031 A 
HETATM   15  C   UNL     1      39.347 -15.085  -1.536  1.00  0.00     0.009 A 
HETATM   16  C   UNL     1      38.648 -14.678  -2.669  1.00  0.00     0.001 A 
HETATM   17  C   UNL     1      38.600 -13.330  -2.998  1.00  0.00     0.002 A 
HETATM   18  C   UNL     1      39.262 -12.394  -2.200  1.00  0.00     0.030 A 
BRANCH  14  19
HETATM   19  C   UNL     1      40.723 -14.670   0.512  1.00  0.00     0.036 C 
HETATM   20  C   UNL     1      39.783 -14.789   1.701  1.00  0.00     0.010 C 
ENDBRANCH  14  19
ENDBRANCH  11  13
ENDBRANCH   6  11
ENDBRANCH   1   2
BRANCH   1  21
HETATM   21  N   UNL     1      42.026 -11.108   4.793  1.00  0.00    -0.260 N 
HETATM   22  C   UNL     1      41.182 -11.572   5.745  1.00  0.00     0.326 A 
HETATM   23  O   UNL     1      40.046 -11.196   5.973  1.00  0.00    -0.247 OA
HETATM   24  N   UNL     1      41.818 -12.564   6.448  1.00  0.00    -0.321 N 
HETATM   25  C   UNL     1      43.199 -12.744   6.049  1.00  0.00     0.140 A 
HETATM   26  H   UNL     1      41.354 -13.036   7.211  1.00  0.00     0.165 HD
HETATM   27  C   UNL     1      44.148 -12.255   7.149  1.00  0.00     0.054 C 
HETATM   28  C   UNL     1      43.247 -11.714   4.894  1.00  0.00     0.261 A 
HETATM   29  O   UNL     1      44.228 -11.447   4.209  1.00  0.00    -0.270 OA
BRANCH  25  30
HETATM   30  C   UNL     1      43.456 -14.197   5.669  1.00  0.00    -0.020 A 
HETATM   31  C   UNL     1      43.081 -14.657   4.388  1.00  0.00     0.022 A 
HETATM   32  C   UNL     1      43.285 -15.990   3.984  1.00  0.00    -0.025 A 
HETATM   33  C   UNL     1      43.884 -16.896   4.882  1.00  0.00    -0.026 A 
HETATM   34  C   UNL     1      42.904 -16.437   2.709  1.00  0.00     0.012 A 
HETATM   35  C   UNL     1      44.260 -16.447   6.155  1.00  0.00     0.013 A 
HETATM   36  C   UNL     1      44.088 -18.228   4.483  1.00  0.00     0.012 A 
HETATM   37  C   UNL     1      44.049 -15.119   6.542  1.00  0.00     0.011 A 
HETATM   38  C   UNL     1      43.704 -18.658   3.212  1.00  0.00     0.001 A 
HETATM   39  C   UNL     1      43.112 -17.764   2.325  1.00  0.00     0.001 A 
ENDBRANCH  25  30
ENDBRANCH   1  21
TORSDOF 7
ENDMDL
MODEL 8
REMARK VINA RESULT:      -9.5      1.798      2.814
REMARK  7 active torsions:
REMARK  status: ('A' for Active; 'I' for Inactive)
REMARK    1  A    between atoms: C_2  and  C_3 
REMARK    2  A    between atoms: C_4  and  N_5 
REMARK    3  A    between atoms: N_5  and  C_6 
REMARK    4  A    between atoms: C_8  and  N_9 
REMARK    5  A    between atoms: C_11  and  C_12 
REMARK    6  A    between atoms: C_12  and  N_13 
REMARK    7  A    between atoms: C_17  and  C_18 
ROOT
HETATM    1  C   UNL     1      39.520 -12.812   4.395  1.00  0.00     0.218 C 
ENDROOT
BRANCH   1   2
HETATM    2  C   UNL     1      39.344 -11.639   3.446  1.00  0.00     0.166 A 
HETATM    3  N   UNL     1      39.562 -10.405   3.911  1.00  0.00    -0.200 NA
HETATM    4  C   UNL     1      39.426  -9.439   3.021  1.00  0.00     0.219 A 
HETATM    5  N   UNL     1      39.153  -9.619   1.743  1.00  0.00    -0.031 NA
HETATM    6  C   UNL     1      38.955 -10.875   1.356  1.00  0.00     0.731 A 
HETATM    7  N   UNL     1      39.029 -11.919   2.179  1.00  0.00    -0.045 NA
BRANCH   4   8
HETATM    8  N   UNL     1      39.633  -8.145   3.453  1.00  0.00    -0.270 NA
HETATM    9  H   UNL     1      39.564  -7.505   2.674  1.00  0.00     0.127 HD
HETATM   10  H   UNL     1      40.463  -8.090   4.025  1.00  0.00     0.127 HD
ENDBRANCH   4   8
BRANCH   6  11
HETATM   11  N   UNL     1      38.617 -11.171   0.037  1.00  0.00    -0.188 N 
HETATM   12  H   UNL     1      37.630 -11.019  -0.110  1.00  0.00     0.184 HD
BRANCH  11  13
HETATM   13  C   UNL     1      39.284 -11.892  -0.967  1.00  0.00     0.055 A 
HETATM   14  C   UNL     1      40.234 -11.250  -1.795  1.00  0.00    -0.031 A 
HETATM   15  C   UNL     1      40.905 -11.986  -2.792  1.00  0.00     0.009 A 
HETATM   16  C   UNL     1      40.668 -13.348  -2.958  1.00  0.00     0.001 A 
HETATM   17  C   UNL     1      39.763 -13.993  -2.127  1.00  0.00     0.002 A 
HETATM   18  C   UNL     1      39.089 -13.272  -1.138  1.00  0.00     0.030 A 
BRANCH  14  19
HETATM   19  C   UNL     1      40.573  -9.781  -1.658  1.00  0.00     0.036 C 
HETATM   20  C   UNL     1      41.930  -9.569  -1.004  1.00  0.00     0.010 C 
ENDBRANCH  14  19
ENDBRANCH  11  13
ENDBRANCH   6  11
ENDBRANCH   1   2
BRANCH   1  21
HETATM   21  N   UNL     1      40.822 -13.436   4.297  1.00  0.00    -0.260 N 
HETATM   22  C   UNL     1      41.926 -12.989   4.941  1.00  0.00     0.326 A 
HETATM   23  O   UNL     1      41.989 -12.099   5.772  1.00  0.00    -0.247 OA
HETATM   24  N   UNL     1      43.009 -13.708   4.504  1.00  0.00    -0.321 N 
HETATM   25  C   UNL     1      42.681 -14.631   3.436  1.00  0.00     0.140 A 
HETATM   26  H   UNL     1      43.934 -13.520   4.862  1.00  0.00     0.165 HD
HETATM   27  C   UNL     1      43.283 -14.157   2.108  1.00  0.00     0.054 C 
HETATM   28  C   UNL     1      41.153 -14.387   3.374  1.00  0.00     0.261 A 
HETATM   29  O   UNL     1      40.371 -14.923   2.597  1.00  0.00    -0.270 OA
BRANCH  25  30
HETATM   30  C   UNL     1      43.125 -16.042   3.801  1.00  0.00    -0.020 A 
HETATM   31  C   UNL     1      43.012 -17.075   2.846  1.00  0.00     0.022 A 
HETATM   32  C   UNL     1      43.398 -18.399   3.129  1.00  0.00    -0.025 A 
HETATM   33  C   UNL     1      43.916 -18.707   4.403  1.00  0.00    -0.026 A 
HETATM   34  C   UNL     1      43.278 -19.420   2.171  1.00  0.00     0.012 A 
HETATM   35  C   UNL     1      44.031 -17.687   5.356  1.00  0.00     0.013 A 
HETATM   36  C   UNL     1      44.301 -20.028   4.689  1.00  0.00     0.012 A 
HETATM   37  C   UNL     1      43.642 -16.376   5.061  1.00  0.00     0.011 A 
HETATM   38  C   UNL     1      44.175 -21.031   3.727  1.00  0.00     0.001 A 
HETATM   39  C   UNL     1      43.664 -20.728   2.469  1.00  0.00     0.001 A 
ENDBRANCH  25  30
ENDBRANCH   1  21
TORSDOF 7
ENDMDL
MODEL 9
REMARK VINA RESULT:      -9.3      1.829      2.826
REMARK  7 active torsions:
REMARK  status: ('A' for Active; 'I' for Inactive)
REMARK    1  A    between atoms: C_2  and  C_3 
REMARK    2  A    between atoms: C_4  and  N_5 
REMARK    3  A    between atoms: N_5  and  C_6 
REMARK    4  A    between atoms: C_8  and  N_9 
REMARK    5  A    between atoms: C_11  and  C_12 
REMARK    6  A    between atoms: C_12  and  N_13 
REMARK    7  A    between atoms: C_17  and  C_18 
ROOT
HETATM    1  C   UNL     1      41.002 -11.488   4.415  1.00  0.00     0.218 C 
ENDROOT
BRANCH   1   2
HETATM    2  C   UNL     1      40.391 -11.450   3.025  1.00  0.00     0.166 A 
HETATM    3  N   UNL     1      39.077 -11.654   2.901  1.00  0.00    -0.200 NA
HETATM    4  C   UNL     1      38.610 -11.570   1.669  1.00  0.00     0.219 A 
HETATM    5  N   UNL     1      39.328 -11.256   0.607  1.00  0.00    -0.031 NA
HETATM    6  C   UNL     1      40.627 -11.062   0.813  1.00  0.00     0.731 A 
HETATM    7  N   UNL     1      41.206 -11.161   2.008  1.00  0.00    -0.045 NA
BRANCH   4   8
HETATM    8  N   UNL     1      37.259 -11.781   1.485  1.00  0.00    -0.270 NA
HETATM    9  H   UNL     1      37.110 -12.412   0.710  1.00  0.00     0.127 HD
HETATM   10  H   UNL     1      36.762 -10.902   1.470  1.00  0.00     0.127 HD
ENDBRANCH   4   8
BRANCH   6  11
HETATM   11  N   UNL     1      41.482 -10.770  -0.249  1.00  0.00    -0.188 N 
HETATM   12  H   UNL     1      42.443 -10.868   0.044  1.00  0.00     0.184 HD
BRANCH  11  13
HETATM   13  C   UNL     1      41.275 -10.106  -1.469  1.00  0.00     0.055 A 
HETATM   14  C   UNL     1      40.997 -10.842  -2.644  1.00  0.00    -0.031 A 
HETATM   15  C   UNL     1      40.781 -10.164  -3.860  1.00  0.00     0.009 A 
HETATM   16  C   UNL     1      40.810  -8.773  -3.920  1.00  0.00     0.001 A 
HETATM   17  C   UNL     1      41.048  -8.042  -2.765  1.00  0.00     0.002 A 
HETATM   18  C   UNL     1      41.268  -8.704  -1.554  1.00  0.00     0.030 A 
BRANCH  14  19
HETATM   19  C   UNL     1      40.915 -12.354  -2.658  1.00  0.00     0.036 C 
HETATM   20  C   UNL     1      39.513 -12.845  -2.985  1.00  0.00     0.010 C 
ENDBRANCH  14  19
ENDBRANCH  11  13
ENDBRANCH   6  11
ENDBRANCH   1   2
BRANCH   1  21
HETATM   21  N   UNL     1      41.393 -12.818   4.831  1.00  0.00    -0.260 N 
HETATM   22  C   UNL     1      40.694 -13.572   5.712  1.00  0.00     0.326 A 
HETATM   23  O   UNL     1      39.601 -13.326   6.192  1.00  0.00    -0.247 OA
HETATM   24  N   UNL     1      41.423 -14.698   6.001  1.00  0.00    -0.321 N 
HETATM   25  C   UNL     1      42.733 -14.697   5.382  1.00  0.00     0.140 A 
HETATM   26  H   UNL     1      41.073 -15.390   6.648  1.00  0.00     0.165 HD
HETATM   27  C   UNL     1      43.829 -14.508   6.437  1.00  0.00     0.054 C 
HETATM   28  C   UNL     1      42.616 -13.375   4.584  1.00  0.00     0.261 A 
HETATM   29  O   UNL     1      43.490 -12.881   3.880  1.00  0.00    -0.270 OA
BRANCH  25  30
HETATM   30  C   UNL     1      42.933 -15.965   4.562  1.00  0.00    -0.020 A 
HETATM   31  C   UNL     1      43.341 -17.152   5.206  1.00  0.00     0.022 A 
HETATM   32  C   UNL     1      43.551 -18.352   4.499  1.00  0.00    -0.025 A 
HETATM   33  C   UNL     1      43.345 -18.373   3.105  1.00  0.00    -0.026 A 
HETATM   34  C   UNL     1      43.961 -19.526   5.151  1.00  0.00     0.012 A 
HETATM   35  C   UNL     1      42.939 -17.198   2.458  1.00  0.00     0.013 A 
HETATM   36  C   UNL     1      43.554 -19.568   2.396  1.00  0.00     0.012 A 
HETATM   37  C   UNL     1      42.737 -16.013   3.174  1.00  0.00     0.011 A 
HETATM   38  C   UNL     1      43.962 -20.727   3.057  1.00  0.00     0.001 A 
HETATM   39  C   UNL     1      44.165 -20.707   4.433  1.00  0.00     0.001 A 
ENDBRANCH  25  30
ENDBRANCH   1  21
TORSDOF 7
ENDMDL
MODEL 10
REMARK VINA RESULT:      -9.3      3.911      7.393
REMARK  7 active torsions:
REMARK  status: ('A' for Active; 'I' for Inactive)
REMARK    1  A    between atoms: C_2  and  C_3 
REMARK    2  A    between atoms: C_4  and  N_5 
REMARK    3  A    between atoms: N_5  and  C_6 
REMARK    4  A    between atoms: C_8  and  N_9 
REMARK    5  A    between atoms: C_11  and  C_12 
REMARK    6  A    between atoms: C_12  and  N_13 
REMARK    7  A    between atoms: C_17  and  C_18 
ROOT
HETATM    1  C   UNL     1      40.157  -9.600   5.199  1.00  0.00     0.218 C 
ENDROOT
BRANCH   1   2
HETATM    2  C   UNL     1      40.952  -8.452   5.797  1.00  0.00     0.166 A 
HETATM    3  N   UNL     1      41.259  -7.415   5.013  1.00  0.00    -0.200 NA
HETATM    4  C   UNL     1      41.920  -6.438   5.609  1.00  0.00     0.219 A 
HETATM    5  N   UNL     1      42.231  -6.407   6.891  1.00  0.00    -0.031 NA
HETATM    6  C   UNL     1      41.886  -7.473   7.605  1.00  0.00     0.731 A 
HETATM    7  N   UNL     1      41.254  -8.528   7.095  1.00  0.00    -0.045 NA
BRANCH   4   8
HETATM    8  N   UNL     1      42.268  -5.346   4.841  1.00  0.00    -0.270 NA
HETATM    9  H   UNL     1      41.971  -5.487   3.886  1.00  0.00     0.127 HD
HETATM   10  H   UNL     1      43.235  -5.098   4.995  1.00  0.00     0.127 HD
ENDBRANCH   4   8
BRANCH   6  11
HETATM   11  N   UNL     1      42.208  -7.561   8.959  1.00  0.00    -0.188 N 
HETATM   12  H   UNL     1      42.253  -6.639   9.364  1.00  0.00     0.184 HD
BRANCH  11  13
HETATM   13  C   UNL     1      42.753  -8.600   9.731  1.00  0.00     0.055 A 
HETATM   14  C   UNL     1      44.103  -8.985   9.557  1.00  0.00    -0.031 A 
HETATM   15  C   UNL     1      44.642 -10.022  10.344  1.00  0.00     0.009 A 
HETATM   16  C   UNL     1      43.873 -10.659  11.314  1.00  0.00     0.001 A 
HETATM   17  C   UNL     1      42.558 -10.264  11.515  1.00  0.00     0.002 A 
HETATM   18  C   UNL     1      42.011  -9.239  10.737  1.00  0.00     0.030 A 
BRANCH  14  19
HETATM   19  C   UNL     1      45.016  -8.322   8.548  1.00  0.00     0.036 C 
HETATM   20  C   UNL     1      46.152  -9.238   8.119  1.00  0.00     0.010 C 
ENDBRANCH  14  19
ENDBRANCH  11  13
ENDBRANCH   6  11
ENDBRANCH   1   2
BRANCH   1  21
HETATM   21  N   UNL     1      40.732 -10.899   5.477  1.00  0.00    -0.260 N 
HETATM   22  C   UNL     1      40.223 -11.777   6.374  1.00  0.00     0.326 A 
HETATM   23  O   UNL     1      39.173 -11.683   6.986  1.00  0.00    -0.247 OA
HETATM   24  N   UNL     1      41.095 -12.827   6.502  1.00  0.00    -0.321 N 
HETATM   25  C   UNL     1      42.317 -12.643   5.746  1.00  0.00     0.140 A 
HETATM   26  H   UNL     1      40.898 -13.590   7.134  1.00  0.00     0.165 HD
HETATM   27  C   UNL     1      43.502 -12.393   6.686  1.00  0.00     0.054 C 
HETATM   28  C   UNL     1      41.970 -11.299   5.059  1.00  0.00     0.261 A 
HETATM   29  O   UNL     1      42.699 -10.670   4.301  1.00  0.00    -0.270 OA
BRANCH  25  30
HETATM   30  C   UNL     1      42.554 -13.832   4.823  1.00  0.00    -0.020 A 
HETATM   31  C   UNL     1      43.124 -15.013   5.342  1.00  0.00     0.022 A 
HETATM   32  C   UNL     1      43.374 -16.139   4.536  1.00  0.00    -0.025 A 
HETATM   33  C   UNL     1      43.043 -16.092   3.166  1.00  0.00    -0.026 A 
HETATM   34  C   UNL     1      43.946 -17.309   5.064  1.00  0.00     0.012 A 
HETATM   35  C   UNL     1      42.477 -14.922   2.643  1.00  0.00     0.013 A 
HETATM   36  C   UNL     1      43.293 -17.214   2.358  1.00  0.00     0.012 A 
HETATM   37  C   UNL     1      42.236 -13.810   3.457  1.00  0.00     0.011 A 
HETATM   38  C   UNL     1      43.861 -18.368   2.897  1.00  0.00     0.001 A 
HETATM   39  C   UNL     1      44.188 -18.416   4.249  1.00  0.00     0.001 A 
ENDBRANCH  25  30
ENDBRANCH   1  21
TORSDOF 7
ENDMDL
