MODEL 1
REMARK VINA RESULT:      -8.3      0.000      0.000
REMARK  4 active torsions:
REMARK  status: ('A' for Active; 'I' for Inactive)
REMARK    1  A    between atoms: C_7  and  C_8 
REMARK    2  A    between atoms: C_11  and  O_12 
REMARK    3  A    between atoms: C_17  and  C_18 
REMARK    4  A    between atoms: C_25  and  C_26 
REMARK       I    between atoms: C_26  and  N_27 
ROOT
HETATM    1  C   UNL     1      39.679 -11.819  -1.139  1.00  0.00     0.070 C 
HETATM    2  C   UNL     1      39.914 -12.592   0.137  1.00  0.00     0.037 A 
HETATM    3  N   UNL     1      40.837 -13.628   0.052  1.00  0.00    -0.192 N 
HETATM    4  C   UNL     1      41.144 -14.434   1.084  1.00  0.00     0.726 A 
HETATM    5  N   UNL     1      40.542 -14.233   2.292  1.00  0.00    -0.083 N 
HETATM    6  N   UNL     1      40.889 -15.183   3.182  1.00  0.00    -0.135 NA
HETATM    7  C   UNL     1      41.799 -15.884   2.478  1.00  0.00     0.199 A 
HETATM    8  N   UNL     1      41.954 -15.457   1.169  1.00  0.00    -0.041 NA
HETATM    9  C   UNL     1      39.558 -13.177   2.557  1.00  0.00     0.202 A 
HETATM   10  C   UNL     1      39.273 -12.351   1.309  1.00  0.00     0.062 A 
HETATM   11  H   UNL     1      41.298 -13.779  -0.842  1.00  0.00     0.184 HD
ENDROOT
BRANCH   7  12
HETATM   12  C   UNL     1      42.567 -16.998   3.028  1.00  0.00     0.014 A 
HETATM   13  C   UNL     1      42.996 -16.988   4.361  1.00  0.00     0.018 A 
HETATM   14  C   UNL     1      43.750 -18.050   4.871  1.00  0.00     0.037 A 
HETATM   15  C   UNL     1      44.086 -19.139   4.064  1.00  0.00     0.068 A 
HETATM   16  C   UNL     1      43.659 -19.158   2.737  1.00  0.00     0.037 A 
HETATM   17  C   UNL     1      42.905 -18.094   2.223  1.00  0.00     0.018 A 
BRANCH  15  18
HETATM   18  O   UNL     1      44.829 -20.103   4.687  1.00  0.00    -0.356 OA
HETATM   19  C   UNL     1      44.134 -20.983   5.562  1.00  0.00     0.210 C 
ENDBRANCH  15  18
ENDBRANCH   7  12
BRANCH   9  20
HETATM   20  C   UNL     1      39.998 -12.352   3.765  1.00  0.00    -0.028 A 
HETATM   21  C   UNL     1      41.159 -11.557   3.734  1.00  0.00     0.012 A 
HETATM   22  C   UNL     1      41.545 -10.825   4.859  1.00  0.00     0.043 A 
HETATM   23  C   UNL     1      40.783 -10.892   6.018  1.00  0.00     0.116 A 
HETATM   24  F   UNL     1      41.158 -10.192   7.097  1.00  0.00    -0.206 F 
HETATM   25  C   UNL     1      39.641 -11.681   6.078  1.00  0.00     0.043 A 
HETATM   26  C   UNL     1      39.249 -12.411   4.956  1.00  0.00     0.012 A 
ENDBRANCH   9  20
BRANCH  10  27
HETATM   27  C   UNL     1      38.340 -11.210   1.442  1.00  0.00     0.249 C 
HETATM   28  N   UNL     1      37.019 -11.527   1.462  1.00  0.00    -0.366 N 
HETATM   29  H   UNL     1      36.640 -12.447   1.299  1.00  0.00     0.159 HD
HETATM   30  H   UNL     1      36.370 -10.753   1.536  1.00  0.00     0.159 HD
HETATM   31  O   UNL     1      38.720 -10.051   1.531  1.00  0.00    -0.268 OA
ENDBRANCH  10  27
TORSDOF 4
ENDMDL
MODEL 2
REMARK VINA RESULT:      -8.2      3.215      4.475
REMARK  4 active torsions:
REMARK  status: ('A' for Active; 'I' for Inactive)
REMARK    1  A    between atoms: C_7  and  C_8 
REMARK    2  A    between atoms: C_11  and  O_12 
REMARK    3  A    between atoms: C_17  and  C_18 
REMARK    4  A    between atoms: C_25  and  C_26 
REMARK       I    between atoms: C_26  and  N_27 
ROOT
HETATM    1  C   UNL     1      39.628  -9.756   4.326  1.00  0.00     0.070 C 
HETATM    2  C   UNL     1      40.529 -10.874   4.791  1.00  0.00     0.037 A 
HETATM    3  N   UNL     1      40.648 -11.954   3.923  1.00  0.00    -0.192 N 
HETATM    4  C   UNL     1      41.387 -13.045   4.193  1.00  0.00     0.726 A 
HETATM    5  N   UNL     1      42.078 -13.111   5.369  1.00  0.00    -0.083 N 
HETATM    6  N   UNL     1      42.682 -14.305   5.520  1.00  0.00    -0.135 NA
HETATM    7  C   UNL     1      42.405 -14.893   4.341  1.00  0.00     0.199 A 
HETATM    8  N   UNL     1      41.582 -14.145   3.514  1.00  0.00    -0.041 NA
HETATM    9  C   UNL     1      42.075 -12.054   6.386  1.00  0.00     0.202 A 
HETATM   10  C   UNL     1      41.184 -10.887   5.980  1.00  0.00     0.062 A 
HETATM   11  H   UNL     1      40.144 -11.909   3.041  1.00  0.00     0.184 HD
ENDROOT
BRANCH   7  12
HETATM   12  C   UNL     1      42.918 -16.203   3.947  1.00  0.00     0.014 A 
HETATM   13  C   UNL     1      42.582 -16.765   2.709  1.00  0.00     0.018 A 
HETATM   14  C   UNL     1      43.061 -18.029   2.351  1.00  0.00     0.037 A 
HETATM   15  C   UNL     1      43.881 -18.753   3.218  1.00  0.00     0.068 A 
HETATM   16  C   UNL     1      44.224 -18.199   4.451  1.00  0.00     0.037 A 
HETATM   17  C   UNL     1      43.743 -16.933   4.812  1.00  0.00     0.018 A 
BRANCH  15  18
HETATM   18  O   UNL     1      44.273 -19.975   2.746  1.00  0.00    -0.356 OA
HETATM   19  C   UNL     1      43.505 -20.531   1.687  1.00  0.00     0.210 C 
ENDBRANCH  15  18
ENDBRANCH   7  12
BRANCH   9  20
HETATM   20  C   UNL     1      43.511 -11.656   6.722  1.00  0.00    -0.028 A 
HETATM   21  C   UNL     1      43.892 -11.297   8.028  1.00  0.00     0.012 A 
HETATM   22  C   UNL     1      45.209 -10.922   8.304  1.00  0.00     0.043 A 
HETATM   23  C   UNL     1      46.144 -10.892   7.277  1.00  0.00     0.116 A 
HETATM   24  F   UNL     1      47.406 -10.529   7.543  1.00  0.00    -0.206 F 
HETATM   25  C   UNL     1      45.789 -11.228   5.977  1.00  0.00     0.043 A 
HETATM   26  C   UNL     1      44.476 -11.607   5.698  1.00  0.00     0.012 A 
ENDBRANCH   9  20
BRANCH  10  27
HETATM   27  C   UNL     1      41.130  -9.720   6.888  1.00  0.00     0.249 C 
HETATM   28  N   UNL     1      40.364  -9.871   8.000  1.00  0.00    -0.366 N 
HETATM   29  H   UNL     1      39.771 -10.663   8.193  1.00  0.00     0.159 HD
HETATM   30  H   UNL     1      40.305  -9.073   8.621  1.00  0.00     0.159 HD
HETATM   31  O   UNL     1      41.732  -8.679   6.665  1.00  0.00    -0.268 OA
ENDBRANCH  10  27
TORSDOF 4
ENDMDL
MODEL 3
REMARK VINA RESULT:      -8.2      3.840      6.419
REMARK  4 active torsions:
REMARK  status: ('A' for Active; 'I' for Inactive)
REMARK    1  A    between atoms: C_7  and  C_8 
REMARK    2  A    between atoms: C_11  and  O_12 
REMARK    3  A    between atoms: C_17  and  C_18 
REMARK    4  A    between atoms: C_25  and  C_26 
REMARK       I    between atoms: C_26  and  N_27 
ROOT
HETATM    1  C   UNL     1      38.347 -11.845   0.908  1.00  0.00     0.070 C 
HETATM    2  C   UNL     1      39.670 -12.137   1.572  1.00  0.00     0.037 A 
HETATM    3  N   UNL     1      39.907 -11.463   2.765  1.00  0.00    -0.192 N 
HETATM    4  C   UNL     1      41.046 -11.585   3.472  1.00  0.00     0.726 A 
HETATM    5  N   UNL     1      42.027 -12.420   3.022  1.00  0.00    -0.083 N 
HETATM    6  N   UNL     1      43.128 -12.349   3.793  1.00  0.00    -0.135 NA
HETATM    7  C   UNL     1      42.714 -11.519   4.770  1.00  0.00     0.199 A 
HETATM    8  N   UNL     1      41.439 -11.012   4.579  1.00  0.00    -0.041 NA
HETATM    9  C   UNL     1      41.931 -13.216   1.793  1.00  0.00     0.202 A 
HETATM   10  C   UNL     1      40.614 -12.973   1.068  1.00  0.00     0.062 A 
HETATM   11  H   UNL     1      39.178 -10.846   3.112  1.00  0.00     0.184 HD
ENDROOT
BRANCH   7  12
HETATM   12  C   UNL     1      43.521 -11.174   5.937  1.00  0.00     0.014 A 
HETATM   13  C   UNL     1      42.944 -10.556   7.054  1.00  0.00     0.018 A 
HETATM   14  C   UNL     1      43.730 -10.209   8.158  1.00  0.00     0.037 A 
HETATM   15  C   UNL     1      45.101 -10.473   8.168  1.00  0.00     0.068 A 
HETATM   16  C   UNL     1      45.683 -11.091   7.062  1.00  0.00     0.037 A 
HETATM   17  C   UNL     1      44.897 -11.437   5.954  1.00  0.00     0.018 A 
BRANCH  15  18
HETATM   18  O   UNL     1      45.750 -10.079   9.305  1.00  0.00    -0.356 OA
HETATM   19  C   UNL     1      44.938  -9.742  10.423  1.00  0.00     0.210 C 
ENDBRANCH  15  18
ENDBRANCH   7  12
BRANCH   9  20
HETATM   20  C   UNL     1      42.211 -14.685   2.105  1.00  0.00    -0.028 A 
HETATM   21  C   UNL     1      43.249 -15.391   1.470  1.00  0.00     0.012 A 
HETATM   22  C   UNL     1      43.472 -16.738   1.764  1.00  0.00     0.043 A 
HETATM   23  C   UNL     1      42.654 -17.386   2.681  1.00  0.00     0.116 A 
HETATM   24  F   UNL     1      42.867 -18.679   2.958  1.00  0.00    -0.206 F 
HETATM   25  C   UNL     1      41.614 -16.715   3.310  1.00  0.00     0.043 A 
HETATM   26  C   UNL     1      41.390 -15.368   3.023  1.00  0.00     0.012 A 
ENDBRANCH   9  20
BRANCH  10  27
HETATM   27  C   UNL     1      40.356 -13.755  -0.161  1.00  0.00     0.249 C 
HETATM   28  N   UNL     1      40.870 -13.240  -1.308  1.00  0.00    -0.366 N 
HETATM   29  H   UNL     1      41.318 -12.340  -1.391  1.00  0.00     0.159 HD
HETATM   30  H   UNL     1      40.685 -13.757  -2.159  1.00  0.00     0.159 HD
HETATM   31  O   UNL     1      39.721 -14.800  -0.160  1.00  0.00    -0.268 OA
ENDBRANCH  10  27
TORSDOF 4
ENDMDL
MODEL 4
REMARK VINA RESULT:      -8.0      2.840      4.388
REMARK  4 active torsions:
REMARK  status: ('A' for Active; 'I' for Inactive)
REMARK    1  A    between atoms: C_7  and  C_8 
REMARK    2  A    between atoms: C_11  and  O_12 
REMARK    3  A    between atoms: C_17  and  C_18 
REMARK    4  A    between atoms: C_25  and  C_26 
REMARK       I    between atoms: C_26  and  N_27 
ROOT
HETATM    1  C   UNL     1      39.145  -9.976   3.441  1.00  0.00     0.070 C 
HETATM    2  C   UNL     1      39.972 -11.083   2.833  1.00  0.00     0.037 A 
HETATM    3  N   UNL     1      40.272 -12.145   3.679  1.00  0.00    -0.192 N 
HETATM    4  C   UNL     1      41.022 -13.199   3.308  1.00  0.00     0.726 A 
HETATM    5  N   UNL     1      41.511 -13.257   2.035  1.00  0.00    -0.083 N 
HETATM    6  N   UNL     1      42.315 -14.324   1.864  1.00  0.00    -0.135 NA
HETATM    7  C   UNL     1      42.192 -14.943   3.054  1.00  0.00     0.199 A 
HETATM    8  N   UNL     1      41.418 -14.252   3.973  1.00  0.00    -0.041 NA
HETATM    9  C   UNL     1      41.276 -12.231   1.015  1.00  0.00     0.202 A 
HETATM   10  C   UNL     1      40.441 -11.079   1.559  1.00  0.00     0.062 A 
HETATM   11  H   UNL     1      39.904 -12.115   4.625  1.00  0.00     0.184 HD
ENDROOT
BRANCH   7  12
HETATM   12  C   UNL     1      42.808 -16.230   3.367  1.00  0.00     0.014 A 
HETATM   13  C   UNL     1      43.390 -16.463   4.619  1.00  0.00     0.018 A 
HETATM   14  C   UNL     1      43.997 -17.691   4.901  1.00  0.00     0.037 A 
HETATM   15  C   UNL     1      44.032 -18.706   3.943  1.00  0.00     0.068 A 
HETATM   16  C   UNL     1      43.450 -18.483   2.696  1.00  0.00     0.037 A 
HETATM   17  C   UNL     1      42.844 -17.252   2.410  1.00  0.00     0.018 A 
BRANCH  15  18
HETATM   18  O   UNL     1      44.659 -19.852   4.348  1.00  0.00    -0.356 OA
HETATM   19  C   UNL     1      44.023 -20.604   5.374  1.00  0.00     0.210 C 
ENDBRANCH  15  18
ENDBRANCH   7  12
BRANCH   9  20
HETATM   20  C   UNL     1      40.703 -12.876  -0.246  1.00  0.00    -0.028 A 
HETATM   21  C   UNL     1      40.989 -12.375  -1.529  1.00  0.00     0.012 A 
HETATM   22  C   UNL     1      40.439 -12.975  -2.663  1.00  0.00     0.043 A 
HETATM   23  C   UNL     1      39.593 -14.068  -2.520  1.00  0.00     0.116 A 
HETATM   24  F   UNL     1      39.063 -14.640  -3.609  1.00  0.00    -0.206 F 
HETATM   25  C   UNL     1      39.284 -14.573  -1.264  1.00  0.00     0.043 A 
HETATM   26  C   UNL     1      39.834 -13.979  -0.128  1.00  0.00     0.012 A 
ENDBRANCH   9  20
BRANCH  10  27
HETATM   27  C   UNL     1      40.076  -9.995   0.620  1.00  0.00     0.249 C 
HETATM   28  N   UNL     1      41.032  -9.054   0.405  1.00  0.00    -0.366 N 
HETATM   29  H   UNL     1      41.908  -8.992   0.900  1.00  0.00     0.159 HD
HETATM   30  H   UNL     1      40.788  -8.297  -0.222  1.00  0.00     0.159 HD
HETATM   31  O   UNL     1      38.988  -9.938   0.066  1.00  0.00    -0.268 OA
ENDBRANCH  10  27
TORSDOF 4
ENDMDL
MODEL 5
REMARK VINA RESULT:      -7.5      2.942      4.156
REMARK  4 active torsions:
REMARK  status: ('A' for Active; 'I' for Inactive)
REMARK    1  A    between atoms: C_7  and  C_8 
REMARK    2  A    between atoms: C_11  and  O_12 
REMARK    3  A    between atoms: C_17  and  C_18 
REMARK    4  A    between atoms: C_25  and  C_26 
REMARK       I    between atoms: C_26  and  N_27 
ROOT
HETATM    1  C   UNL     1      37.578 -14.024  -3.274  1.00  0.00     0.070 C 
HETATM    2  C   UNL     1      38.313 -13.622  -2.018  1.00  0.00     0.037 A 
HETATM    3  N   UNL     1      39.029 -14.634  -1.389  1.00  0.00    -0.192 N 
HETATM    4  C   UNL     1      39.717 -14.456  -0.246  1.00  0.00     0.726 A 
HETATM    5  N   UNL     1      39.740 -13.221   0.335  1.00  0.00    -0.083 N 
HETATM    6  N   UNL     1      40.390 -13.242   1.514  1.00  0.00    -0.135 NA
HETATM    7  C   UNL     1      40.835 -14.513   1.548  1.00  0.00     0.199 A 
HETATM    8  N   UNL     1      40.409 -15.291   0.484  1.00  0.00    -0.041 NA
HETATM    9  C   UNL     1      39.054 -12.043  -0.206  1.00  0.00     0.202 A 
HETATM   10  C   UNL     1      38.290 -12.375  -1.482  1.00  0.00     0.062 A 
HETATM   11  H   UNL     1      39.025 -15.555  -1.819  1.00  0.00     0.184 HD
ENDROOT
BRANCH   7  12
HETATM   12  C   UNL     1      41.694 -15.044   2.604  1.00  0.00     0.014 A 
HETATM   13  C   UNL     1      42.164 -16.362   2.554  1.00  0.00     0.018 A 
HETATM   14  C   UNL     1      42.968 -16.867   3.581  1.00  0.00     0.037 A 
HETATM   15  C   UNL     1      43.318 -16.069   4.671  1.00  0.00     0.068 A 
HETATM   16  C   UNL     1      42.858 -14.754   4.726  1.00  0.00     0.037 A 
HETATM   17  C   UNL     1      42.050 -14.246   3.699  1.00  0.00     0.018 A 
BRANCH  15  18
HETATM   18  O   UNL     1      44.103 -16.688   5.604  1.00  0.00    -0.356 OA
HETATM   19  C   UNL     1      43.629 -17.924   6.124  1.00  0.00     0.210 C 
ENDBRANCH  15  18
ENDBRANCH   7  12
BRANCH   9  20
HETATM   20  C   UNL     1      40.045 -10.890  -0.355  1.00  0.00    -0.028 A 
HETATM   21  C   UNL     1      41.127 -10.957  -1.252  1.00  0.00     0.012 A 
HETATM   22  C   UNL     1      42.026  -9.894  -1.357  1.00  0.00     0.043 A 
HETATM   23  C   UNL     1      41.857  -8.769  -0.560  1.00  0.00     0.116 A 
HETATM   24  F   UNL     1      42.723  -7.752  -0.658  1.00  0.00    -0.206 F 
HETATM   25  C   UNL     1      40.805  -8.685   0.344  1.00  0.00     0.043 A 
HETATM   26  C   UNL     1      39.902  -9.742   0.449  1.00  0.00     0.012 A 
ENDBRANCH   9  20
BRANCH  10  27
HETATM   27  C   UNL     1      37.594 -11.266  -2.171  1.00  0.00     0.249 C 
HETATM   28  N   UNL     1      38.175 -10.825  -3.317  1.00  0.00    -0.366 N 
HETATM   29  H   UNL     1      39.072 -11.127  -3.667  1.00  0.00     0.159 HD
HETATM   30  H   UNL     1      37.718 -10.054  -3.788  1.00  0.00     0.159 HD
HETATM   31  O   UNL     1      36.560 -10.768  -1.747  1.00  0.00    -0.268 OA
ENDBRANCH  10  27
TORSDOF 4
ENDMDL
MODEL 6
REMARK VINA RESULT:      -7.4      2.654      4.182
REMARK  4 active torsions:
REMARK  status: ('A' for Active; 'I' for Inactive)
REMARK    1  A    between atoms: C_7  and  C_8 
REMARK    2  A    between atoms: C_11  and  O_12 
REMARK    3  A    between atoms: C_17  and  C_18 
REMARK    4  A    between atoms: C_25  and  C_26 
REMARK       I    between atoms: C_26  and  N_27 
ROOT
HETATM    1  C   UNL     1      40.469 -10.119   7.157  1.00  0.00     0.070 C 
HETATM    2  C   UNL     1      40.902 -10.964   5.983  1.00  0.00     0.037 A 
HETATM    3  N   UNL     1      41.200 -12.291   6.273  1.00  0.00    -0.192 N 
HETATM    4  C   UNL     1      41.627 -13.174   5.352  1.00  0.00     0.726 A 
HETATM    5  N   UNL     1      41.767 -12.772   4.055  1.00  0.00    -0.083 N 
HETATM    6  N   UNL     1      42.292 -13.748   3.290  1.00  0.00    -0.135 NA
HETATM    7  C   UNL     1      42.354 -14.768   4.167  1.00  0.00     0.199 A 
HETATM    8  N   UNL     1      41.974 -14.430   5.456  1.00  0.00    -0.041 NA
HETATM    9  C   UNL     1      41.480 -11.415   3.578  1.00  0.00     0.202 A 
HETATM   10  C   UNL     1      41.033 -10.503   4.713  1.00  0.00     0.062 A 
HETATM   11  H   UNL     1      41.089 -12.601   7.235  1.00  0.00     0.184 HD
ENDROOT
BRANCH   7  12
HETATM   12  C   UNL     1      42.780 -16.119   3.812  1.00  0.00     0.014 A 
HETATM   13  C   UNL     1      43.550 -16.887   4.695  1.00  0.00     0.018 A 
HETATM   14  C   UNL     1      43.971 -18.171   4.336  1.00  0.00     0.037 A 
HETATM   15  C   UNL     1      43.631 -18.712   3.094  1.00  0.00     0.068 A 
HETATM   16  C   UNL     1      42.861 -17.956   2.211  1.00  0.00     0.037 A 
HETATM   17  C   UNL     1      42.441 -16.667   2.568  1.00  0.00     0.018 A 
BRANCH  15  18
HETATM   18  O   UNL     1      44.111 -19.973   2.870  1.00  0.00    -0.356 OA
HETATM   19  C   UNL     1      43.916 -20.927   3.906  1.00  0.00     0.210 C 
ENDBRANCH  15  18
ENDBRANCH   7  12
BRANCH   9  20
HETATM   20  C   UNL     1      40.504 -11.475   2.404  1.00  0.00    -0.028 A 
HETATM   21  C   UNL     1      40.890 -11.106   1.102  1.00  0.00     0.012 A 
HETATM   22  C   UNL     1      39.972 -11.156   0.051  1.00  0.00     0.043 A 
HETATM   23  C   UNL     1      38.666 -11.562   0.297  1.00  0.00     0.116 A 
HETATM   24  F   UNL     1      37.787 -11.606  -0.712  1.00  0.00    -0.206 F 
HETATM   25  C   UNL     1      38.258 -11.918   1.576  1.00  0.00     0.043 A 
HETATM   26  C   UNL     1      39.172 -11.873   2.628  1.00  0.00     0.012 A 
ENDBRANCH   9  20
BRANCH  10  27
HETATM   27  C   UNL     1      40.654  -9.116   4.367  1.00  0.00     0.249 C 
HETATM   28  N   UNL     1      41.685  -8.263   4.130  1.00  0.00    -0.366 N 
HETATM   29  H   UNL     1      42.661  -8.480   4.266  1.00  0.00     0.159 HD
HETATM   30  H   UNL     1      41.439  -7.306   3.910  1.00  0.00     0.159 HD
HETATM   31  O   UNL     1      39.491  -8.745   4.294  1.00  0.00    -0.268 OA
ENDBRANCH  10  27
TORSDOF 4
ENDMDL
MODEL 7
REMARK VINA RESULT:      -7.3      3.944      7.451
REMARK  4 active torsions:
REMARK  status: ('A' for Active; 'I' for Inactive)
REMARK    1  A    between atoms: C_7  and  C_8 
REMARK    2  A    between atoms: C_11  and  O_12 
REMARK    3  A    between atoms: C_17  and  C_18 
REMARK    4  A    between atoms: C_25  and  C_26 
REMARK       I    between atoms: C_26  and  N_27 
ROOT
HETATM    1  C   UNL     1      39.973 -13.899   1.436  1.00  0.00     0.070 C 
HETATM    2  C   UNL     1      40.966 -13.776   2.567  1.00  0.00     0.037 A 
HETATM    3  N   UNL     1      40.783 -12.689   3.414  1.00  0.00    -0.192 N 
HETATM    4  C   UNL     1      41.592 -12.414   4.453  1.00  0.00     0.726 A 
HETATM    5  N   UNL     1      42.645 -13.240   4.717  1.00  0.00    -0.083 N 
HETATM    6  N   UNL     1      43.403 -12.767   5.725  1.00  0.00    -0.135 NA
HETATM    7  C   UNL     1      42.692 -11.689   6.108  1.00  0.00     0.199 A 
HETATM    8  N   UNL     1      41.582 -11.434   5.318  1.00  0.00    -0.041 NA
HETATM    9  C   UNL     1      42.970 -14.437   3.934  1.00  0.00     0.202 A 
HETATM   10  C   UNL     1      42.003 -14.627   2.773  1.00  0.00     0.062 A 
HETATM   11  H   UNL     1      39.995 -12.073   3.230  1.00  0.00     0.184 HD
ENDROOT
BRANCH   7  12
HETATM   12  C   UNL     1      43.041 -10.851   7.252  1.00  0.00     0.014 A 
HETATM   13  C   UNL     1      42.222  -9.783   7.639  1.00  0.00     0.018 A 
HETATM   14  C   UNL     1      42.577  -8.973   8.722  1.00  0.00     0.037 A 
HETATM   15  C   UNL     1      43.752  -9.213   9.437  1.00  0.00     0.068 A 
HETATM   16  C   UNL     1      44.571 -10.276   9.061  1.00  0.00     0.037 A 
HETATM   17  C   UNL     1      44.218 -11.088   7.974  1.00  0.00     0.018 A 
BRANCH  15  18
HETATM   18  O   UNL     1      43.980  -8.344  10.468  1.00  0.00    -0.356 OA
HETATM   19  C   UNL     1      42.936  -7.431  10.781  1.00  0.00     0.210 C 
ENDBRANCH  15  18
ENDBRANCH   7  12
BRANCH   9  20
HETATM   20  C   UNL     1      43.080 -15.647   4.860  1.00  0.00    -0.028 A 
HETATM   21  C   UNL     1      44.045 -16.650   4.654  1.00  0.00     0.012 A 
HETATM   22  C   UNL     1      44.113 -17.754   5.507  1.00  0.00     0.043 A 
HETATM   23  C   UNL     1      43.212 -17.866   6.558  1.00  0.00     0.116 A 
HETATM   24  F   UNL     1      43.275 -18.927   7.373  1.00  0.00    -0.206 F 
HETATM   25  C   UNL     1      42.241 -16.897   6.774  1.00  0.00     0.043 A 
HETATM   26  C   UNL     1      42.172 -15.791   5.926  1.00  0.00     0.012 A 
ENDBRANCH   9  20
BRANCH  10  27
HETATM   27  C   UNL     1      42.177 -15.829   1.928  1.00  0.00     0.249 C 
HETATM   28  N   UNL     1      43.177 -15.769   1.011  1.00  0.00    -0.366 N 
HETATM   29  H   UNL     1      43.729 -14.949   0.807  1.00  0.00     0.159 HD
HETATM   30  H   UNL     1      43.295 -16.578   0.415  1.00  0.00     0.159 HD
HETATM   31  O   UNL     1      41.471 -16.823   2.038  1.00  0.00    -0.268 OA
ENDBRANCH  10  27
TORSDOF 4
ENDMDL
MODEL 8
REMARK VINA RESULT:      -7.2      3.134      6.502
REMARK  4 active torsions:
REMARK  status: ('A' for Active; 'I' for Inactive)
REMARK    1  A    between atoms: C_7  and  C_8 
REMARK    2  A    between atoms: C_11  and  O_12 
REMARK    3  A    between atoms: C_17  and  C_18 
REMARK    4  A    between atoms: C_25  and  C_26 
REMARK       I    between atoms: C_26  and  N_27 
ROOT
HETATM    1  C   UNL     1      43.993 -15.638   6.481  1.00  0.00     0.070 C 
HETATM    2  C   UNL     1      43.325 -14.664   5.540  1.00  0.00     0.037 A 
HETATM    3  N   UNL     1      42.622 -15.234   4.484  1.00  0.00    -0.192 N 
HETATM    4  C   UNL     1      41.993 -14.513   3.538  1.00  0.00     0.726 A 
HETATM    5  N   UNL     1      42.019 -13.150   3.607  1.00  0.00    -0.083 N 
HETATM    6  N   UNL     1      41.426 -12.589   2.536  1.00  0.00    -0.135 NA
HETATM    7  C   UNL     1      40.960 -13.677   1.892  1.00  0.00     0.199 A 
HETATM    8  N   UNL     1      41.321 -14.879   2.478  1.00  0.00    -0.041 NA
HETATM    9  C   UNL     1      42.700 -12.392   4.662  1.00  0.00     0.202 A 
HETATM   10  C   UNL     1      43.397 -13.314   5.655  1.00  0.00     0.062 A 
HETATM   11  H   UNL     1      42.589 -16.248   4.430  1.00  0.00     0.184 HD
ENDROOT
BRANCH   7  12
HETATM   12  C   UNL     1      40.142 -13.616   0.684  1.00  0.00     0.014 A 
HETATM   13  C   UNL     1      40.136 -14.673  -0.235  1.00  0.00     0.018 A 
HETATM   14  C   UNL     1      39.366 -14.595  -1.401  1.00  0.00     0.037 A 
HETATM   15  C   UNL     1      38.590 -13.465  -1.669  1.00  0.00     0.068 A 
HETATM   16  C   UNL     1      38.588 -12.410  -0.757  1.00  0.00     0.037 A 
HETATM   17  C   UNL     1      39.360 -12.486   0.410  1.00  0.00     0.018 A 
BRANCH  15  18
HETATM   18  O   UNL     1      37.892 -13.518  -2.843  1.00  0.00    -0.356 OA
HETATM   19  C   UNL     1      38.062 -14.683  -3.640  1.00  0.00     0.210 C 
ENDBRANCH  15  18
ENDBRANCH   7  12
BRANCH   9  20
HETATM   20  C   UNL     1      41.724 -11.407   5.304  1.00  0.00    -0.028 A 
HETATM   21  C   UNL     1      40.570 -11.845   5.980  1.00  0.00     0.012 A 
HETATM   22  C   UNL     1      39.687 -10.922   6.544  1.00  0.00     0.043 A 
HETATM   23  C   UNL     1      39.946  -9.562   6.425  1.00  0.00     0.116 A 
HETATM   24  F   UNL     1      39.095  -8.678   6.963  1.00  0.00    -0.206 F 
HETATM   25  C   UNL     1      41.070  -9.105   5.750  1.00  0.00     0.043 A 
HETATM   26  C   UNL     1      41.957 -10.023   5.189  1.00  0.00     0.012 A 
ENDBRANCH   9  20
BRANCH  10  27
HETATM   27  C   UNL     1      44.079 -12.686   6.808  1.00  0.00     0.249 C 
HETATM   28  N   UNL     1      45.209 -11.990   6.520  1.00  0.00    -0.366 N 
HETATM   29  H   UNL     1      45.654 -11.955   5.615  1.00  0.00     0.159 HD
HETATM   30  H   UNL     1      45.695 -11.571   7.303  1.00  0.00     0.159 HD
HETATM   31  O   UNL     1      43.662 -12.780   7.955  1.00  0.00    -0.268 OA
ENDBRANCH  10  27
TORSDOF 4
ENDMDL
MODEL 9
REMARK VINA RESULT:      -7.0      7.143     10.504
REMARK  4 active torsions:
REMARK  status: ('A' for Active; 'I' for Inactive)
REMARK    1  A    between atoms: C_7  and  C_8 
REMARK    2  A    between atoms: C_11  and  O_12 
REMARK    3  A    between atoms: C_17  and  C_18 
REMARK    4  A    between atoms: C_25  and  C_26 
REMARK       I    between atoms: C_26  and  N_27 
ROOT
HETATM    1  C   UNL     1      45.859 -11.282   6.645  1.00  0.00     0.070 C 
HETATM    2  C   UNL     1      44.731 -10.750   7.495  1.00  0.00     0.037 A 
HETATM    3  N   UNL     1      45.084 -10.340   8.776  1.00  0.00    -0.192 N 
HETATM    4  C   UNL     1      44.200  -9.867   9.673  1.00  0.00     0.726 A 
HETATM    5  N   UNL     1      42.885  -9.761   9.324  1.00  0.00    -0.083 N 
HETATM    6  N   UNL     1      42.128  -9.364  10.365  1.00  0.00    -0.135 NA
HETATM    7  C   UNL     1      43.066  -9.142  11.305  1.00  0.00     0.199 A 
HETATM    8  N   UNL     1      44.353  -9.471  10.910  1.00  0.00    -0.041 NA
HETATM    9  C   UNL     1      42.348 -10.133   8.011  1.00  0.00     0.202 A 
HETATM   10  C   UNL     1      43.437 -10.679   7.094  1.00  0.00     0.062 A 
HETATM   11  H   UNL     1      46.063 -10.407   9.041  1.00  0.00     0.184 HD
ENDROOT
BRANCH   7  12
HETATM   12  C   UNL     1      42.776  -8.599  12.630  1.00  0.00     0.014 A 
HETATM   13  C   UNL     1      43.451  -7.469  13.108  1.00  0.00     0.018 A 
HETATM   14  C   UNL     1      43.181  -6.970  14.387  1.00  0.00     0.037 A 
HETATM   15  C   UNL     1      42.235  -7.588  15.208  1.00  0.00     0.068 A 
HETATM   16  C   UNL     1      41.556  -8.711  14.737  1.00  0.00     0.037 A 
HETATM   17  C   UNL     1      41.827  -9.213  13.457  1.00  0.00     0.018 A 
BRANCH  15  18
HETATM   18  O   UNL     1      42.073  -7.001  16.432  1.00  0.00    -0.356 OA
HETATM   19  C   UNL     1      41.128  -7.600  17.311  1.00  0.00     0.210 C 
ENDBRANCH  15  18
ENDBRANCH   7  12
BRANCH   9  20
HETATM   20  C   UNL     1      41.565  -8.962   7.421  1.00  0.00    -0.028 A 
HETATM   21  C   UNL     1      42.183  -7.731   7.131  1.00  0.00     0.012 A 
HETATM   22  C   UNL     1      41.439  -6.672   6.606  1.00  0.00     0.043 A 
HETATM   23  C   UNL     1      40.077  -6.833   6.381  1.00  0.00     0.116 A 
HETATM   24  F   UNL     1      39.365  -5.815   5.882  1.00  0.00    -0.206 F 
HETATM   25  C   UNL     1      39.442  -8.033   6.673  1.00  0.00     0.043 A 
HETATM   26  C   UNL     1      40.182  -9.095   7.193  1.00  0.00     0.012 A 
ENDBRANCH   9  20
BRANCH  10  27
HETATM   27  C   UNL     1      43.049 -11.042   5.714  1.00  0.00     0.249 C 
HETATM   28  N   UNL     1      42.484 -12.268   5.561  1.00  0.00    -0.366 N 
HETATM   29  H   UNL     1      42.403 -12.965   6.287  1.00  0.00     0.159 HD
HETATM   30  H   UNL     1      42.230 -12.536   4.618  1.00  0.00     0.159 HD
HETATM   31  O   UNL     1      43.219 -10.296   4.760  1.00  0.00    -0.268 OA
ENDBRANCH  10  27
TORSDOF 4
ENDMDL
MODEL 10
REMARK VINA RESULT:      -6.9     16.374     19.830
REMARK  4 active torsions:
REMARK  status: ('A' for Active; 'I' for Inactive)
REMARK    1  A    between atoms: C_7  and  C_8 
REMARK    2  A    between atoms: C_11  and  O_12 
REMARK    3  A    between atoms: C_17  and  C_18 
REMARK    4  A    between atoms: C_25  and  C_26 
REMARK       I    between atoms: C_26  and  N_27 
ROOT
HETATM    1  C   UNL     1      48.127 -31.058   3.753  1.00  0.00     0.070 C 
HETATM    2  C   UNL     1      48.735 -30.782   2.399  1.00  0.00     0.037 A 
HETATM    3  N   UNL     1      49.775 -31.625   2.023  1.00  0.00    -0.192 N 
HETATM    4  C   UNL     1      50.446 -31.502   0.863  1.00  0.00     0.726 A 
HETATM    5  N   UNL     1      50.093 -30.516  -0.013  1.00  0.00    -0.083 N 
HETATM    6  N   UNL     1      50.925 -30.476  -1.071  1.00  0.00    -0.135 NA
HETATM    7  C   UNL     1      51.710 -31.543  -0.832  1.00  0.00     0.199 A 
HETATM    8  N   UNL     1      51.451 -32.178   0.372  1.00  0.00    -0.041 NA
HETATM    9  C   UNL     1      49.011 -29.555   0.222  1.00  0.00     0.202 A 
HETATM   10  C   UNL     1      48.347 -29.776   1.575  1.00  0.00     0.062 A 
HETATM   11  H   UNL     1      50.037 -32.368   2.665  1.00  0.00     0.184 HD
ENDROOT
BRANCH   7  12
HETATM   12  C   UNL     1      52.748 -32.009  -1.748  1.00  0.00     0.014 A 
HETATM   13  C   UNL     1      52.622 -31.828  -3.131  1.00  0.00     0.018 A 
HETATM   14  C   UNL     1      53.612 -32.298  -4.001  1.00  0.00     0.037 A 
HETATM   15  C   UNL     1      54.742 -32.953  -3.508  1.00  0.00     0.068 A 
HETATM   16  C   UNL     1      54.877 -33.133  -2.132  1.00  0.00     0.037 A 
HETATM   17  C   UNL     1      53.885 -32.666  -1.259  1.00  0.00     0.018 A 
BRANCH  15  18
HETATM   18  O   UNL     1      55.626 -33.364  -4.466  1.00  0.00    -0.356 OA
HETATM   19  C   UNL     1      55.905 -32.448  -5.518  1.00  0.00     0.210 C 
ENDBRANCH  15  18
ENDBRANCH   7  12
BRANCH   9  20
HETATM   20  C   UNL     1      48.041 -29.569  -0.959  1.00  0.00    -0.028 A 
HETATM   21  C   UNL     1      47.571 -28.379  -1.543  1.00  0.00     0.012 A 
HETATM   22  C   UNL     1      46.673 -28.422  -2.612  1.00  0.00     0.043 A 
HETATM   23  C   UNL     1      46.234 -29.649  -3.092  1.00  0.00     0.116 A 
HETATM   24  F   UNL     1      45.369 -29.688  -4.114  1.00  0.00    -0.206 F 
HETATM   25  C   UNL     1      46.672 -30.838  -2.523  1.00  0.00     0.043 A 
HETATM   26  C   UNL     1      47.572 -30.800  -1.457  1.00  0.00     0.012 A 
ENDBRANCH   9  20
BRANCH  10  27
HETATM   27  C   UNL     1      47.197 -28.912   1.922  1.00  0.00     0.249 C 
HETATM   28  N   UNL     1      45.975 -29.501   1.858  1.00  0.00    -0.366 N 
HETATM   29  H   UNL     1      45.795 -30.429   1.507  1.00  0.00     0.159 HD
HETATM   30  H   UNL     1      45.178 -28.915   2.076  1.00  0.00     0.159 HD
HETATM   31  O   UNL     1      47.325 -27.740   2.248  1.00  0.00    -0.268 OA
ENDBRANCH  10  27
TORSDOF 4
ENDMDL
