MODEL 1
REMARK VINA RESULT:      -7.8      0.000      0.000
REMARK  5 active torsions:
REMARK  status: ('A' for Active; 'I' for Inactive)
REMARK    1  A    between atoms: C_8  and  N_9 
REMARK       I    between atoms: N_9  and  C_10 
REMARK    2  A    between atoms: C_10  and  C_11 
REMARK    3  A    between atoms: C_11  and  N_12 
REMARK    4  A    between atoms: N_12  and  C_13 
REMARK    5  A    between atoms: C_13  and  C_14 
ROOT
HETATM    1  C   UNL     1      41.906 -15.531   6.676  1.00  0.00     0.372 C 
ENDROOT
BRANCH   1   2
HETATM    2  C   UNL     1      40.777 -14.716   6.027  1.00  0.00     0.250 C 
HETATM    3  N   UNL     1      41.046 -14.419   4.708  1.00  0.00    -0.322 N 
HETATM    4  H   UNL     1      41.977 -14.689   4.399  1.00  0.00     0.169 HD
HETATM    5  O   UNL     1      39.763 -14.444   6.660  1.00  0.00    -0.271 OA
BRANCH   3   6
HETATM    6  C   UNL     1      40.233 -13.773   3.795  1.00  0.00     0.085 A 
HETATM    7  C   UNL     1      39.823 -14.393   2.629  1.00  0.00     0.052 A 
HETATM    8  C   UNL     1      40.086 -15.737   2.066  1.00  0.00     0.072 C 
HETATM    9  N   UNL     1      39.044 -13.482   1.975  1.00  0.00    -0.280 N 
HETATM   10  H   UNL     1      38.572 -13.587   1.085  1.00  0.00     0.189 HD
HETATM   11  N   UNL     1      38.907 -12.323   2.624  1.00  0.00    -0.177 NA
HETATM   12  C   UNL     1      39.626 -12.484   3.746  1.00  0.00     0.079 A 
HETATM   13  C   UNL     1      39.660 -11.361   4.717  1.00  0.00     0.075 C 
ENDBRANCH   3   6
ENDBRANCH   1   2
BRANCH   1  14
HETATM   14  N   UNL     1      42.101 -16.813   5.959  1.00  0.00     0.101 N 
HETATM   15  H   UNL     1      41.365 -16.872   5.249  1.00  0.00     0.317 HD
BRANCH  14  16
HETATM   16  C   UNL     1      43.402 -16.871   5.264  1.00  0.00     0.254 C 
HETATM   17  C   UNL     1      44.593 -16.572   6.184  1.00  0.00     0.048 C 
BRANCH  16  18
HETATM   18  C   UNL     1      43.606 -18.208   4.565  1.00  0.00     0.035 A 
HETATM   19  C   UNL     1      43.636 -18.399   3.171  1.00  0.00     0.045 A 
HETATM   20 CL   UNL     1      43.473 -17.105   2.037  1.00  0.00    -0.084 Cl
HETATM   21  C   UNL     1      43.798 -19.683   2.626  1.00  0.00     0.024 A 
HETATM   22  C   UNL     1      43.923 -20.797   3.453  1.00  0.00     0.005 A 
HETATM   23  C   UNL     1      43.886 -20.631   4.830  1.00  0.00     0.043 A 
HETATM   24  C   UNL     1      43.728 -19.355   5.367  1.00  0.00     0.126 A 
HETATM   25  F   UNL     1      43.683 -19.243   6.703  1.00  0.00    -0.205 F 
ENDBRANCH  16  18
ENDBRANCH  14  16
ENDBRANCH   1  14
TORSDOF 5
ENDMDL
MODEL 2
REMARK VINA RESULT:      -7.4      1.761      2.035
REMARK  5 active torsions:
REMARK  status: ('A' for Active; 'I' for Inactive)
REMARK    1  A    between atoms: C_8  and  N_9 
REMARK       I    between atoms: N_9  and  C_10 
REMARK    2  A    between atoms: C_10  and  C_11 
REMARK    3  A    between atoms: C_11  and  N_12 
REMARK    4  A    between atoms: N_12  and  C_13 
REMARK    5  A    between atoms: C_13  and  C_14 
ROOT
HETATM    1  C   UNL     1      41.767 -15.376   6.360  1.00  0.00     0.372 C 
ENDROOT
BRANCH   1   2
HETATM    2  C   UNL     1      41.602 -14.380   5.202  1.00  0.00     0.250 C 
HETATM    3  N   UNL     1      40.492 -14.659   4.434  1.00  0.00    -0.322 N 
HETATM    4  H   UNL     1      40.018 -15.525   4.682  1.00  0.00     0.169 HD
HETATM    5  O   UNL     1      42.380 -13.442   5.073  1.00  0.00    -0.271 OA
BRANCH   3   6
HETATM    6  C   UNL     1      39.990 -13.941   3.365  1.00  0.00     0.085 A 
HETATM    7  C   UNL     1      39.854 -14.510   2.112  1.00  0.00     0.052 A 
HETATM    8  C   UNL     1      40.161 -15.862   1.590  1.00  0.00     0.072 C 
HETATM    9  N   UNL     1      39.335 -13.534   1.312  1.00  0.00    -0.280 N 
HETATM   10  H   UNL     1      39.103 -13.590   0.327  1.00  0.00     0.189 HD
HETATM   11  N   UNL     1      39.115 -12.378   1.943  1.00  0.00    -0.177 NA
HETATM   12  C   UNL     1      39.506 -12.609   3.206  1.00  0.00     0.079 A 
HETATM   13  C   UNL     1      39.364 -11.507   4.190  1.00  0.00     0.075 C 
ENDBRANCH   3   6
ENDBRANCH   1   2
BRANCH   1  14
HETATM   14  N   UNL     1      42.008 -16.743   5.842  1.00  0.00     0.101 N 
HETATM   15  H   UNL     1      41.296 -16.919   5.127  1.00  0.00     0.317 HD
BRANCH  14  16
HETATM   16  C   UNL     1      43.331 -16.871   5.201  1.00  0.00     0.254 C 
HETATM   17  C   UNL     1      44.495 -16.530   6.142  1.00  0.00     0.048 C 
BRANCH  16  18
HETATM   18  C   UNL     1      43.533 -18.257   4.604  1.00  0.00     0.035 A 
HETATM   19  C   UNL     1      43.610 -19.455   5.338  1.00  0.00     0.045 A 
HETATM   20 CL   UNL     1      43.450 -19.519   7.058  1.00  0.00    -0.084 Cl
HETATM   21  C   UNL     1      43.833 -20.681   4.691  1.00  0.00     0.024 A 
HETATM   22  C   UNL     1      43.991 -20.738   3.308  1.00  0.00     0.005 A 
HETATM   23  C   UNL     1      43.928 -19.566   2.566  1.00  0.00     0.043 A 
HETATM   24  C   UNL     1      43.705 -18.352   3.212  1.00  0.00     0.126 A 
HETATM   25  F   UNL     1      43.666 -17.243   2.457  1.00  0.00    -0.205 F 
ENDBRANCH  16  18
ENDBRANCH  14  16
ENDBRANCH   1  14
TORSDOF 5
ENDMDL
MODEL 3
REMARK VINA RESULT:      -7.4      3.571      4.469
REMARK  5 active torsions:
REMARK  status: ('A' for Active; 'I' for Inactive)
REMARK    1  A    between atoms: C_8  and  N_9 
REMARK       I    between atoms: N_9  and  C_10 
REMARK    2  A    between atoms: C_10  and  C_11 
REMARK    3  A    between atoms: C_11  and  N_12 
REMARK    4  A    between atoms: N_12  and  C_13 
REMARK    5  A    between atoms: C_13  and  C_14 
ROOT
HETATM    1  C   UNL     1      40.136 -15.834   1.562  1.00  0.00     0.372 C 
ENDROOT
BRANCH   1   2
HETATM    2  C   UNL     1      39.905 -14.488   0.858  1.00  0.00     0.250 C 
HETATM    3  N   UNL     1      40.088 -14.580  -0.505  1.00  0.00    -0.322 N 
HETATM    4  H   UNL     1      40.442 -15.481  -0.821  1.00  0.00     0.169 HD
HETATM    5  O   UNL     1      39.550 -13.505   1.497  1.00  0.00    -0.271 OA
BRANCH   3   6
HETATM    6  C   UNL     1      39.894 -13.601  -1.461  1.00  0.00     0.085 A 
HETATM    7  C   UNL     1      39.132 -13.836  -2.591  1.00  0.00     0.052 A 
HETATM    8  C   UNL     1      38.397 -15.029  -3.071  1.00  0.00     0.072 C 
HETATM    9  N   UNL     1      39.150 -12.672  -3.304  1.00  0.00    -0.280 N 
HETATM   10  H   UNL     1      38.700 -12.473  -4.190  1.00  0.00     0.189 HD
HETATM   11  N   UNL     1      39.855 -11.696  -2.726  1.00  0.00    -0.177 NA
HETATM   12  C   UNL     1      40.316 -12.245  -1.592  1.00  0.00     0.079 A 
HETATM   13  C   UNL     1      41.133 -11.395  -0.689  1.00  0.00     0.075 C 
ENDBRANCH   3   6
ENDBRANCH   1   2
BRANCH   1  14
HETATM   14  N   UNL     1      41.213 -15.715   2.573  1.00  0.00     0.101 N 
HETATM   15  H   UNL     1      40.904 -16.237   3.399  1.00  0.00     0.317 HD
BRANCH  14  16
HETATM   16  C   UNL     1      42.480 -16.313   2.111  1.00  0.00     0.254 C 
HETATM   17  C   UNL     1      43.503 -15.270   1.639  1.00  0.00     0.048 C 
BRANCH  16  18
HETATM   18  C   UNL     1      43.101 -17.206   3.176  1.00  0.00     0.035 A 
HETATM   19  C   UNL     1      43.452 -16.797   4.476  1.00  0.00     0.045 A 
HETATM   20 CL   UNL     1      43.190 -15.192   5.063  1.00  0.00    -0.084 Cl
HETATM   21  C   UNL     1      44.052 -17.695   5.374  1.00  0.00     0.024 A 
HETATM   22  C   UNL     1      44.321 -19.008   4.995  1.00  0.00     0.005 A 
HETATM   23  C   UNL     1      43.991 -19.429   3.714  1.00  0.00     0.043 A 
HETATM   24  C   UNL     1      43.394 -18.535   2.827  1.00  0.00     0.126 A 
HETATM   25  F   UNL     1      43.106 -18.981   1.594  1.00  0.00    -0.205 F 
ENDBRANCH  16  18
ENDBRANCH  14  16
ENDBRANCH   1  14
TORSDOF 5
ENDMDL
MODEL 4
REMARK VINA RESULT:      -7.4      2.280      3.390
REMARK  5 active torsions:
REMARK  status: ('A' for Active; 'I' for Inactive)
REMARK    1  A    between atoms: C_8  and  N_9 
REMARK       I    between atoms: N_9  and  C_10 
REMARK    2  A    between atoms: C_10  and  C_11 
REMARK    3  A    between atoms: C_11  and  N_12 
REMARK    4  A    between atoms: N_12  and  C_13 
REMARK    5  A    between atoms: C_13  and  C_14 
ROOT
HETATM    1  C   UNL     1      40.828 -15.453   1.520  1.00  0.00     0.372 C 
ENDROOT
BRANCH   1   2
HETATM    2  C   UNL     1      40.258 -14.343   2.416  1.00  0.00     0.250 C 
HETATM    3  N   UNL     1      40.887 -14.296   3.642  1.00  0.00    -0.322 N 
HETATM    4  H   UNL     1      41.548 -15.053   3.804  1.00  0.00     0.169 HD
HETATM    5  O   UNL     1      39.382 -13.595   1.999  1.00  0.00    -0.271 OA
BRANCH   3   6
HETATM    6  C   UNL     1      40.693 -13.388   4.667  1.00  0.00     0.085 A 
HETATM    7  C   UNL     1      40.394 -13.802   5.952  1.00  0.00     0.052 A 
HETATM    8  C   UNL     1      40.207 -15.144   6.551  1.00  0.00     0.072 C 
HETATM    9  N   UNL     1      40.274 -12.664   6.695  1.00  0.00    -0.280 N 
HETATM   10  H   UNL     1      40.058 -12.579   7.681  1.00  0.00     0.189 HD
HETATM   11  N   UNL     1      40.478 -11.542   6.000  1.00  0.00    -0.177 NA
HETATM   12  C   UNL     1      40.742 -11.965   4.754  1.00  0.00     0.079 A 
HETATM   13  C   UNL     1      41.045 -10.943   3.721  1.00  0.00     0.075 C 
ENDBRANCH   3   6
ENDBRANCH   1   2
BRANCH   1  14
HETATM   14  N   UNL     1      41.270 -16.608   2.336  1.00  0.00     0.101 N 
HETATM   15  H   UNL     1      40.611 -17.370   2.153  1.00  0.00     0.317 HD
BRANCH  14  16
HETATM   16  C   UNL     1      42.616 -17.077   1.957  1.00  0.00     0.254 C 
HETATM   17  C   UNL     1      43.599 -15.931   1.677  1.00  0.00     0.048 C 
BRANCH  16  18
HETATM   18  C   UNL     1      43.198 -18.018   3.002  1.00  0.00     0.035 A 
HETATM   19  C   UNL     1      43.583 -17.648   4.304  1.00  0.00     0.045 A 
HETATM   20 CL   UNL     1      43.414 -16.041   4.917  1.00  0.00    -0.084 Cl
HETATM   21  C   UNL     1      44.142 -18.591   5.183  1.00  0.00     0.024 A 
HETATM   22  C   UNL     1      44.336 -19.911   4.782  1.00  0.00     0.005 A 
HETATM   23  C   UNL     1      43.972 -20.294   3.498  1.00  0.00     0.043 A 
HETATM   24  C   UNL     1      43.416 -19.356   2.631  1.00  0.00     0.126 A 
HETATM   25  F   UNL     1      43.092 -19.767   1.395  1.00  0.00    -0.205 F 
ENDBRANCH  16  18
ENDBRANCH  14  16
ENDBRANCH   1  14
TORSDOF 5
ENDMDL
MODEL 5
REMARK VINA RESULT:      -7.3      1.880      1.970
REMARK  5 active torsions:
REMARK  status: ('A' for Active; 'I' for Inactive)
REMARK    1  A    between atoms: C_8  and  N_9 
REMARK       I    between atoms: N_9  and  C_10 
REMARK    2  A    between atoms: C_10  and  C_11 
REMARK    3  A    between atoms: C_11  and  N_12 
REMARK    4  A    between atoms: N_12  and  C_13 
REMARK    5  A    between atoms: C_13  and  C_14 
ROOT
HETATM    1  C   UNL     1      41.021 -16.069   4.531  1.00  0.00     0.372 C 
ENDROOT
BRANCH   1   2
HETATM    2  C   UNL     1      41.118 -14.552   4.305  1.00  0.00     0.250 C 
HETATM    3  N   UNL     1      41.565 -14.247   3.037  1.00  0.00    -0.322 N 
HETATM    4  H   UNL     1      41.856 -15.054   2.489  1.00  0.00     0.169 HD
HETATM    5  O   UNL     1      40.771 -13.769   5.181  1.00  0.00    -0.271 OA
BRANCH   3   6
HETATM    6  C   UNL     1      41.702 -12.999   2.457  1.00  0.00     0.085 A 
HETATM    7  C   UNL     1      40.931 -12.617   1.375  1.00  0.00     0.052 A 
HETATM    8  C   UNL     1      39.877 -13.315   0.602  1.00  0.00     0.072 C 
HETATM    9  N   UNL     1      41.321 -11.346   1.067  1.00  0.00    -0.280 N 
HETATM   10  H   UNL     1      40.974 -10.746   0.327  1.00  0.00     0.189 HD
HETATM   11  N   UNL     1      42.278 -10.866   1.865  1.00  0.00    -0.177 NA
HETATM   12  C   UNL     1      42.522 -11.864   2.729  1.00  0.00     0.079 A 
HETATM   13  C   UNL     1      43.540 -11.636   3.785  1.00  0.00     0.075 C 
ENDBRANCH   3   6
ENDBRANCH   1   2
BRANCH   1  14
HETATM   14  N   UNL     1      41.956 -16.498   5.598  1.00  0.00     0.101 N 
HETATM   15  H   UNL     1      41.637 -17.415   5.922  1.00  0.00     0.317 HD
BRANCH  14  16
HETATM   16  C   UNL     1      43.337 -16.652   5.101  1.00  0.00     0.254 C 
HETATM   17  C   UNL     1      44.401 -16.323   6.157  1.00  0.00     0.048 C 
BRANCH  16  18
HETATM   18  C   UNL     1      43.577 -18.045   4.536  1.00  0.00     0.035 A 
HETATM   19  C   UNL     1      43.596 -18.375   3.168  1.00  0.00     0.045 A 
HETATM   20 CL   UNL     1      43.373 -17.208   1.913  1.00  0.00    -0.084 Cl
HETATM   21  C   UNL     1      43.794 -19.702   2.752  1.00  0.00     0.024 A 
HETATM   22  C   UNL     1      43.969 -20.722   3.684  1.00  0.00     0.005 A 
HETATM   23  C   UNL     1      43.944 -20.419   5.039  1.00  0.00     0.043 A 
HETATM   24  C   UNL     1      43.750 -19.101   5.447  1.00  0.00     0.126 A 
HETATM   25  F   UNL     1      43.719 -18.857   6.766  1.00  0.00    -0.205 F 
ENDBRANCH  16  18
ENDBRANCH  14  16
ENDBRANCH   1  14
TORSDOF 5
ENDMDL
MODEL 6
REMARK VINA RESULT:      -7.3      2.169      2.304
REMARK  5 active torsions:
REMARK  status: ('A' for Active; 'I' for Inactive)
REMARK    1  A    between atoms: C_8  and  N_9 
REMARK       I    between atoms: N_9  and  C_10 
REMARK    2  A    between atoms: C_10  and  C_11 
REMARK    3  A    between atoms: C_11  and  N_12 
REMARK    4  A    between atoms: N_12  and  C_13 
REMARK    5  A    between atoms: C_13  and  C_14 
ROOT
HETATM    1  C   UNL     1      42.109 -15.608   6.969  1.00  0.00     0.372 C 
ENDROOT
BRANCH   1   2
HETATM    2  C   UNL     1      41.701 -14.435   6.064  1.00  0.00     0.250 C 
HETATM    3  N   UNL     1      42.715 -13.511   5.928  1.00  0.00    -0.322 N 
HETATM    4  H   UNL     1      43.526 -13.688   6.518  1.00  0.00     0.169 HD
HETATM    5  O   UNL     1      40.603 -14.420   5.521  1.00  0.00    -0.271 OA
BRANCH   3   6
HETATM    6  C   UNL     1      42.737 -12.376   5.138  1.00  0.00     0.085 A 
HETATM    7  C   UNL     1      42.961 -12.450   3.776  1.00  0.00     0.052 A 
HETATM    8  C   UNL     1      43.218 -13.590   2.865  1.00  0.00     0.072 C 
HETATM    9  N   UNL     1      42.914 -11.165   3.318  1.00  0.00    -0.280 N 
HETATM   10  H   UNL     1      43.036 -10.833   2.368  1.00  0.00     0.189 HD
HETATM   11  N   UNL     1      42.669 -10.261   4.271  1.00  0.00    -0.177 NA
HETATM   12  C   UNL     1      42.553 -10.986   5.394  1.00  0.00     0.079 A 
HETATM   13  C   UNL     1      42.248 -10.267   6.657  1.00  0.00     0.075 C 
ENDBRANCH   3   6
ENDBRANCH   1   2
BRANCH   1  14
HETATM   14  N   UNL     1      42.229 -16.857   6.180  1.00  0.00     0.101 N 
HETATM   15  H   UNL     1      41.431 -16.882   5.539  1.00  0.00     0.317 HD
BRANCH  14  16
HETATM   16  C   UNL     1      43.460 -16.886   5.366  1.00  0.00     0.254 C 
HETATM   17  C   UNL     1      44.725 -16.552   6.170  1.00  0.00     0.048 C 
BRANCH  16  18
HETATM   18  C   UNL     1      43.631 -18.221   4.655  1.00  0.00     0.035 A 
HETATM   19  C   UNL     1      43.631 -18.404   3.260  1.00  0.00     0.045 A 
HETATM   20 CL   UNL     1      43.462 -17.101   2.137  1.00  0.00    -0.084 Cl
HETATM   21  C   UNL     1      43.764 -19.687   2.704  1.00  0.00     0.024 A 
HETATM   22  C   UNL     1      43.891 -20.808   3.522  1.00  0.00     0.005 A 
HETATM   23  C   UNL     1      43.884 -20.650   4.901  1.00  0.00     0.043 A 
HETATM   24  C   UNL     1      43.754 -19.375   5.448  1.00  0.00     0.126 A 
HETATM   25  F   UNL     1      43.738 -19.270   6.786  1.00  0.00    -0.205 F 
ENDBRANCH  16  18
ENDBRANCH  14  16
ENDBRANCH   1  14
TORSDOF 5
ENDMDL
MODEL 7
REMARK VINA RESULT:      -7.3      4.349      5.447
REMARK  5 active torsions:
REMARK  status: ('A' for Active; 'I' for Inactive)
REMARK    1  A    between atoms: C_8  and  N_9 
REMARK       I    between atoms: N_9  and  C_10 
REMARK    2  A    between atoms: C_10  and  C_11 
REMARK    3  A    between atoms: C_11  and  N_12 
REMARK    4  A    between atoms: N_12  and  C_13 
REMARK    5  A    between atoms: C_13  and  C_14 
ROOT
HETATM    1  C   UNL     1      43.211 -13.819   7.161  1.00  0.00     0.372 C 
ENDROOT
BRANCH   1   2
HETATM    2  C   UNL     1      43.785 -12.420   6.890  1.00  0.00     0.250 C 
HETATM    3  N   UNL     1      43.704 -11.604   7.999  1.00  0.00    -0.322 N 
HETATM    4  H   UNL     1      43.192 -12.009   8.780  1.00  0.00     0.169 HD
HETATM    5  O   UNL     1      44.287 -12.152   5.805  1.00  0.00    -0.271 OA
BRANCH   3   6
HETATM    6  C   UNL     1      44.184 -10.316   8.150  1.00  0.00     0.085 A 
HETATM    7  C   UNL     1      43.351  -9.272   8.507  1.00  0.00     0.052 A 
HETATM    8  C   UNL     1      41.899  -9.204   8.791  1.00  0.00     0.072 C 
HETATM    9  N   UNL     1      44.145  -8.163   8.566  1.00  0.00    -0.280 N 
HETATM   10  H   UNL     1      43.878  -7.213   8.796  1.00  0.00     0.189 HD
HETATM   11  N   UNL     1      45.429  -8.402   8.285  1.00  0.00    -0.177 NA
HETATM   12  C   UNL     1      45.474  -9.720   8.031  1.00  0.00     0.079 A 
HETATM   13  C   UNL     1      46.791 -10.320   7.703  1.00  0.00     0.075 C 
ENDBRANCH   3   6
ENDBRANCH   1   2
BRANCH   1  14
HETATM   14  N   UNL     1      43.968 -14.847   6.408  1.00  0.00     0.101 N 
HETATM   15  H   UNL     1      44.833 -15.020   6.929  1.00  0.00     0.317 HD
BRANCH  14  16
HETATM   16  C   UNL     1      43.235 -16.125   6.318  1.00  0.00     0.254 C 
HETATM   17  C   UNL     1      41.753 -15.999   6.697  1.00  0.00     0.048 C 
BRANCH  16  18
HETATM   18  C   UNL     1      43.368 -16.752   4.938  1.00  0.00     0.035 A 
HETATM   19  C   UNL     1      43.111 -16.098   3.720  1.00  0.00     0.045 A 
HETATM   20 CL   UNL     1      42.627 -14.441   3.622  1.00  0.00    -0.084 Cl
HETATM   21  C   UNL     1      43.233 -16.780   2.498  1.00  0.00     0.024 A 
HETATM   22  C   UNL     1      43.603 -18.122   2.466  1.00  0.00     0.005 A 
HETATM   23  C   UNL     1      43.852 -18.790   3.657  1.00  0.00     0.043 A 
HETATM   24  C   UNL     1      43.732 -18.108   4.867  1.00  0.00     0.126 A 
HETATM   25  F   UNL     1      43.967 -18.796   5.995  1.00  0.00    -0.205 F 
ENDBRANCH  16  18
ENDBRANCH  14  16
ENDBRANCH   1  14
TORSDOF 5
ENDMDL
MODEL 8
REMARK VINA RESULT:      -7.1      2.690      4.709
REMARK  5 active torsions:
REMARK  status: ('A' for Active; 'I' for Inactive)
REMARK    1  A    between atoms: C_8  and  N_9 
REMARK       I    between atoms: N_9  and  C_10 
REMARK    2  A    between atoms: C_10  and  C_11 
REMARK    3  A    between atoms: C_11  and  N_12 
REMARK    4  A    between atoms: N_12  and  C_13 
REMARK    5  A    between atoms: C_13  and  C_14 
ROOT
HETATM    1  C   UNL     1      39.748 -12.882   3.668  1.00  0.00     0.372 C 
ENDROOT
BRANCH   1   2
HETATM    2  C   UNL     1      40.347 -12.755   5.077  1.00  0.00     0.250 C 
HETATM    3  N   UNL     1      41.652 -12.310   5.046  1.00  0.00    -0.322 N 
HETATM    4  H   UNL     1      42.046 -12.233   4.110  1.00  0.00     0.169 HD
HETATM    5  O   UNL     1      39.665 -12.991   6.067  1.00  0.00    -0.271 OA
BRANCH   3   6
HETATM    6  C   UNL     1      42.477 -12.007   6.113  1.00  0.00     0.085 A 
HETATM    7  C   UNL     1      42.435 -10.771   6.731  1.00  0.00     0.052 A 
HETATM    8  C   UNL     1      41.622  -9.557   6.483  1.00  0.00     0.072 C 
HETATM    9  N   UNL     1      43.365 -10.818   7.728  1.00  0.00    -0.280 N 
HETATM   10  H   UNL     1      43.612 -10.091   8.389  1.00  0.00     0.189 HD
HETATM   11  N   UNL     1      44.004 -11.988   7.815  1.00  0.00    -0.177 NA
HETATM   12  C   UNL     1      43.470 -12.733   6.835  1.00  0.00     0.079 A 
HETATM   13  C   UNL     1      43.956 -14.126   6.677  1.00  0.00     0.075 C 
ENDBRANCH   3   6
ENDBRANCH   1   2
BRANCH   1  14
HETATM   14  N   UNL     1      40.596 -13.748   2.817  1.00  0.00     0.101 N 
HETATM   15  H   UNL     1      41.565 -13.603   3.117  1.00  0.00     0.317 HD
BRANCH  14  16
HETATM   16  C   UNL     1      40.283 -15.180   2.990  1.00  0.00     0.254 C 
HETATM   17  C   UNL     1      39.878 -15.873   1.682  1.00  0.00     0.048 C 
BRANCH  16  18
HETATM   18  C   UNL     1      41.434 -15.932   3.644  1.00  0.00     0.035 A 
HETATM   19  C   UNL     1      42.648 -16.262   3.015  1.00  0.00     0.045 A 
HETATM   20 CL   UNL     1      43.019 -15.821   1.386  1.00  0.00    -0.084 Cl
HETATM   21  C   UNL     1      43.636 -16.990   3.699  1.00  0.00     0.024 A 
HETATM   22  C   UNL     1      43.432 -17.408   5.013  1.00  0.00     0.005 A 
HETATM   23  C   UNL     1      42.236 -17.100   5.648  1.00  0.00     0.043 A 
HETATM   24  C   UNL     1      41.260 -16.376   4.966  1.00  0.00     0.126 A 
HETATM   25  F   UNL     1      40.114 -16.114   5.613  1.00  0.00    -0.205 F 
ENDBRANCH  16  18
ENDBRANCH  14  16
ENDBRANCH   1  14
TORSDOF 5
ENDMDL
MODEL 9
REMARK VINA RESULT:      -7.0      2.884      3.504
REMARK  5 active torsions:
REMARK  status: ('A' for Active; 'I' for Inactive)
REMARK    1  A    between atoms: C_8  and  N_9 
REMARK       I    between atoms: N_9  and  C_10 
REMARK    2  A    between atoms: C_10  and  C_11 
REMARK    3  A    between atoms: C_11  and  N_12 
REMARK    4  A    between atoms: N_12  and  C_13 
REMARK    5  A    between atoms: C_13  and  C_14 
ROOT
HETATM    1  C   UNL     1      42.674 -13.043   3.282  1.00  0.00     0.372 C 
ENDROOT
BRANCH   1   2
HETATM    2  C   UNL     1      41.783 -12.252   2.312  1.00  0.00     0.250 C 
HETATM    3  N   UNL     1      40.674 -12.972   1.924  1.00  0.00    -0.322 N 
HETATM    4  H   UNL     1      40.666 -13.937   2.249  1.00  0.00     0.169 HD
HETATM    5  O   UNL     1      42.066 -11.099   2.007  1.00  0.00    -0.271 OA
BRANCH   3   6
HETATM    6  C   UNL     1      39.622 -12.559   1.127  1.00  0.00     0.085 A 
HETATM    7  C   UNL     1      39.362 -13.158  -0.092  1.00  0.00     0.052 A 
HETATM    8  C   UNL     1      40.026 -14.259  -0.828  1.00  0.00     0.072 C 
HETATM    9  N   UNL     1      38.271 -12.514  -0.599  1.00  0.00    -0.280 N 
HETATM   10  H   UNL     1      37.796 -12.683  -1.479  1.00  0.00     0.189 HD
HETATM   11  N   UNL     1      37.795 -11.550   0.193  1.00  0.00    -0.177 NA
HETATM   12  C   UNL     1      38.608 -11.566   1.261  1.00  0.00     0.079 A 
HETATM   13  C   UNL     1      38.329 -10.611   2.362  1.00  0.00     0.075 C 
ENDBRANCH   3   6
ENDBRANCH   1   2
BRANCH   1  14
HETATM   14  N   UNL     1      42.706 -14.477   2.909  1.00  0.00     0.101 N 
HETATM   15  H   UNL     1      43.637 -14.663   2.524  1.00  0.00     0.317 HD
BRANCH  14  16
HETATM   16  C   UNL     1      42.516 -15.361   4.075  1.00  0.00     0.254 C 
HETATM   17  C   UNL     1      41.058 -15.433   4.548  1.00  0.00     0.048 C 
BRANCH  16  18
HETATM   18  C   UNL     1      43.047 -16.762   3.809  1.00  0.00     0.035 A 
HETATM   19  C   UNL     1      44.001 -17.432   4.597  1.00  0.00     0.045 A 
HETATM   20 CL   UNL     1      44.694 -16.749   6.025  1.00  0.00    -0.084 Cl
HETATM   21  C   UNL     1      44.450 -18.716   4.244  1.00  0.00     0.024 A 
HETATM   22  C   UNL     1      43.967 -19.350   3.102  1.00  0.00     0.005 A 
HETATM   23  C   UNL     1      43.032 -18.703   2.306  1.00  0.00     0.043 A 
HETATM   24  C   UNL     1      42.588 -17.430   2.661  1.00  0.00     0.126 A 
HETATM   25  F   UNL     1      41.695 -16.836   1.855  1.00  0.00    -0.205 F 
ENDBRANCH  16  18
ENDBRANCH  14  16
ENDBRANCH   1  14
TORSDOF 5
ENDMDL
MODEL 10
REMARK VINA RESULT:      -7.0      3.583      4.858
REMARK  5 active torsions:
REMARK  status: ('A' for Active; 'I' for Inactive)
REMARK    1  A    between atoms: C_8  and  N_9 
REMARK       I    between atoms: N_9  and  C_10 
REMARK    2  A    between atoms: C_10  and  C_11 
REMARK    3  A    between atoms: C_11  and  N_12 
REMARK    4  A    between atoms: N_12  and  C_13 
REMARK    5  A    between atoms: C_13  and  C_14 
ROOT
HETATM    1  C   UNL     1      41.021 -15.127   1.121  1.00  0.00     0.372 C 
ENDROOT
BRANCH   1   2
HETATM    2  C   UNL     1      40.581 -13.935   0.257  1.00  0.00     0.250 C 
HETATM    3  N   UNL     1      39.383 -14.174  -0.382  1.00  0.00    -0.322 N 
HETATM    4  H   UNL     1      39.030 -15.122  -0.271  1.00  0.00     0.169 HD
HETATM    5  O   UNL     1      41.247 -12.907   0.232  1.00  0.00    -0.271 OA
BRANCH   3   6
HETATM    6  C   UNL     1      38.650 -13.309  -1.173  1.00  0.00     0.085 A 
HETATM    7  C   UNL     1      38.260 -13.657  -2.454  1.00  0.00     0.052 A 
HETATM    8  C   UNL     1      38.475 -14.875  -3.268  1.00  0.00     0.072 C 
HETATM    9  N   UNL     1      37.563 -12.587  -2.936  1.00  0.00    -0.280 N 
HETATM   10  H   UNL     1      37.126 -12.482  -3.845  1.00  0.00     0.189 HD
HETATM   11  N   UNL     1      37.460 -11.575  -2.071  1.00  0.00    -0.177 NA
HETATM   12  C   UNL     1      38.117 -12.000  -0.981  1.00  0.00     0.079 A 
HETATM   13  C   UNL     1      38.167 -11.099   0.197  1.00  0.00     0.075 C 
ENDBRANCH   3   6
ENDBRANCH   1   2
BRANCH   1  14
HETATM   14  N   UNL     1      41.979 -14.691   2.163  1.00  0.00     0.101 N 
HETATM   15  H   UNL     1      42.063 -13.673   2.082  1.00  0.00     0.317 HD
BRANCH  14  16
HETATM   16  C   UNL     1      41.499 -14.994   3.525  1.00  0.00     0.254 C 
HETATM   17  C   UNL     1      40.287 -15.936   3.542  1.00  0.00     0.048 C 
BRANCH  16  18
HETATM   18  C   UNL     1      42.610 -15.559   4.399  1.00  0.00     0.035 A 
HETATM   19  C   UNL     1      43.317 -16.749   4.146  1.00  0.00     0.045 A 
HETATM   20 CL   UNL     1      43.034 -17.737   2.757  1.00  0.00    -0.084 Cl
HETATM   21  C   UNL     1      44.305 -17.200   5.037  1.00  0.00     0.024 A 
HETATM   22  C   UNL     1      44.600 -16.485   6.195  1.00  0.00     0.005 A 
HETATM   23  C   UNL     1      43.906 -15.314   6.469  1.00  0.00     0.043 A 
HETATM   24  C   UNL     1      42.929 -14.868   5.581  1.00  0.00     0.126 A 
HETATM   25  F   UNL     1      42.273 -13.739   5.892  1.00  0.00    -0.205 F 
ENDBRANCH  16  18
ENDBRANCH  14  16
ENDBRANCH   1  14
TORSDOF 5
ENDMDL
