MODEL 1
REMARK VINA RESULT:      -9.3      0.000      0.000
REMARK  7 active torsions:
REMARK  status: ('A' for Active; 'I' for Inactive)
REMARK    1  A    between atoms: C_8  and  C_9 
REMARK    2  A    between atoms: C_9  and  C_10 
REMARK    3  A    between atoms: C_10  and  N_11 
REMARK    4  A    between atoms: C_10  and  C_19 
REMARK       I    between atoms: N_11  and  C_12 
REMARK    5  A    between atoms: C_12  and  C_13 
REMARK       I    between atoms: C_19  and  N_20 
REMARK    6  A    between atoms: N_20  and  N_21 
REMARK       I    between atoms: N_21  and  C_22 
REMARK       I    between atoms: C_22  and  N_23 
REMARK    7  A    between atoms: N_23  and  C_24 
ROOT
HETATM    1  C   UNL     1      43.647 -12.392   6.053  1.00  0.00     0.183 C 
ENDROOT
BRANCH   1   2
HETATM    2  C   UNL     1      42.593 -13.516   6.083  1.00  0.00     0.076 C 
BRANCH   2   3
HETATM    3  C   UNL     1      43.141 -14.858   5.696  1.00  0.00    -0.028 A 
HETATM    4  C   UNL     1      42.949 -15.530   4.445  1.00  0.00    -0.002 A 
HETATM    5  C   UNL     1      42.265 -15.213   3.254  1.00  0.00     0.014 A 
HETATM    6  C   UNL     1      43.623 -16.750   4.520  1.00  0.00     0.042 A 
HETATM    7  C   UNL     1      42.275 -16.122   2.189  1.00  0.00     0.001 A 
HETATM    8  C   UNL     1      42.954 -17.333   2.297  1.00  0.00     0.002 A 
HETATM    9  C   UNL     1      43.642 -17.671   3.466  1.00  0.00     0.030 A 
HETATM   10  N   UNL     1      44.213 -16.812   5.760  1.00  0.00    -0.365 N 
HETATM   11  H   UNL     1      44.780 -17.582   6.085  1.00  0.00     0.165 HD
HETATM   12  C   UNL     1      43.931 -15.680   6.476  1.00  0.00     0.096 A 
ENDBRANCH   2   3
ENDBRANCH   1   2
BRANCH   1  13
HETATM   13  N   UNL     1      43.416 -11.396   7.107  1.00  0.00    -0.343 N 
HETATM   14  C   UNL     1      44.420 -10.949   7.937  1.00  0.00     0.259 C 
HETATM   15  O   UNL     1      45.602 -11.143   7.647  1.00  0.00    -0.267 OA
HETATM   16  H   UNL     1      42.472 -11.315   7.473  1.00  0.00     0.163 HD
BRANCH  14  17
HETATM   17  C   UNL     1      43.998 -10.238   9.134  1.00  0.00     0.072 A 
HETATM   18  S   UNL     1      42.493  -9.419   9.230  1.00  0.00    -0.097 SA
HETATM   19  C   UNL     1      42.794  -8.902  10.831  1.00  0.00     0.050 A 
HETATM   20  C   UNL     1      44.009  -9.349  11.297  1.00  0.00     0.009 A 
HETATM   21  C   UNL     1      44.703 -10.119  10.319  1.00  0.00     0.025 A 
ENDBRANCH  14  17
ENDBRANCH   1  13
BRANCH   1  22
HETATM   22  C   UNL     1      43.660 -11.764   4.640  1.00  0.00     0.259 C 
HETATM   23  N   UNL     1      42.409 -11.540   4.079  1.00  0.00    -0.264 N 
HETATM   24  H   UNL     1      41.615 -11.506   4.726  1.00  0.00     0.190 HD
HETATM   25  O   UNL     1      44.689 -11.353   4.098  1.00  0.00    -0.269 OA
BRANCH  23  26
HETATM   26  N   UNL     1      42.390 -10.653   2.988  1.00  0.00    -0.249 N 
HETATM   27  C   UNL     1      41.842 -10.941   1.760  1.00  0.00     0.339 C 
HETATM   28  N   UNL     1      41.040 -12.055   1.740  1.00  0.00    -0.308 N 
HETATM   29  O   UNL     1      42.079 -10.191   0.818  1.00  0.00    -0.245 OA
HETATM   30  H   UNL     1      41.051 -12.595   2.593  1.00  0.00     0.170 HD
HETATM   31  H   UNL     1      43.109  -9.929   2.988  1.00  0.00     0.192 HD
BRANCH  28  32
HETATM   32  C   UNL     1      40.256 -12.531   0.671  1.00  0.00     0.036 A 
HETATM   33  C   UNL     1      40.537 -13.704  -0.037  1.00  0.00     0.031 A 
HETATM   34  C   UNL     1      39.729 -14.105  -1.107  1.00  0.00     0.026 A 
HETATM   35  C   UNL     1      38.633 -13.332  -1.475  1.00  0.00     0.034 A 
HETATM   36 CL   UNL     1      37.647 -13.818  -2.798  1.00  0.00    -0.084 Cl
HETATM   37  C   UNL     1      38.336 -12.163  -0.779  1.00  0.00     0.026 A 
HETATM   38  C   UNL     1      39.145 -11.765   0.293  1.00  0.00     0.031 A 
ENDBRANCH  28  32
ENDBRANCH  23  26
ENDBRANCH   1  22
TORSDOF 7
ENDMDL
MODEL 2
REMARK VINA RESULT:      -9.2      3.925      8.203
REMARK  7 active torsions:
REMARK  status: ('A' for Active; 'I' for Inactive)
REMARK    1  A    between atoms: C_8  and  C_9 
REMARK    2  A    between atoms: C_9  and  C_10 
REMARK    3  A    between atoms: C_10  and  N_11 
REMARK    4  A    between atoms: C_10  and  C_19 
REMARK       I    between atoms: N_11  and  C_12 
REMARK    5  A    between atoms: C_12  and  C_13 
REMARK       I    between atoms: C_19  and  N_20 
REMARK    6  A    between atoms: N_20  and  N_21 
REMARK       I    between atoms: N_21  and  C_22 
REMARK       I    between atoms: C_22  and  N_23 
REMARK    7  A    between atoms: N_23  and  C_24 
ROOT
HETATM    1  C   UNL     1      41.139 -14.954   2.026  1.00  0.00     0.183 C 
ENDROOT
BRANCH   1   2
HETATM    2  C   UNL     1      42.608 -15.398   1.889  1.00  0.00     0.076 C 
BRANCH   2   3
HETATM    3  C   UNL     1      43.089 -16.230   3.041  1.00  0.00    -0.028 A 
HETATM    4  C   UNL     1      43.311 -17.646   3.038  1.00  0.00    -0.002 A 
HETATM    5  C   UNL     1      43.183 -18.659   2.065  1.00  0.00     0.014 A 
HETATM    6  C   UNL     1      43.746 -18.003   4.315  1.00  0.00     0.042 A 
HETATM    7  C   UNL     1      43.487 -19.983   2.403  1.00  0.00     0.001 A 
HETATM    8  C   UNL     1      43.915 -20.306   3.688  1.00  0.00     0.002 A 
HETATM    9  C   UNL     1      44.053 -19.321   4.670  1.00  0.00     0.030 A 
HETATM   10  N   UNL     1      43.801 -16.850   5.061  1.00  0.00    -0.365 N 
HETATM   11  H   UNL     1      44.097 -16.807   6.026  1.00  0.00     0.165 HD
HETATM   12  C   UNL     1      43.409 -15.777   4.306  1.00  0.00     0.096 A 
ENDBRANCH   2   3
ENDBRANCH   1   2
BRANCH   1  13
HETATM   13  N   UNL     1      40.432 -14.991   0.739  1.00  0.00    -0.343 N 
HETATM   14  C   UNL     1      40.430 -13.928  -0.136  1.00  0.00     0.259 C 
HETATM   15  O   UNL     1      41.251 -13.018  -0.014  1.00  0.00    -0.267 OA
HETATM   16  H   UNL     1      39.648 -15.632   0.656  1.00  0.00     0.163 HD
BRANCH  14  17
HETATM   17  C   UNL     1      39.430 -13.965  -1.193  1.00  0.00     0.072 A 
HETATM   18  S   UNL     1      38.284 -12.707  -1.412  1.00  0.00    -0.097 SA
HETATM   19  C   UNL     1      37.560 -13.499  -2.742  1.00  0.00     0.050 A 
HETATM   20  C   UNL     1      38.178 -14.695  -3.028  1.00  0.00     0.009 A 
HETATM   21  C   UNL     1      39.256 -14.963  -2.135  1.00  0.00     0.025 A 
ENDBRANCH  14  17
ENDBRANCH   1  13
BRANCH   1  22
HETATM   22  C   UNL     1      41.104 -13.553   2.678  1.00  0.00     0.259 C 
HETATM   23  N   UNL     1      42.280 -12.821   2.573  1.00  0.00    -0.264 N 
HETATM   24  H   UNL     1      42.936 -13.108   1.839  1.00  0.00     0.190 HD
HETATM   25  O   UNL     1      40.074 -13.049   3.133  1.00  0.00    -0.269 OA
BRANCH  23  26
HETATM   26  N   UNL     1      42.155 -11.442   2.821  1.00  0.00    -0.249 N 
HETATM   27  C   UNL     1      42.510 -10.827   3.998  1.00  0.00     0.339 C 
HETATM   28  N   UNL     1      43.280 -11.597   4.834  1.00  0.00    -0.308 N 
HETATM   29  O   UNL     1      42.150  -9.670   4.191  1.00  0.00    -0.245 OA
HETATM   30  H   UNL     1      43.384 -12.558   4.542  1.00  0.00     0.170 HD
HETATM   31  H   UNL     1      41.458 -10.949   2.262  1.00  0.00     0.192 HD
BRANCH  28  32
HETATM   32  C   UNL     1      43.888 -11.209   6.043  1.00  0.00     0.036 A 
HETATM   33  C   UNL     1      45.267 -11.258   6.271  1.00  0.00     0.031 A 
HETATM   34  C   UNL     1      45.803 -10.880   7.508  1.00  0.00     0.026 A 
HETATM   35  C   UNL     1      44.958 -10.452   8.526  1.00  0.00     0.034 A 
HETATM   36 CL   UNL     1      45.613 -10.000  10.051  1.00  0.00    -0.084 Cl
HETATM   37  C   UNL     1      43.582 -10.394   8.316  1.00  0.00     0.026 A 
HETATM   38  C   UNL     1      43.050 -10.770   7.077  1.00  0.00     0.031 A 
ENDBRANCH  28  32
ENDBRANCH  23  26
ENDBRANCH   1  22
TORSDOF 7
ENDMDL
MODEL 3
REMARK VINA RESULT:      -9.0      4.260      8.174
REMARK  7 active torsions:
REMARK  status: ('A' for Active; 'I' for Inactive)
REMARK    1  A    between atoms: C_8  and  C_9 
REMARK    2  A    between atoms: C_9  and  C_10 
REMARK    3  A    between atoms: C_10  and  N_11 
REMARK    4  A    between atoms: C_10  and  C_19 
REMARK       I    between atoms: N_11  and  C_12 
REMARK    5  A    between atoms: C_12  and  C_13 
REMARK       I    between atoms: C_19  and  N_20 
REMARK    6  A    between atoms: N_20  and  N_21 
REMARK       I    between atoms: N_21  and  C_22 
REMARK       I    between atoms: C_22  and  N_23 
REMARK    7  A    between atoms: N_23  and  C_24 
ROOT
HETATM    1  C   UNL     1      41.291 -15.500   2.599  1.00  0.00     0.183 C 
ENDROOT
BRANCH   1   2
HETATM    2  C   UNL     1      42.831 -15.534   2.612  1.00  0.00     0.076 C 
BRANCH   2   3
HETATM    3  C   UNL     1      43.397 -16.575   3.532  1.00  0.00    -0.028 A 
HETATM    4  C   UNL     1      43.492 -17.981   3.275  1.00  0.00    -0.002 A 
HETATM    5  C   UNL     1      43.140 -18.808   2.188  1.00  0.00     0.014 A 
HETATM    6  C   UNL     1      44.071 -18.573   4.399  1.00  0.00     0.042 A 
HETATM    7  C   UNL     1      43.373 -20.186   2.265  1.00  0.00     0.001 A 
HETATM    8  C   UNL     1      43.949 -20.746   3.403  1.00  0.00     0.002 A 
HETATM    9  C   UNL     1      44.310 -19.949   4.493  1.00  0.00     0.030 A 
HETATM   10  N   UNL     1      44.332 -17.566   5.298  1.00  0.00    -0.365 N 
HETATM   11  H   UNL     1      44.764 -17.703   6.200  1.00  0.00     0.165 HD
HETATM   12  C   UNL     1      43.931 -16.360   4.788  1.00  0.00     0.096 A 
ENDBRANCH   2   3
ENDBRANCH   1   2
BRANCH   1  13
HETATM   13  N   UNL     1      40.768 -14.749   1.450  1.00  0.00    -0.343 N 
HETATM   14  C   UNL     1      39.984 -15.331   0.479  1.00  0.00     0.259 C 
HETATM   15  O   UNL     1      39.448 -16.422   0.681  1.00  0.00    -0.267 OA
HETATM   16  H   UNL     1      41.279 -13.919   1.166  1.00  0.00     0.163 HD
BRANCH  14  17
HETATM   17  C   UNL     1      39.824 -14.579  -0.757  1.00  0.00     0.072 A 
HETATM   18  S   UNL     1      40.576 -13.057  -1.005  1.00  0.00    -0.097 SA
HETATM   19  C   UNL     1      39.904 -12.899  -2.569  1.00  0.00     0.050 A 
HETATM   20  C   UNL     1      39.129 -13.985  -2.909  1.00  0.00     0.009 A 
HETATM   21  C   UNL     1      39.083 -14.953  -1.864  1.00  0.00     0.025 A 
ENDBRANCH  14  17
ENDBRANCH   1  13
BRANCH   1  22
HETATM   22  C   UNL     1      40.797 -14.932   3.950  1.00  0.00     0.259 C 
HETATM   23  N   UNL     1      40.470 -13.582   3.941  1.00  0.00    -0.264 N 
HETATM   24  H   UNL     1      40.281 -13.161   3.025  1.00  0.00     0.190 HD
HETATM   25  O   UNL     1      40.565 -15.641   4.931  1.00  0.00    -0.269 OA
BRANCH  23  26
HETATM   26  N   UNL     1      39.687 -13.145   5.024  1.00  0.00    -0.249 N 
HETATM   27  C   UNL     1      40.138 -12.324   6.030  1.00  0.00     0.339 C 
HETATM   28  N   UNL     1      41.334 -11.704   5.767  1.00  0.00    -0.308 N 
HETATM   29  O   UNL     1      39.449 -12.192   7.037  1.00  0.00    -0.245 OA
HETATM   30  H   UNL     1      41.795 -12.021   4.927  1.00  0.00     0.170 HD
HETATM   31  H   UNL     1      38.888 -13.733   5.263  1.00  0.00     0.192 HD
BRANCH  28  32
HETATM   32  C   UNL     1      41.986 -10.727   6.545  1.00  0.00     0.036 A 
HETATM   33  C   UNL     1      41.496  -9.431   6.736  1.00  0.00     0.031 A 
HETATM   34  C   UNL     1      42.209  -8.502   7.502  1.00  0.00     0.026 A 
HETATM   35  C   UNL     1      43.420  -8.866   8.081  1.00  0.00     0.034 A 
HETATM   36 CL   UNL     1      44.304  -7.721   9.012  1.00  0.00    -0.084 Cl
HETATM   37  C   UNL     1      43.921 -10.154   7.904  1.00  0.00     0.026 A 
HETATM   38  C   UNL     1      43.204 -11.082   7.139  1.00  0.00     0.031 A 
ENDBRANCH  28  32
ENDBRANCH  23  26
ENDBRANCH   1  22
TORSDOF 7
ENDMDL
MODEL 4
REMARK VINA RESULT:      -8.9      4.277      8.747
REMARK  7 active torsions:
REMARK  status: ('A' for Active; 'I' for Inactive)
REMARK    1  A    between atoms: C_8  and  C_9 
REMARK    2  A    between atoms: C_9  and  C_10 
REMARK    3  A    between atoms: C_10  and  N_11 
REMARK    4  A    between atoms: C_10  and  C_19 
REMARK       I    between atoms: N_11  and  C_12 
REMARK    5  A    between atoms: C_12  and  C_13 
REMARK       I    between atoms: C_19  and  N_20 
REMARK    6  A    between atoms: N_20  and  N_21 
REMARK       I    between atoms: N_21  and  C_22 
REMARK       I    between atoms: C_22  and  N_23 
REMARK    7  A    between atoms: N_23  and  C_24 
ROOT
HETATM    1  C   UNL     1      42.151 -12.935   5.801  1.00  0.00     0.183 C 
ENDROOT
BRANCH   1   2
HETATM    2  C   UNL     1      43.488 -13.697   5.874  1.00  0.00     0.076 C 
BRANCH   2   3
HETATM    3  C   UNL     1      43.372 -15.047   6.517  1.00  0.00    -0.028 A 
HETATM    4  C   UNL     1      43.580 -16.315   5.885  1.00  0.00    -0.002 A 
HETATM    5  C   UNL     1      43.937 -16.717   4.581  1.00  0.00     0.014 A 
HETATM    6  C   UNL     1      43.359 -17.302   6.846  1.00  0.00     0.042 A 
HETATM    7  C   UNL     1      44.055 -18.080   4.286  1.00  0.00     0.001 A 
HETATM    8  C   UNL     1      43.824 -19.040   5.268  1.00  0.00     0.002 A 
HETATM    9  C   UNL     1      43.472 -18.670   6.568  1.00  0.00     0.030 A 
HETATM   10  N   UNL     1      43.044 -16.661   8.020  1.00  0.00    -0.365 N 
HETATM   11  H   UNL     1      42.847 -17.130   8.893  1.00  0.00     0.165 HD
HETATM   12  C   UNL     1      43.049 -15.304   7.836  1.00  0.00     0.096 A 
ENDBRANCH   2   3
ENDBRANCH   1   2
BRANCH   1  13
HETATM   13  N   UNL     1      41.525 -13.049   4.478  1.00  0.00    -0.343 N 
HETATM   14  C   UNL     1      40.733 -14.118   4.122  1.00  0.00     0.259 C 
HETATM   15  O   UNL     1      40.280 -14.873   4.984  1.00  0.00    -0.267 OA
HETATM   16  H   UNL     1      41.966 -12.553   3.710  1.00  0.00     0.163 HD
BRANCH  14  17
HETATM   17  C   UNL     1      40.464 -14.277   2.701  1.00  0.00     0.072 A 
HETATM   18  S   UNL     1      40.345 -12.937   1.637  1.00  0.00    -0.097 SA
HETATM   19  C   UNL     1      40.030 -13.941   0.290  1.00  0.00     0.050 A 
HETATM   20  C   UNL     1      40.025 -15.274   0.632  1.00  0.00     0.009 A 
HETATM   21  C   UNL     1      40.276 -15.468   2.021  1.00  0.00     0.025 A 
ENDBRANCH  14  17
ENDBRANCH   1  13
BRANCH   1  22
HETATM   22  C   UNL     1      42.396 -11.465   6.213  1.00  0.00     0.259 C 
HETATM   23  N   UNL     1      43.019 -11.289   7.443  1.00  0.00    -0.264 N 
HETATM   24  H   UNL     1      43.532 -12.095   7.816  1.00  0.00     0.190 HD
HETATM   25  O   UNL     1      42.193 -10.513   5.456  1.00  0.00    -0.269 OA
BRANCH  23  26
HETATM   26  N   UNL     1      43.573 -10.016   7.660  1.00  0.00    -0.249 N 
HETATM   27  C   UNL     1      43.363  -9.256   8.787  1.00  0.00     0.339 C 
HETATM   28  N   UNL     1      42.806  -9.940   9.839  1.00  0.00    -0.308 N 
HETATM   29  O   UNL     1      43.703  -8.077   8.775  1.00  0.00    -0.245 OA
HETATM   30  H   UNL     1      42.504 -10.878   9.618  1.00  0.00     0.170 HD
HETATM   31  H   UNL     1      43.836  -9.494   6.823  1.00  0.00     0.192 HD
BRANCH  28  32
HETATM   32  C   UNL     1      42.581  -9.469  11.147  1.00  0.00     0.036 A 
HETATM   33  C   UNL     1      43.471  -8.642  11.840  1.00  0.00     0.031 A 
HETATM   34  C   UNL     1      43.196  -8.231  13.149  1.00  0.00     0.026 A 
HETATM   35  C   UNL     1      42.026  -8.651  13.774  1.00  0.00     0.034 A 
HETATM   36 CL   UNL     1      41.693  -8.158  15.389  1.00  0.00    -0.084 Cl
HETATM   37  C   UNL     1      41.127  -9.472  13.099  1.00  0.00     0.026 A 
HETATM   38  C   UNL     1      41.404  -9.879  11.787  1.00  0.00     0.031 A 
ENDBRANCH  28  32
ENDBRANCH  23  26
ENDBRANCH   1  22
TORSDOF 7
ENDMDL
MODEL 5
REMARK VINA RESULT:      -8.8      3.984      8.470
REMARK  7 active torsions:
REMARK  status: ('A' for Active; 'I' for Inactive)
REMARK    1  A    between atoms: C_8  and  C_9 
REMARK    2  A    between atoms: C_9  and  C_10 
REMARK    3  A    between atoms: C_10  and  N_11 
REMARK    4  A    between atoms: C_10  and  C_19 
REMARK       I    between atoms: N_11  and  C_12 
REMARK    5  A    between atoms: C_12  and  C_13 
REMARK       I    between atoms: C_19  and  N_20 
REMARK    6  A    between atoms: N_20  and  N_21 
REMARK       I    between atoms: N_21  and  C_22 
REMARK       I    between atoms: C_22  and  N_23 
REMARK    7  A    between atoms: N_23  and  C_24 
ROOT
HETATM    1  C   UNL     1      41.203 -13.482   5.137  1.00  0.00     0.183 C 
ENDROOT
BRANCH   1   2
HETATM    2  C   UNL     1      40.981 -14.766   5.959  1.00  0.00     0.076 C 
BRANCH   2   3
HETATM    3  C   UNL     1      42.150 -15.706   5.924  1.00  0.00    -0.028 A 
HETATM    4  C   UNL     1      42.545 -16.537   4.825  1.00  0.00    -0.002 A 
HETATM    5  C   UNL     1      42.048 -16.746   3.522  1.00  0.00     0.014 A 
HETATM    6  C   UNL     1      43.674 -17.252   5.228  1.00  0.00     0.042 A 
HETATM    7  C   UNL     1      42.688 -17.659   2.677  1.00  0.00     0.001 A 
HETATM    8  C   UNL     1      43.811 -18.360   3.111  1.00  0.00     0.002 A 
HETATM    9  C   UNL     1      44.326 -18.169   4.396  1.00  0.00     0.030 A 
HETATM   10  N   UNL     1      43.963 -16.862   6.514  1.00  0.00    -0.365 N 
HETATM   11  H   UNL     1      44.742 -17.210   7.055  1.00  0.00     0.165 HD
HETATM   12  C   UNL     1      43.054 -15.933   6.944  1.00  0.00     0.096 A 
ENDBRANCH   2   3
ENDBRANCH   1   2
BRANCH   1  13
HETATM   13  N   UNL     1      41.066 -13.723   3.695  1.00  0.00    -0.343 N 
HETATM   14  C   UNL     1      40.625 -12.755   2.821  1.00  0.00     0.259 C 
HETATM   15  O   UNL     1      40.605 -11.570   3.160  1.00  0.00    -0.267 OA
HETATM   16  H   UNL     1      40.932 -14.683   3.394  1.00  0.00     0.163 HD
BRANCH  14  17
HETATM   17  C   UNL     1      40.214 -13.215   1.503  1.00  0.00     0.072 A 
HETATM   18  S   UNL     1      39.345 -12.215   0.414  1.00  0.00    -0.097 SA
HETATM   19  C   UNL     1      39.274 -13.443  -0.772  1.00  0.00     0.050 A 
HETATM   20  C   UNL     1      39.907 -14.594  -0.361  1.00  0.00     0.009 A 
HETATM   21  C   UNL     1      40.449 -14.462   0.951  1.00  0.00     0.025 A 
ENDBRANCH  14  17
ENDBRANCH   1  13
BRANCH   1  22
HETATM   22  C   UNL     1      42.582 -12.889   5.509  1.00  0.00     0.259 C 
HETATM   23  N   UNL     1      42.653 -12.294   6.763  1.00  0.00    -0.264 N 
HETATM   24  H   UNL     1      41.929 -12.560   7.439  1.00  0.00     0.190 HD
HETATM   25  O   UNL     1      43.590 -13.051   4.818  1.00  0.00    -0.269 OA
BRANCH  23  26
HETATM   26  N   UNL     1      43.953 -12.089   7.258  1.00  0.00    -0.249 N 
HETATM   27  C   UNL     1      44.271 -11.215   8.271  1.00  0.00     0.339 C 
HETATM   28  N   UNL     1      43.194 -10.755   8.987  1.00  0.00    -0.308 N 
HETATM   29  O   UNL     1      45.452 -10.946   8.468  1.00  0.00    -0.245 OA
HETATM   30  H   UNL     1      42.296 -11.013   8.606  1.00  0.00     0.170 HD
HETATM   31  H   UNL     1      44.715 -12.316   6.619  1.00  0.00     0.192 HD
BRANCH  28  32
HETATM   32  C   UNL     1      43.211  -9.950  10.142  1.00  0.00     0.036 A 
HETATM   33  C   UNL     1      43.204 -10.459  11.445  1.00  0.00     0.031 A 
HETATM   34  C   UNL     1      43.196  -9.599  12.549  1.00  0.00     0.026 A 
HETATM   35  C   UNL     1      43.191  -8.222  12.355  1.00  0.00     0.034 A 
HETATM   36 CL   UNL     1      43.167  -7.164  13.711  1.00  0.00    -0.084 Cl
HETATM   37  C   UNL     1      43.201  -7.698  11.065  1.00  0.00     0.026 A 
HETATM   38  C   UNL     1      43.213  -8.560   9.961  1.00  0.00     0.031 A 
ENDBRANCH  28  32
ENDBRANCH  23  26
ENDBRANCH   1  22
TORSDOF 7
ENDMDL
MODEL 6
REMARK VINA RESULT:      -8.8      1.930      2.385
REMARK  7 active torsions:
REMARK  status: ('A' for Active; 'I' for Inactive)
REMARK    1  A    between atoms: C_8  and  C_9 
REMARK    2  A    between atoms: C_9  and  C_10 
REMARK    3  A    between atoms: C_10  and  N_11 
REMARK    4  A    between atoms: C_10  and  C_19 
REMARK       I    between atoms: N_11  and  C_12 
REMARK    5  A    between atoms: C_12  and  C_13 
REMARK       I    between atoms: C_19  and  N_20 
REMARK    6  A    between atoms: N_20  and  N_21 
REMARK       I    between atoms: N_21  and  C_22 
REMARK       I    between atoms: C_22  and  N_23 
REMARK    7  A    between atoms: N_23  and  C_24 
ROOT
HETATM    1  C   UNL     1      42.333 -13.465   6.302  1.00  0.00     0.183 C 
ENDROOT
BRANCH   1   2
HETATM    2  C   UNL     1      42.382 -14.873   6.926  1.00  0.00     0.076 C 
BRANCH   2   3
HETATM    3  C   UNL     1      43.117 -15.873   6.083  1.00  0.00    -0.028 A 
HETATM    4  C   UNL     1      42.736 -16.338   4.782  1.00  0.00    -0.002 A 
HETATM    5  C   UNL     1      41.663 -16.055   3.913  1.00  0.00     0.014 A 
HETATM    6  C   UNL     1      43.695 -17.266   4.374  1.00  0.00     0.042 A 
HETATM    7  C   UNL     1      41.585 -16.707   2.677  1.00  0.00     0.001 A 
HETATM    8  C   UNL     1      42.556 -17.631   2.300  1.00  0.00     0.002 A 
HETATM    9  C   UNL     1      43.631 -17.928   3.142  1.00  0.00     0.030 A 
HETATM   10  N   UNL     1      44.629 -17.352   5.377  1.00  0.00    -0.365 N 
HETATM   11  H   UNL     1      45.449 -17.942   5.346  1.00  0.00     0.165 HD
HETATM   12  C   UNL     1      44.294 -16.519   6.411  1.00  0.00     0.096 A 
ENDBRANCH   2   3
ENDBRANCH   1   2
BRANCH   1  13
HETATM   13  N   UNL     1      42.950 -12.456   7.173  1.00  0.00    -0.343 N 
HETATM   14  C   UNL     1      43.742 -11.441   6.685  1.00  0.00     0.259 C 
HETATM   15  O   UNL     1      43.731 -11.163   5.485  1.00  0.00    -0.267 OA
HETATM   16  H   UNL     1      43.109 -12.713   8.142  1.00  0.00     0.163 HD
BRANCH  14  17
HETATM   17  C   UNL     1      44.555 -10.732   7.662  1.00  0.00     0.072 A 
HETATM   18  S   UNL     1      44.001 -10.411   9.254  1.00  0.00    -0.097 SA
HETATM   19  C   UNL     1      45.448  -9.605   9.673  1.00  0.00     0.050 A 
HETATM   20  C   UNL     1      46.347  -9.584   8.631  1.00  0.00     0.009 A 
HETATM   21  C   UNL     1      45.832 -10.234   7.472  1.00  0.00     0.025 A 
ENDBRANCH  14  17
ENDBRANCH   1  13
BRANCH   1  22
HETATM   22  C   UNL     1      40.863 -13.128   5.958  1.00  0.00     0.259 C 
HETATM   23  N   UNL     1      40.680 -11.971   5.210  1.00  0.00    -0.264 N 
HETATM   24  H   UNL     1      41.496 -11.622   4.697  1.00  0.00     0.190 HD
HETATM   25  O   UNL     1      39.926 -13.893   6.195  1.00  0.00    -0.269 OA
BRANCH  23  26
HETATM   26  N   UNL     1      39.426 -11.851   4.586  1.00  0.00    -0.249 N 
HETATM   27  C   UNL     1      39.219 -11.938   3.230  1.00  0.00     0.339 C 
HETATM   28  N   UNL     1      40.280 -12.447   2.523  1.00  0.00    -0.308 N 
HETATM   29  O   UNL     1      38.133 -11.593   2.775  1.00  0.00    -0.245 OA
HETATM   30  H   UNL     1      41.122 -12.577   3.065  1.00  0.00     0.170 HD
HETATM   31  H   UNL     1      38.717 -11.331   5.104  1.00  0.00     0.192 HD
BRANCH  28  32
HETATM   32  C   UNL     1      40.328 -12.762   1.151  1.00  0.00     0.036 A 
HETATM   33  C   UNL     1      40.756 -11.869   0.163  1.00  0.00     0.031 A 
HETATM   34  C   UNL     1      40.753 -12.240  -1.187  1.00  0.00     0.026 A 
HETATM   35  C   UNL     1      40.320 -13.509  -1.555  1.00  0.00     0.034 A 
HETATM   36 CL   UNL     1      40.305 -13.962  -3.215  1.00  0.00    -0.084 Cl
HETATM   37  C   UNL     1      39.895 -14.412  -0.584  1.00  0.00     0.026 A 
HETATM   38  C   UNL     1      39.900 -14.039   0.766  1.00  0.00     0.031 A 
ENDBRANCH  28  32
ENDBRANCH  23  26
ENDBRANCH   1  22
TORSDOF 7
ENDMDL
MODEL 7
REMARK VINA RESULT:      -8.8      4.314      7.976
REMARK  7 active torsions:
REMARK  status: ('A' for Active; 'I' for Inactive)
REMARK    1  A    between atoms: C_8  and  C_9 
REMARK    2  A    between atoms: C_9  and  C_10 
REMARK    3  A    between atoms: C_10  and  N_11 
REMARK    4  A    between atoms: C_10  and  C_19 
REMARK       I    between atoms: N_11  and  C_12 
REMARK    5  A    between atoms: C_12  and  C_13 
REMARK       I    between atoms: C_19  and  N_20 
REMARK    6  A    between atoms: N_20  and  N_21 
REMARK       I    between atoms: N_21  and  C_22 
REMARK       I    between atoms: C_22  and  N_23 
REMARK    7  A    between atoms: N_23  and  C_24 
ROOT
HETATM    1  C   UNL     1      41.093 -14.401   4.406  1.00  0.00     0.183 C 
ENDROOT
BRANCH   1   2
HETATM    2  C   UNL     1      42.609 -14.342   4.670  1.00  0.00     0.076 C 
BRANCH   2   3
HETATM    3  C   UNL     1      43.208 -15.675   5.009  1.00  0.00    -0.028 A 
HETATM    4  C   UNL     1      43.307 -16.812   4.143  1.00  0.00    -0.002 A 
HETATM    5  C   UNL     1      42.932 -17.067   2.807  1.00  0.00     0.014 A 
HETATM    6  C   UNL     1      43.921 -17.836   4.867  1.00  0.00     0.042 A 
HETATM    7  C   UNL     1      43.178 -18.326   2.249  1.00  0.00     0.001 A 
HETATM    8  C   UNL     1      43.789 -19.328   3.000  1.00  0.00     0.002 A 
HETATM    9  C   UNL     1      44.173 -19.101   4.324  1.00  0.00     0.030 A 
HETATM   10  N   UNL     1      44.198 -17.338   6.117  1.00  0.00    -0.365 N 
HETATM   11  H   UNL     1      44.656 -17.859   6.852  1.00  0.00     0.165 HD
HETATM   12  C   UNL     1      43.774 -16.039   6.215  1.00  0.00     0.096 A 
ENDBRANCH   2   3
ENDBRANCH   1   2
BRANCH   1  13
HETATM   13  N   UNL     1      40.746 -13.882   3.077  1.00  0.00    -0.343 N 
HETATM   14  C   UNL     1      40.154 -14.661   2.108  1.00  0.00     0.259 C 
HETATM   15  O   UNL     1      39.628 -15.735   2.406  1.00  0.00    -0.267 OA
HETATM   16  H   UNL     1      41.269 -13.080   2.739  1.00  0.00     0.163 HD
BRANCH  14  17
HETATM   17  C   UNL     1      40.179 -14.134   0.752  1.00  0.00     0.072 A 
HETATM   18  S   UNL     1      40.760 -12.560   0.393  1.00  0.00    -0.097 SA
HETATM   19  C   UNL     1      40.444 -12.745  -1.276  1.00  0.00     0.050 A 
HETATM   20  C   UNL     1      39.915 -13.982  -1.566  1.00  0.00     0.009 A 
HETATM   21  C   UNL     1      39.763 -14.783  -0.397  1.00  0.00     0.025 A 
ENDBRANCH  14  17
ENDBRANCH   1  13
BRANCH   1  22
HETATM   22  C   UNL     1      40.363 -13.647   5.543  1.00  0.00     0.259 C 
HETATM   23  N   UNL     1      40.246 -12.274   5.364  1.00  0.00    -0.264 N 
HETATM   24  H   UNL     1      40.354 -11.926   4.406  1.00  0.00     0.190 HD
HETATM   25  O   UNL     1      39.795 -14.223   6.473  1.00  0.00    -0.269 OA
BRANCH  23  26
HETATM   26  N   UNL     1      39.289 -11.641   6.176  1.00  0.00    -0.249 N 
HETATM   27  C   UNL     1      39.579 -10.696   7.131  1.00  0.00     0.339 C 
HETATM   28  N   UNL     1      40.848 -10.178   7.052  1.00  0.00    -0.308 N 
HETATM   29  O   UNL     1      38.706 -10.380   7.933  1.00  0.00    -0.245 OA
HETATM   30  H   UNL     1      41.451 -10.641   6.388  1.00  0.00     0.170 HD
HETATM   31  H   UNL     1      38.414 -12.149   6.314  1.00  0.00     0.192 HD
BRANCH  28  32
HETATM   32  C   UNL     1      41.395  -9.124   7.809  1.00  0.00     0.036 A 
HETATM   33  C   UNL     1      41.929  -9.283   9.092  1.00  0.00     0.031 A 
HETATM   34  C   UNL     1      42.433  -8.185   9.799  1.00  0.00     0.026 A 
HETATM   35  C   UNL     1      42.403  -6.919   9.225  1.00  0.00     0.034 A 
HETATM   36 CL   UNL     1      43.011  -5.567  10.098  1.00  0.00    -0.084 Cl
HETATM   37  C   UNL     1      41.878  -6.743   7.947  1.00  0.00     0.026 A 
HETATM   38  C   UNL     1      41.377  -7.843   7.241  1.00  0.00     0.031 A 
ENDBRANCH  28  32
ENDBRANCH  23  26
ENDBRANCH   1  22
TORSDOF 7
ENDMDL
MODEL 8
REMARK VINA RESULT:      -8.7      3.963      8.362
REMARK  7 active torsions:
REMARK  status: ('A' for Active; 'I' for Inactive)
REMARK    1  A    between atoms: C_8  and  C_9 
REMARK    2  A    between atoms: C_9  and  C_10 
REMARK    3  A    between atoms: C_10  and  N_11 
REMARK    4  A    between atoms: C_10  and  C_19 
REMARK       I    between atoms: N_11  and  C_12 
REMARK    5  A    between atoms: C_12  and  C_13 
REMARK       I    between atoms: C_19  and  N_20 
REMARK    6  A    between atoms: N_20  and  N_21 
REMARK       I    between atoms: N_21  and  C_22 
REMARK       I    between atoms: C_22  and  N_23 
REMARK    7  A    between atoms: N_23  and  C_24 
ROOT
HETATM    1  C   UNL     1      40.714 -14.884   1.881  1.00  0.00     0.183 C 
ENDROOT
BRANCH   1   2
HETATM    2  C   UNL     1      42.239 -15.052   1.741  1.00  0.00     0.076 C 
BRANCH   2   3
HETATM    3  C   UNL     1      42.803 -16.132   2.616  1.00  0.00    -0.028 A 
HETATM    4  C   UNL     1      43.185 -16.005   3.991  1.00  0.00    -0.002 A 
HETATM    5  C   UNL     1      43.164 -14.947   4.923  1.00  0.00     0.014 A 
HETATM    6  C   UNL     1      43.666 -17.247   4.407  1.00  0.00     0.042 A 
HETATM    7  C   UNL     1      43.626 -15.165   6.226  1.00  0.00     0.001 A 
HETATM    8  C   UNL     1      44.103 -16.416   6.609  1.00  0.00     0.002 A 
HETATM    9  C   UNL     1      44.132 -17.483   5.706  1.00  0.00     0.030 A 
HETATM   10  N   UNL     1      43.568 -18.100   3.334  1.00  0.00    -0.365 N 
HETATM   11  H   UNL     1      43.833 -19.074   3.352  1.00  0.00     0.165 HD
HETATM   12  C   UNL     1      43.050 -17.441   2.251  1.00  0.00     0.096 A 
ENDBRANCH   2   3
ENDBRANCH   1   2
BRANCH   1  13
HETATM   13  N   UNL     1      40.037 -14.911   0.579  1.00  0.00    -0.343 N 
HETATM   14  C   UNL     1      40.135 -13.881  -0.329  1.00  0.00     0.259 C 
HETATM   15  O   UNL     1      41.020 -13.031  -0.216  1.00  0.00    -0.267 OA
HETATM   16  H   UNL     1      39.209 -15.494   0.497  1.00  0.00     0.163 HD
BRANCH  14  17
HETATM   17  C   UNL     1      39.159 -13.878  -1.409  1.00  0.00     0.072 A 
HETATM   18  S   UNL     1      37.955 -12.665  -1.552  1.00  0.00    -0.097 SA
HETATM   19  C   UNL     1      37.299 -13.378  -2.960  1.00  0.00     0.050 A 
HETATM   20  C   UNL     1      37.985 -14.514  -3.329  1.00  0.00     0.009 A 
HETATM   21  C   UNL     1      39.057 -14.802  -2.435  1.00  0.00     0.025 A 
ENDBRANCH  14  17
ENDBRANCH   1  13
BRANCH   1  22
HETATM   22  C   UNL     1      40.430 -13.582   2.667  1.00  0.00     0.259 C 
HETATM   23  N   UNL     1      41.503 -12.704   2.767  1.00  0.00    -0.264 N 
HETATM   24  H   UNL     1      42.258 -12.822   2.083  1.00  0.00     0.190 HD
HETATM   25  O   UNL     1      39.304 -13.265   3.055  1.00  0.00    -0.269 OA
BRANCH  23  26
HETATM   26  N   UNL     1      41.172 -11.390   3.140  1.00  0.00    -0.249 N 
HETATM   27  C   UNL     1      41.545 -10.798   4.324  1.00  0.00     0.339 C 
HETATM   28  N   UNL     1      42.524 -11.471   5.013  1.00  0.00    -0.308 N 
HETATM   29  O   UNL     1      41.016  -9.740   4.647  1.00  0.00    -0.245 OA
HETATM   30  H   UNL     1      42.759 -12.376   4.633  1.00  0.00     0.170 HD
HETATM   31  H   UNL     1      40.342 -10.995   2.696  1.00  0.00     0.192 HD
BRANCH  28  32
HETATM   32  C   UNL     1      43.188 -11.059   6.184  1.00  0.00     0.036 A 
HETATM   33  C   UNL     1      42.586 -10.299   7.193  1.00  0.00     0.031 A 
HETATM   34  C   UNL     1      43.313  -9.902   8.321  1.00  0.00     0.026 A 
HETATM   35  C   UNL     1      44.651 -10.263   8.444  1.00  0.00     0.034 A 
HETATM   36 CL   UNL     1      45.550  -9.764   9.824  1.00  0.00    -0.084 Cl
HETATM   37  C   UNL     1      45.265 -11.022   7.452  1.00  0.00     0.026 A 
HETATM   38  C   UNL     1      44.534 -11.420   6.325  1.00  0.00     0.031 A 
ENDBRANCH  28  32
ENDBRANCH  23  26
ENDBRANCH   1  22
TORSDOF 7
ENDMDL
MODEL 9
REMARK VINA RESULT:      -8.7      4.665      7.325
REMARK  7 active torsions:
REMARK  status: ('A' for Active; 'I' for Inactive)
REMARK    1  A    between atoms: C_8  and  C_9 
REMARK    2  A    between atoms: C_9  and  C_10 
REMARK    3  A    between atoms: C_10  and  N_11 
REMARK    4  A    between atoms: C_10  and  C_19 
REMARK       I    between atoms: N_11  and  C_12 
REMARK    5  A    between atoms: C_12  and  C_13 
REMARK       I    between atoms: C_19  and  N_20 
REMARK    6  A    between atoms: N_20  and  N_21 
REMARK       I    between atoms: N_21  and  C_22 
REMARK       I    between atoms: C_22  and  N_23 
REMARK    7  A    between atoms: N_23  and  C_24 
ROOT
HETATM    1  C   UNL     1      41.519 -15.627   2.588  1.00  0.00     0.183 C 
ENDROOT
BRANCH   1   2
HETATM    2  C   UNL     1      43.048 -15.661   2.774  1.00  0.00     0.076 C 
BRANCH   2   3
HETATM    3  C   UNL     1      43.516 -16.766   3.674  1.00  0.00    -0.028 A 
HETATM    4  C   UNL     1      43.550 -18.164   3.363  1.00  0.00    -0.002 A 
HETATM    5  C   UNL     1      43.208 -18.927   2.228  1.00  0.00     0.014 A 
HETATM    6  C   UNL     1      44.044 -18.829   4.486  1.00  0.00     0.042 A 
HETATM    7  C   UNL     1      43.365 -20.318   2.257  1.00  0.00     0.001 A 
HETATM    8  C   UNL     1      43.857 -20.951   3.396  1.00  0.00     0.002 A 
HETATM    9  C   UNL     1      44.207 -20.219   4.533  1.00  0.00     0.030 A 
HETATM   10  N   UNL     1      44.313 -17.874   5.438  1.00  0.00    -0.365 N 
HETATM   11  H   UNL     1      44.695 -18.070   6.352  1.00  0.00     0.165 HD
HETATM   12  C   UNL     1      44.000 -16.629   4.961  1.00  0.00     0.096 A 
ENDBRANCH   2   3
ENDBRANCH   1   2
BRANCH   1  13
HETATM   13  N   UNL     1      41.113 -14.663   1.557  1.00  0.00    -0.343 N 
HETATM   14  C   UNL     1      40.260 -14.993   0.528  1.00  0.00     0.259 C 
HETATM   15  O   UNL     1      39.577 -16.017   0.589  1.00  0.00    -0.267 OA
HETATM   16  H   UNL     1      41.736 -13.881   1.380  1.00  0.00     0.163 HD
BRANCH  14  17
HETATM   17  C   UNL     1      40.213 -14.067  -0.593  1.00  0.00     0.072 A 
HETATM   18  S   UNL     1      39.362 -14.423  -2.040  1.00  0.00    -0.097 SA
HETATM   19  C   UNL     1      39.805 -12.935  -2.753  1.00  0.00     0.050 A 
HETATM   20  C   UNL     1      40.579 -12.169  -1.910  1.00  0.00     0.009 A 
HETATM   21  C   UNL     1      40.813 -12.822  -0.665  1.00  0.00     0.025 A 
ENDBRANCH  14  17
ENDBRANCH   1  13
BRANCH   1  22
HETATM   22  C   UNL     1      40.860 -15.340   3.957  1.00  0.00     0.259 C 
HETATM   23  N   UNL     1      40.941 -14.022   4.389  1.00  0.00    -0.264 N 
HETATM   24  H   UNL     1      41.131 -13.315   3.671  1.00  0.00     0.190 HD
HETATM   25  O   UNL     1      40.184 -16.173   4.564  1.00  0.00    -0.269 OA
BRANCH  23  26
HETATM   26  N   UNL     1      40.051 -13.671   5.419  1.00  0.00    -0.249 N 
HETATM   27  C   UNL     1      39.654 -12.385   5.702  1.00  0.00     0.339 C 
HETATM   28  N   UNL     1      39.951 -11.469   4.724  1.00  0.00    -0.308 N 
HETATM   29  O   UNL     1      39.063 -12.169   6.755  1.00  0.00    -0.245 OA
HETATM   30  H   UNL     1      40.532 -11.824   3.978  1.00  0.00     0.170 HD
HETATM   31  H   UNL     1      39.983 -14.331   6.195  1.00  0.00     0.192 HD
BRANCH  28  32
HETATM   32  C   UNL     1      39.574 -10.113   4.673  1.00  0.00     0.036 A 
HETATM   33  C   UNL     1      40.180  -9.108   5.434  1.00  0.00     0.031 A 
HETATM   34  C   UNL     1      39.737  -7.783   5.353  1.00  0.00     0.026 A 
HETATM   35  C   UNL     1      38.681  -7.457   4.509  1.00  0.00     0.034 A 
HETATM   36 CL   UNL     1      38.127  -5.830   4.418  1.00  0.00    -0.084 Cl
HETATM   37  C   UNL     1      38.068  -8.444   3.741  1.00  0.00     0.026 A 
HETATM   38  C   UNL     1      38.515  -9.768   3.822  1.00  0.00     0.031 A 
ENDBRANCH  28  32
ENDBRANCH  23  26
ENDBRANCH   1  22
TORSDOF 7
ENDMDL
MODEL 10
REMARK VINA RESULT:      -8.5      3.779      6.484
REMARK  7 active torsions:
REMARK  status: ('A' for Active; 'I' for Inactive)
REMARK    1  A    between atoms: C_8  and  C_9 
REMARK    2  A    between atoms: C_9  and  C_10 
REMARK    3  A    between atoms: C_10  and  N_11 
REMARK    4  A    between atoms: C_10  and  C_19 
REMARK       I    between atoms: N_11  and  C_12 
REMARK    5  A    between atoms: C_12  and  C_13 
REMARK       I    between atoms: C_19  and  N_20 
REMARK    6  A    between atoms: N_20  and  N_21 
REMARK       I    between atoms: N_21  and  C_22 
REMARK       I    between atoms: C_22  and  N_23 
REMARK    7  A    between atoms: N_23  and  C_24 
ROOT
HETATM    1  C   UNL     1      41.720 -11.586   5.992  1.00  0.00     0.183 C 
ENDROOT
BRANCH   1   2
HETATM    2  C   UNL     1      42.912 -12.451   6.443  1.00  0.00     0.076 C 
BRANCH   2   3
HETATM    3  C   UNL     1      44.149 -11.655   6.738  1.00  0.00    -0.028 A 
HETATM    4  C   UNL     1      44.449 -10.964   7.957  1.00  0.00    -0.002 A 
HETATM    5  C   UNL     1      43.778 -10.802   9.186  1.00  0.00     0.014 A 
HETATM    6  C   UNL     1      45.693 -10.352   7.794  1.00  0.00     0.042 A 
HETATM    7  C   UNL     1      44.367 -10.036  10.199  1.00  0.00     0.001 A 
HETATM    8  C   UNL     1      45.607  -9.436  10.003  1.00  0.00     0.002 A 
HETATM    9  C   UNL     1      46.295  -9.582   8.796  1.00  0.00     0.030 A 
HETATM   10  N   UNL     1      46.139 -10.669   6.533  1.00  0.00    -0.365 N 
HETATM   11  H   UNL     1      47.024 -10.371   6.148  1.00  0.00     0.165 HD
HETATM   12  C   UNL     1      45.220 -11.454   5.888  1.00  0.00     0.096 A 
ENDBRANCH   2   3
ENDBRANCH   1   2
BRANCH   1  13
HETATM   13  N   UNL     1      41.066 -10.919   7.124  1.00  0.00    -0.343 N 
HETATM   14  C   UNL     1      40.950  -9.550   7.213  1.00  0.00     0.259 C 
HETATM   15  O   UNL     1      41.127  -8.844   6.219  1.00  0.00    -0.267 OA
HETATM   16  H   UNL     1      41.036 -11.422   8.006  1.00  0.00     0.163 HD
BRANCH  14  17
HETATM   17  C   UNL     1      40.598  -9.016   8.520  1.00  0.00     0.072 A 
HETATM   18  S   UNL     1      39.211  -9.544   9.381  1.00  0.00    -0.097 SA
HETATM   19  C   UNL     1      39.528  -8.485  10.685  1.00  0.00     0.050 A 
HETATM   20  C   UNL     1      40.671  -7.746  10.482  1.00  0.00     0.009 A 
HETATM   21  C   UNL     1      41.288  -8.052   9.234  1.00  0.00     0.025 A 
ENDBRANCH  14  17
ENDBRANCH   1  13
BRANCH   1  22
HETATM   22  C   UNL     1      40.743 -12.472   5.184  1.00  0.00     0.259 C 
HETATM   23  N   UNL     1      41.208 -12.886   3.942  1.00  0.00    -0.264 N 
HETATM   24  H   UNL     1      42.222 -12.850   3.796  1.00  0.00     0.190 HD
HETATM   25  O   UNL     1      39.689 -12.907   5.652  1.00  0.00    -0.269 OA
BRANCH  23  26
HETATM   26  N   UNL     1      40.513 -13.966   3.369  1.00  0.00    -0.249 N 
HETATM   27  C   UNL     1      41.004 -15.247   3.276  1.00  0.00     0.339 C 
HETATM   28  N   UNL     1      42.114 -15.490   4.047  1.00  0.00    -0.308 N 
HETATM   29  O   UNL     1      40.418 -16.053   2.560  1.00  0.00    -0.245 OA
HETATM   30  H   UNL     1      42.507 -14.671   4.487  1.00  0.00     0.170 HD
HETATM   31  H   UNL     1      39.792 -13.723   2.689  1.00  0.00     0.192 HD
BRANCH  28  32
HETATM   32  C   UNL     1      42.767 -16.721   4.250  1.00  0.00     0.036 A 
HETATM   33  C   UNL     1      43.308 -17.494   3.218  1.00  0.00     0.031 A 
HETATM   34  C   UNL     1      43.922 -18.722   3.488  1.00  0.00     0.026 A 
HETATM   35  C   UNL     1      43.997 -19.184   4.798  1.00  0.00     0.034 A 
HETATM   36 CL   UNL     1      44.740 -20.700   5.131  1.00  0.00    -0.084 Cl
HETATM   37  C   UNL     1      43.466 -18.426   5.839  1.00  0.00     0.026 A 
HETATM   38  C   UNL     1      42.855 -17.197   5.565  1.00  0.00     0.031 A 
ENDBRANCH  28  32
ENDBRANCH  23  26
ENDBRANCH   1  22
TORSDOF 7
ENDMDL
