MODEL 1
REMARK VINA RESULT:      -8.7      0.000      0.000
REMARK  9 active torsions:
REMARK  status: ('A' for Active; 'I' for Inactive)
REMARK    1  A    between atoms: O_2  and  C_3 
REMARK    2  A    between atoms: C_6  and  C_7 
REMARK    3  A    between atoms: C_13  and  C_14 
REMARK       I    between atoms: C_14  and  N_15 
REMARK    4  A    between atoms: N_15  and  N_16 
REMARK    5  A    between atoms: N_16  and  C_17 
REMARK    6  A    between atoms: C_17  and  N_18 
REMARK    7  A    between atoms: N_18  and  C_19 
REMARK    8  A    between atoms: C_19  and  C_20 
REMARK    9  A    between atoms: C_27  and  C_28 
ROOT
HETATM    1  C   UNL     1      43.246 -14.768   2.506  1.00  0.00     0.118 C 
HETATM    2  N   UNL     1      43.237 -13.887   3.667  1.00  0.00    -0.365 N 
HETATM    3  C   UNL     1      42.088 -13.501   4.272  1.00  0.00     0.138 A 
HETATM    4  N   UNL     1      40.875 -13.706   3.675  1.00  0.00    -0.240 N 
HETATM    5  N   UNL     1      39.847 -13.152   4.340  1.00  0.00    -0.181 NA
HETATM    6  C   UNL     1      40.431 -12.671   5.444  1.00  0.00     0.160 A 
HETATM    7  C   UNL     1      41.832 -12.876   5.477  1.00  0.00     0.098 A 
HETATM    8  C   UNL     1      40.691 -14.366   2.398  1.00  0.00     0.221 C 
HETATM    9  C   UNL     1      42.024 -14.433   1.625  1.00  0.00     0.066 C 
HETATM   10  H   UNL     1      44.126 -13.786   4.164  1.00  0.00     0.161 HD
ENDROOT
BRANCH   7  11
HETATM   11  C   UNL     1      42.829 -12.488   6.458  1.00  0.00     0.275 C 
HETATM   12  N   UNL     1      42.812 -11.204   6.984  1.00  0.00    -0.263 N 
HETATM   13  H   UNL     1      43.470 -11.122   7.756  1.00  0.00     0.190 HD
HETATM   14  O   UNL     1      43.714 -13.260   6.832  1.00  0.00    -0.266 OA
BRANCH  12  15
HETATM   15  N   UNL     1      41.615 -10.484   7.176  1.00  0.00    -0.274 N 
HETATM   16  H   UNL     1      40.844 -10.685   6.547  1.00  0.00     0.189 HD
BRANCH  15  17
HETATM   17  C   UNL     1      41.537  -9.447   8.072  1.00  0.00     0.186 C 
HETATM   18  S   UNL     1      41.065  -7.884   7.714  1.00  0.00    -0.040 SA
BRANCH  17  19
HETATM   19  N   UNL     1      41.844  -9.734   9.368  1.00  0.00    -0.360 N 
HETATM   20  H   UNL     1      41.307 -10.500   9.759  1.00  0.00     0.162 HD
BRANCH  19  21
HETATM   21  C   UNL     1      42.963  -9.251  10.156  1.00  0.00     0.187 C 
BRANCH  21  22
HETATM   22  C   UNL     1      44.213  -9.376   9.375  1.00  0.00     0.070 A 
HETATM   23  O   UNL     1      44.714 -10.637   9.223  1.00  0.00    -0.325 OA
HETATM   24  C   UNL     1      45.842 -10.525   8.473  1.00  0.00     0.142 A 
HETATM   25  C   UNL     1      46.080  -9.209   8.156  1.00  0.00     0.027 A 
HETATM   26  C   UNL     1      45.028  -8.463   8.740  1.00  0.00     0.036 A 
ENDBRANCH  21  22
ENDBRANCH  19  21
ENDBRANCH  17  19
ENDBRANCH  15  17
ENDBRANCH  12  15
ENDBRANCH   7  11
BRANCH   1  27
HETATM   27  C   UNL     1      43.409 -16.234   2.873  1.00  0.00    -0.035 A 
HETATM   28  C   UNL     1      43.275 -17.269   1.934  1.00  0.00     0.012 A 
HETATM   29  C   UNL     1      43.426 -18.608   2.309  1.00  0.00     0.037 A 
HETATM   30  C   UNL     1      43.712 -18.951   3.627  1.00  0.00     0.068 A 
HETATM   31  C   UNL     1      43.815 -17.941   4.581  1.00  0.00     0.037 A 
HETATM   32  C   UNL     1      43.657 -16.599   4.208  1.00  0.00     0.012 A 
BRANCH  30  33
HETATM   33  O   UNL     1      43.849 -20.292   3.857  1.00  0.00    -0.356 OA
HETATM   34  C   UNL     1      44.370 -20.668   5.126  1.00  0.00     0.210 C 
ENDBRANCH  30  33
ENDBRANCH   1  27
BRANCH   8  35
HETATM   35  C   UNL     1      40.031 -15.713   2.595  1.00  0.00     0.409 C 
HETATM   36  F   UNL     1      40.431 -16.368   3.699  1.00  0.00    -0.169 F 
HETATM   37  F   UNL     1      38.682 -15.611   2.652  1.00  0.00    -0.169 F 
HETATM   38  F   UNL     1      40.298 -16.520   1.533  1.00  0.00    -0.169 F 
ENDBRANCH   8  35
TORSDOF 9
ENDMDL
MODEL 2
REMARK VINA RESULT:      -8.3      2.107      2.776
REMARK  9 active torsions:
REMARK  status: ('A' for Active; 'I' for Inactive)
REMARK    1  A    between atoms: O_2  and  C_3 
REMARK    2  A    between atoms: C_6  and  C_7 
REMARK    3  A    between atoms: C_13  and  C_14 
REMARK       I    between atoms: C_14  and  N_15 
REMARK    4  A    between atoms: N_15  and  N_16 
REMARK    5  A    between atoms: N_16  and  C_17 
REMARK    6  A    between atoms: C_17  and  N_18 
REMARK    7  A    between atoms: N_18  and  C_19 
REMARK    8  A    between atoms: C_19  and  C_20 
REMARK    9  A    between atoms: C_27  and  C_28 
ROOT
HETATM    1  C   UNL     1      42.302 -15.040   2.908  1.00  0.00     0.118 C 
HETATM    2  N   UNL     1      42.958 -13.824   3.372  1.00  0.00    -0.365 N 
HETATM    3  C   UNL     1      42.567 -13.177   4.496  1.00  0.00     0.138 A 
HETATM    4  N   UNL     1      41.382 -13.481   5.108  1.00  0.00    -0.240 N 
HETATM    5  N   UNL     1      41.079 -12.664   6.131  1.00  0.00    -0.181 NA
HETATM    6  C   UNL     1      42.165 -11.886   6.222  1.00  0.00     0.160 A 
HETATM    7  C   UNL     1      43.147 -12.169   5.242  1.00  0.00     0.098 A 
HETATM    8  C   UNL     1      40.470 -14.514   4.659  1.00  0.00     0.221 C 
HETATM    9  C   UNL     1      40.793 -14.931   3.210  1.00  0.00     0.066 C 
HETATM   10  H   UNL     1      43.879 -13.628   2.973  1.00  0.00     0.161 HD
ENDROOT
BRANCH   7  11
HETATM   11  C   UNL     1      44.431 -11.548   4.973  1.00  0.00     0.275 C 
HETATM   12  N   UNL     1      45.123 -10.927   6.003  1.00  0.00    -0.263 N 
HETATM   13  H   UNL     1      46.061 -10.669   5.703  1.00  0.00     0.190 HD
HETATM   14  O   UNL     1      44.928 -11.536   3.845  1.00  0.00    -0.266 OA
BRANCH  12  15
HETATM   15  N   UNL     1      45.055 -11.379   7.337  1.00  0.00    -0.274 N 
HETATM   16  H   UNL     1      45.024 -12.383   7.488  1.00  0.00     0.189 HD
BRANCH  15  17
HETATM   17  C   UNL     1      44.885 -10.506   8.382  1.00  0.00     0.186 C 
HETATM   18  S   UNL     1      45.892  -9.224   8.754  1.00  0.00    -0.040 SA
BRANCH  17  19
HETATM   19  N   UNL     1      43.781 -10.689   9.159  1.00  0.00    -0.360 N 
HETATM   20  H   UNL     1      43.814 -11.524   9.733  1.00  0.00     0.162 HD
BRANCH  19  21
HETATM   21  C   UNL     1      42.707  -9.751   9.431  1.00  0.00     0.187 C 
BRANCH  21  22
HETATM   22  C   UNL     1      42.661  -9.452  10.879  1.00  0.00     0.070 A 
HETATM   23  O   UNL     1      41.614  -9.981  11.578  1.00  0.00    -0.325 OA
HETATM   24  C   UNL     1      41.772  -9.598  12.873  1.00  0.00     0.142 A 
HETATM   25  C   UNL     1      42.896  -8.818  13.010  1.00  0.00     0.027 A 
HETATM   26  C   UNL     1      43.472  -8.721  11.721  1.00  0.00     0.036 A 
ENDBRANCH  21  22
ENDBRANCH  19  21
ENDBRANCH  17  19
ENDBRANCH  15  17
ENDBRANCH  12  15
ENDBRANCH   7  11
BRANCH   1  27
HETATM   27  C   UNL     1      42.982 -16.308   3.401  1.00  0.00    -0.035 A 
HETATM   28  C   UNL     1      42.840 -17.545   2.752  1.00  0.00     0.012 A 
HETATM   29  C   UNL     1      43.475 -18.692   3.238  1.00  0.00     0.037 A 
HETATM   30  C   UNL     1      44.265 -18.638   4.384  1.00  0.00     0.068 A 
HETATM   31  C   UNL     1      44.390 -17.428   5.062  1.00  0.00     0.037 A 
HETATM   32  C   UNL     1      43.748 -16.279   4.580  1.00  0.00     0.012 A 
BRANCH  30  33
HETATM   33  O   UNL     1      44.840 -19.825   4.743  1.00  0.00    -0.356 OA
HETATM   34  C   UNL     1      44.000 -20.763   5.404  1.00  0.00     0.210 C 
ENDBRANCH  30  33
ENDBRANCH   1  27
BRANCH   8  35
HETATM   35  C   UNL     1      40.464 -15.666   5.639  1.00  0.00     0.409 C 
HETATM   36  F   UNL     1      41.624 -15.842   6.296  1.00  0.00    -0.169 F 
HETATM   37  F   UNL     1      39.488 -15.534   6.569  1.00  0.00    -0.169 F 
HETATM   38  F   UNL     1      40.196 -16.829   4.985  1.00  0.00    -0.169 F 
ENDBRANCH   8  35
TORSDOF 9
ENDMDL
MODEL 3
REMARK VINA RESULT:      -8.2      2.964      4.736
REMARK  9 active torsions:
REMARK  status: ('A' for Active; 'I' for Inactive)
REMARK    1  A    between atoms: O_2  and  C_3 
REMARK    2  A    between atoms: C_6  and  C_7 
REMARK    3  A    between atoms: C_13  and  C_14 
REMARK       I    between atoms: C_14  and  N_15 
REMARK    4  A    between atoms: N_15  and  N_16 
REMARK    5  A    between atoms: N_16  and  C_17 
REMARK    6  A    between atoms: C_17  and  N_18 
REMARK    7  A    between atoms: N_18  and  C_19 
REMARK    8  A    between atoms: C_19  and  C_20 
REMARK    9  A    between atoms: C_27  and  C_28 
ROOT
HETATM    1  C   UNL     1      40.251 -14.745   4.623  1.00  0.00     0.118 C 
HETATM    2  N   UNL     1      40.876 -13.654   5.360  1.00  0.00    -0.365 N 
HETATM    3  C   UNL     1      42.163 -13.711   5.779  1.00  0.00     0.138 A 
HETATM    4  N   UNL     1      42.860 -14.887   5.758  1.00  0.00    -0.240 N 
HETATM    5  N   UNL     1      44.076 -14.804   6.324  1.00  0.00    -0.181 NA
HETATM    6  C   UNL     1      44.179 -13.502   6.618  1.00  0.00     0.160 A 
HETATM    7  C   UNL     1      43.024 -12.754   6.281  1.00  0.00     0.098 A 
HETATM    8  C   UNL     1      42.330 -16.145   5.270  1.00  0.00     0.221 C 
HETATM    9  C   UNL     1      40.792 -16.083   5.169  1.00  0.00     0.066 C 
HETATM   10  H   UNL     1      40.399 -12.750   5.320  1.00  0.00     0.161 HD
ENDROOT
BRANCH   7  11
HETATM   11  C   UNL     1      42.715 -11.347   6.459  1.00  0.00     0.275 C 
HETATM   12  N   UNL     1      42.737 -10.794   7.732  1.00  0.00    -0.263 N 
HETATM   13  H   UNL     1      42.644  -9.782   7.688  1.00  0.00     0.190 HD
HETATM   14  O   UNL     1      42.410 -10.619   5.512  1.00  0.00    -0.266 OA
BRANCH  12  15
HETATM   15  N   UNL     1      43.624 -11.242   8.733  1.00  0.00    -0.274 N 
HETATM   16  H   UNL     1      44.004 -12.179   8.634  1.00  0.00     0.189 HD
BRANCH  15  17
HETATM   17  C   UNL     1      43.849 -10.510   9.872  1.00  0.00     0.186 C 
HETATM   18  S   UNL     1      45.198  -9.571  10.175  1.00  0.00    -0.040 SA
BRANCH  17  19
HETATM   19  N   UNL     1      42.868 -10.532  10.818  1.00  0.00    -0.360 N 
HETATM   20  H   UNL     1      42.969 -11.276  11.499  1.00  0.00     0.162 HD
BRANCH  19  21
HETATM   21  C   UNL     1      41.865  -9.521  11.097  1.00  0.00     0.187 C 
BRANCH  21  22
HETATM   22  C   UNL     1      42.150  -8.882  12.400  1.00  0.00     0.070 A 
HETATM   23  O   UNL     1      41.513  -9.405  13.489  1.00  0.00    -0.325 OA
HETATM   24  C   UNL     1      41.924  -8.687  14.568  1.00  0.00     0.142 A 
HETATM   25  C   UNL     1      42.802  -7.701  14.184  1.00  0.00     0.027 A 
HETATM   26  C   UNL     1      42.949  -7.824  12.782  1.00  0.00     0.036 A 
ENDBRANCH  21  22
ENDBRANCH  19  21
ENDBRANCH  17  19
ENDBRANCH  15  17
ENDBRANCH  12  15
ENDBRANCH   7  11
BRANCH   1  27
HETATM   27  C   UNL     1      40.336 -14.568   3.115  1.00  0.00    -0.035 A 
HETATM   28  C   UNL     1      40.830 -13.398   2.517  1.00  0.00     0.012 A 
HETATM   29  C   UNL     1      40.887 -13.268   1.125  1.00  0.00     0.037 A 
HETATM   30  C   UNL     1      40.453 -14.297   0.294  1.00  0.00     0.068 A 
HETATM   31  C   UNL     1      39.926 -15.453   0.868  1.00  0.00     0.037 A 
HETATM   32  C   UNL     1      39.862 -15.582   2.263  1.00  0.00     0.012 A 
BRANCH  30  33
HETATM   33  O   UNL     1      40.577 -14.049  -1.044  1.00  0.00    -0.356 OA
HETATM   34  C   UNL     1      40.556 -12.684  -1.441  1.00  0.00     0.210 C 
ENDBRANCH  30  33
ENDBRANCH   1  27
BRANCH   8  35
HETATM   35  C   UNL     1      43.011 -16.532   3.976  1.00  0.00     0.409 C 
HETATM   36  F   UNL     1      42.265 -17.304   3.167  1.00  0.00    -0.169 F 
HETATM   37  F   UNL     1      43.394 -15.448   3.261  1.00  0.00    -0.169 F 
HETATM   38  F   UNL     1      44.154 -17.222   4.243  1.00  0.00    -0.169 F 
ENDBRANCH   8  35
TORSDOF 9
ENDMDL
MODEL 4
REMARK VINA RESULT:      -8.2      1.236      2.056
REMARK  9 active torsions:
REMARK  status: ('A' for Active; 'I' for Inactive)
REMARK    1  A    between atoms: O_2  and  C_3 
REMARK    2  A    between atoms: C_6  and  C_7 
REMARK    3  A    between atoms: C_13  and  C_14 
REMARK       I    between atoms: C_14  and  N_15 
REMARK    4  A    between atoms: N_15  and  N_16 
REMARK    5  A    between atoms: N_16  and  C_17 
REMARK    6  A    between atoms: C_17  and  N_18 
REMARK    7  A    between atoms: N_18  and  C_19 
REMARK    8  A    between atoms: C_19  and  C_20 
REMARK    9  A    between atoms: C_27  and  C_28 
ROOT
HETATM    1  C   UNL     1      43.325 -14.829   2.574  1.00  0.00     0.118 C 
HETATM    2  N   UNL     1      43.342 -13.953   3.738  1.00  0.00    -0.365 N 
HETATM    3  C   UNL     1      42.205 -13.552   4.357  1.00  0.00     0.138 A 
HETATM    4  N   UNL     1      40.982 -13.737   3.773  1.00  0.00    -0.240 N 
HETATM    5  N   UNL     1      39.970 -13.171   4.452  1.00  0.00    -0.181 NA
HETATM    6  C   UNL     1      40.574 -12.702   5.550  1.00  0.00     0.160 A 
HETATM    7  C   UNL     1      41.972 -12.927   5.567  1.00  0.00     0.098 A 
HETATM    8  C   UNL     1      40.775 -14.390   2.496  1.00  0.00     0.221 C 
HETATM    9  C   UNL     1      42.098 -14.474   1.708  1.00  0.00     0.066 C 
HETATM   10  H   UNL     1      44.237 -13.866   4.225  1.00  0.00     0.161 HD
ENDROOT
BRANCH   7  11
HETATM   11  C   UNL     1      42.986 -12.557   6.538  1.00  0.00     0.275 C 
HETATM   12  N   UNL     1      43.306 -11.219   6.719  1.00  0.00    -0.263 N 
HETATM   13  H   UNL     1      43.920 -11.101   7.523  1.00  0.00     0.190 HD
HETATM   14  O   UNL     1      43.593 -13.399   7.202  1.00  0.00    -0.266 OA
BRANCH  12  15
HETATM   15  N   UNL     1      42.355 -10.189   6.571  1.00  0.00    -0.274 N 
HETATM   16  H   UNL     1      42.256  -9.775   5.649  1.00  0.00     0.189 HD
BRANCH  15  17
HETATM   17  C   UNL     1      41.697  -9.659   7.653  1.00  0.00     0.186 C 
HETATM   18  S   UNL     1      40.206  -8.905   7.612  1.00  0.00    -0.040 SA
BRANCH  17  19
HETATM   19  N   UNL     1      42.306  -9.791   8.865  1.00  0.00    -0.360 N 
HETATM   20  H   UNL     1      42.508 -10.750   9.123  1.00  0.00     0.162 HD
BRANCH  19  21
HETATM   21  C   UNL     1      42.891  -8.754   9.695  1.00  0.00     0.187 C 
BRANCH  21  22
HETATM   22  C   UNL     1      42.589  -9.024  11.117  1.00  0.00     0.070 A 
HETATM   23  O   UNL     1      41.510  -9.821  11.371  1.00  0.00    -0.325 OA
HETATM   24  C   UNL     1      41.424  -9.948  12.722  1.00  0.00     0.142 A 
HETATM   25  C   UNL     1      42.421  -9.229  13.337  1.00  0.00     0.027 A 
HETATM   26  C   UNL     1      43.176  -8.629  12.302  1.00  0.00     0.036 A 
ENDBRANCH  21  22
ENDBRANCH  19  21
ENDBRANCH  17  19
ENDBRANCH  15  17
ENDBRANCH  12  15
ENDBRANCH   7  11
BRANCH   1  27
HETATM   27  C   UNL     1      43.471 -16.299   2.934  1.00  0.00    -0.035 A 
HETATM   28  C   UNL     1      43.761 -16.734   4.238  1.00  0.00     0.012 A 
HETATM   29  C   UNL     1      43.895 -18.094   4.532  1.00  0.00     0.037 A 
HETATM   30  C   UNL     1      43.745 -19.057   3.537  1.00  0.00     0.068 A 
HETATM   31  C   UNL     1      43.492 -18.645   2.231  1.00  0.00     0.037 A 
HETATM   32  C   UNL     1      43.364 -17.281   1.933  1.00  0.00     0.012 A 
BRANCH  30  33
HETATM   33  O   UNL     1      43.886 -20.349   3.960  1.00  0.00    -0.356 OA
HETATM   34  C   UNL     1      44.020 -20.548   5.361  1.00  0.00     0.210 C 
ENDBRANCH  30  33
ENDBRANCH   1  27
BRANCH   8  35
HETATM   35  C   UNL     1      40.098 -15.728   2.697  1.00  0.00     0.409 C 
HETATM   36  F   UNL     1      40.441 -16.357   3.835  1.00  0.00    -0.169 F 
HETATM   37  F   UNL     1      38.748 -15.619   2.686  1.00  0.00    -0.169 F 
HETATM   38  F   UNL     1      40.410 -16.564   1.670  1.00  0.00    -0.169 F 
ENDBRANCH   8  35
TORSDOF 9
ENDMDL
MODEL 5
REMARK VINA RESULT:      -8.1      4.202      9.664
REMARK  9 active torsions:
REMARK  status: ('A' for Active; 'I' for Inactive)
REMARK    1  A    between atoms: O_2  and  C_3 
REMARK    2  A    between atoms: C_6  and  C_7 
REMARK    3  A    between atoms: C_13  and  C_14 
REMARK       I    between atoms: C_14  and  N_15 
REMARK    4  A    between atoms: N_15  and  N_16 
REMARK    5  A    between atoms: N_16  and  C_17 
REMARK    6  A    between atoms: C_17  and  N_18 
REMARK    7  A    between atoms: N_18  and  C_19 
REMARK    8  A    between atoms: C_19  and  C_20 
REMARK    9  A    between atoms: C_27  and  C_28 
ROOT
HETATM    1  C   UNL     1      42.889  -7.958   8.435  1.00  0.00     0.118 C 
HETATM    2  N   UNL     1      42.658  -8.925   7.368  1.00  0.00    -0.365 N 
HETATM    3  C   UNL     1      43.304 -10.114   7.320  1.00  0.00     0.138 A 
HETATM    4  N   UNL     1      44.387 -10.361   8.118  1.00  0.00    -0.240 N 
HETATM    5  N   UNL     1      44.992 -11.533   7.858  1.00  0.00    -0.181 NA
HETATM    6  C   UNL     1      44.195 -12.080   6.932  1.00  0.00     0.160 A 
HETATM    7  C   UNL     1      43.105 -11.254   6.565  1.00  0.00     0.098 A 
HETATM    8  C   UNL     1      44.917  -9.427   9.091  1.00  0.00     0.221 C 
HETATM    9  C   UNL     1      44.380  -8.005   8.827  1.00  0.00     0.066 C 
HETATM   10  H   UNL     1      41.809  -8.790   6.813  1.00  0.00     0.161 HD
ENDROOT
BRANCH   7  11
HETATM   11  C   UNL     1      42.045 -11.451   5.592  1.00  0.00     0.275 C 
HETATM   12  N   UNL     1      41.565 -12.730   5.349  1.00  0.00    -0.263 N 
HETATM   13  H   UNL     1      40.736 -12.698   4.759  1.00  0.00     0.190 HD
HETATM   14  O   UNL     1      41.563 -10.515   4.952  1.00  0.00    -0.266 OA
BRANCH  12  15
HETATM   15  N   UNL     1      41.513 -13.720   6.352  1.00  0.00    -0.274 N 
HETATM   16  H   UNL     1      41.224 -13.428   7.281  1.00  0.00     0.189 HD
BRANCH  15  17
HETATM   17  C   UNL     1      41.978 -14.992   6.129  1.00  0.00     0.186 C 
HETATM   18  S   UNL     1      42.551 -16.038   7.301  1.00  0.00    -0.040 SA
BRANCH  17  19
HETATM   19  N   UNL     1      41.936 -15.443   4.844  1.00  0.00    -0.360 N 
HETATM   20  H   UNL     1      40.999 -15.614   4.497  1.00  0.00     0.162 HD
BRANCH  19  21
HETATM   21  C   UNL     1      43.011 -15.485   3.871  1.00  0.00     0.187 C 
BRANCH  21  22
HETATM   22  C   UNL     1      43.284 -16.887   3.488  1.00  0.00     0.070 A 
HETATM   23  O   UNL     1      44.007 -17.632   4.374  1.00  0.00    -0.325 OA
HETATM   24  C   UNL     1      44.127 -18.876   3.837  1.00  0.00     0.142 A 
HETATM   25  C   UNL     1      43.506 -18.933   2.612  1.00  0.00     0.027 A 
HETATM   26  C   UNL     1      42.960 -17.648   2.383  1.00  0.00     0.036 A 
ENDBRANCH  21  22
ENDBRANCH  19  21
ENDBRANCH  17  19
ENDBRANCH  15  17
ENDBRANCH  12  15
ENDBRANCH   7  11
BRANCH   1  27
HETATM   27  C   UNL     1      41.902  -8.094   9.584  1.00  0.00    -0.035 A 
HETATM   28  C   UNL     1      41.935  -7.259  10.712  1.00  0.00     0.012 A 
HETATM   29  C   UNL     1      41.015  -7.417  11.754  1.00  0.00     0.037 A 
HETATM   30  C   UNL     1      40.041  -8.411  11.700  1.00  0.00     0.068 A 
HETATM   31  C   UNL     1      40.014  -9.272  10.606  1.00  0.00     0.037 A 
HETATM   32  C   UNL     1      40.940  -9.120   9.564  1.00  0.00     0.012 A 
BRANCH  30  33
HETATM   33  O   UNL     1      39.197  -8.448  12.774  1.00  0.00    -0.356 OA
HETATM   34  C   UNL     1      38.519  -7.239  13.092  1.00  0.00     0.210 C 
ENDBRANCH  30  33
ENDBRANCH   1  27
BRANCH   8  35
HETATM   35  C   UNL     1      44.653  -9.928  10.494  1.00  0.00     0.409 C 
HETATM   36  F   UNL     1      44.497  -8.956  11.409  1.00  0.00    -0.169 F 
HETATM   37  F   UNL     1      43.555 -10.718  10.551  1.00  0.00    -0.169 F 
HETATM   38  F   UNL     1      45.690 -10.705  10.911  1.00  0.00    -0.169 F 
ENDBRANCH   8  35
TORSDOF 9
ENDMDL
MODEL 6
REMARK VINA RESULT:      -8.1      4.842      6.616
REMARK  9 active torsions:
REMARK  status: ('A' for Active; 'I' for Inactive)
REMARK    1  A    between atoms: O_2  and  C_3 
REMARK    2  A    between atoms: C_6  and  C_7 
REMARK    3  A    between atoms: C_13  and  C_14 
REMARK       I    between atoms: C_14  and  N_15 
REMARK    4  A    between atoms: N_15  and  N_16 
REMARK    5  A    between atoms: N_16  and  C_17 
REMARK    6  A    between atoms: C_17  and  N_18 
REMARK    7  A    between atoms: N_18  and  C_19 
REMARK    8  A    between atoms: C_19  and  C_20 
REMARK    9  A    between atoms: C_27  and  C_28 
ROOT
HETATM    1  C   UNL     1      40.377 -14.694   3.263  1.00  0.00     0.118 C 
HETATM    2  N   UNL     1      39.914 -14.291   1.940  1.00  0.00    -0.365 N 
HETATM    3  C   UNL     1      40.466 -13.253   1.268  1.00  0.00     0.138 A 
HETATM    4  N   UNL     1      41.305 -12.374   1.896  1.00  0.00    -0.240 N 
HETATM    5  N   UNL     1      41.664 -11.330   1.129  1.00  0.00    -0.181 NA
HETATM    6  C   UNL     1      41.107 -11.624  -0.053  1.00  0.00     0.160 A 
HETATM    7  C   UNL     1      40.361 -12.828  -0.042  1.00  0.00     0.098 A 
HETATM    8  C   UNL     1      41.709 -12.475   3.284  1.00  0.00     0.221 C 
HETATM    9  C   UNL     1      40.772 -13.430   4.053  1.00  0.00     0.066 C 
HETATM   10  H   UNL     1      39.346 -14.974   1.433  1.00  0.00     0.161 HD
ENDROOT
BRANCH   7  11
HETATM   11  C   UNL     1      39.587 -13.479  -1.084  1.00  0.00     0.275 C 
HETATM   12  N   UNL     1      38.202 -13.404  -1.058  1.00  0.00    -0.263 N 
HETATM   13  H   UNL     1      37.804 -13.777  -1.918  1.00  0.00     0.190 HD
HETATM   14  O   UNL     1      40.121 -14.119  -1.991  1.00  0.00    -0.266 OA
BRANCH  12  15
HETATM   15  N   UNL     1      37.516 -12.280  -0.554  1.00  0.00    -0.274 N 
HETATM   16  H   UNL     1      36.944 -12.415   0.274  1.00  0.00     0.189 HD
BRANCH  15  17
HETATM   17  C   UNL     1      37.496 -11.088  -1.234  1.00  0.00     0.186 C 
HETATM   18  S   UNL     1      37.574 -10.913  -2.894  1.00  0.00    -0.040 SA
BRANCH  17  19
HETATM   19  N   UNL     1      37.370  -9.957  -0.483  1.00  0.00    -0.360 N 
HETATM   20  H   UNL     1      36.446  -9.826  -0.088  1.00  0.00     0.162 HD
BRANCH  19  21
HETATM   21  C   UNL     1      38.417  -9.073  -0.007  1.00  0.00     0.187 C 
BRANCH  21  22
HETATM   22  C   UNL     1      38.699  -9.355   1.418  1.00  0.00     0.070 A 
HETATM   23  O   UNL     1      38.132 -10.482   1.940  1.00  0.00    -0.325 OA
HETATM   24  C   UNL     1      38.527 -10.555   3.239  1.00  0.00     0.142 A 
HETATM   25  C   UNL     1      39.324  -9.482   3.561  1.00  0.00     0.027 A 
HETATM   26  C   UNL     1      39.436  -8.704   2.385  1.00  0.00     0.036 A 
ENDBRANCH  21  22
ENDBRANCH  19  21
ENDBRANCH  17  19
ENDBRANCH  15  17
ENDBRANCH  12  15
ENDBRANCH   7  11
BRANCH   1  27
HETATM   27  C   UNL     1      41.425 -15.795   3.215  1.00  0.00    -0.035 A 
HETATM   28  C   UNL     1      41.839 -16.395   2.015  1.00  0.00     0.012 A 
HETATM   29  C   UNL     1      42.802 -17.409   2.010  1.00  0.00     0.037 A 
HETATM   30  C   UNL     1      43.376 -17.853   3.199  1.00  0.00     0.068 A 
HETATM   31  C   UNL     1      42.953 -17.295   4.403  1.00  0.00     0.037 A 
HETATM   32  C   UNL     1      41.983 -16.283   4.410  1.00  0.00     0.012 A 
BRANCH  30  33
HETATM   33  O   UNL     1      44.313 -18.837   3.053  1.00  0.00    -0.356 OA
HETATM   34  C   UNL     1      43.823 -20.153   2.830  1.00  0.00     0.210 C 
ENDBRANCH  30  33
ENDBRANCH   1  27
BRANCH   8  35
HETATM   35  C   UNL     1      43.171 -12.848   3.377  1.00  0.00     0.409 C 
HETATM   36  F   UNL     1      43.601 -13.656   2.393  1.00  0.00    -0.169 F 
HETATM   37  F   UNL     1      43.973 -11.756   3.382  1.00  0.00    -0.169 F 
HETATM   38  F   UNL     1      43.412 -13.489   4.553  1.00  0.00    -0.169 F 
ENDBRANCH   8  35
TORSDOF 9
ENDMDL
MODEL 7
REMARK VINA RESULT:      -8.0      5.264      7.712
REMARK  9 active torsions:
REMARK  status: ('A' for Active; 'I' for Inactive)
REMARK    1  A    between atoms: O_2  and  C_3 
REMARK    2  A    between atoms: C_6  and  C_7 
REMARK    3  A    between atoms: C_13  and  C_14 
REMARK       I    between atoms: C_14  and  N_15 
REMARK    4  A    between atoms: N_15  and  N_16 
REMARK    5  A    between atoms: N_16  and  C_17 
REMARK    6  A    between atoms: C_17  and  N_18 
REMARK    7  A    between atoms: N_18  and  C_19 
REMARK    8  A    between atoms: C_19  and  C_20 
REMARK    9  A    between atoms: C_27  and  C_28 
ROOT
HETATM    1  C   UNL     1      40.208 -14.648   3.253  1.00  0.00     0.118 C 
HETATM    2  N   UNL     1      39.719 -14.374   1.907  1.00  0.00    -0.365 N 
HETATM    3  C   UNL     1      40.234 -13.384   1.140  1.00  0.00     0.138 A 
HETATM    4  N   UNL     1      41.055 -12.432   1.676  1.00  0.00    -0.240 N 
HETATM    5  N   UNL     1      41.375 -11.450   0.816  1.00  0.00    -0.181 NA
HETATM    6  C   UNL     1      40.813 -11.861  -0.327  1.00  0.00     0.160 A 
HETATM    7  C   UNL     1      40.101 -13.078  -0.201  1.00  0.00     0.098 A 
HETATM    8  C   UNL     1      41.478 -12.400   3.062  1.00  0.00     0.221 C 
HETATM    9  C   UNL     1      40.577 -13.309   3.924  1.00  0.00     0.066 C 
HETATM   10  H   UNL     1      39.164 -15.114   1.470  1.00  0.00     0.161 HD
ENDROOT
BRANCH   7  11
HETATM   11  C   UNL     1      39.333 -13.838  -1.171  1.00  0.00     0.275 C 
HETATM   12  N   UNL     1      38.025 -13.469  -1.452  1.00  0.00    -0.263 N 
HETATM   13  H   UNL     1      37.665 -13.995  -2.246  1.00  0.00     0.190 HD
HETATM   14  O   UNL     1      39.800 -14.822  -1.748  1.00  0.00    -0.266 OA
BRANCH  12  15
HETATM   15  N   UNL     1      37.595 -12.127  -1.414  1.00  0.00    -0.274 N 
HETATM   16  H   UNL     1      37.334 -11.747  -0.509  1.00  0.00     0.189 HD
BRANCH  15  17
HETATM   17  C   UNL     1      37.389 -11.407  -2.564  1.00  0.00     0.186 C 
HETATM   18  S   UNL     1      35.911 -10.856  -3.116  1.00  0.00    -0.040 SA
BRANCH  17  19
HETATM   19  N   UNL     1      38.495 -11.093  -3.296  1.00  0.00    -0.360 N 
HETATM   20  H   UNL     1      38.968 -11.896  -3.693  1.00  0.00     0.162 HD
BRANCH  19  21
HETATM   21  C   UNL     1      38.930  -9.786  -3.752  1.00  0.00     0.187 C 
BRANCH  21  22
HETATM   22  C   UNL     1      39.841  -9.186  -2.753  1.00  0.00     0.070 A 
HETATM   23  O   UNL     1      41.178  -9.345  -2.973  1.00  0.00    -0.325 OA
HETATM   24  C   UNL     1      41.823  -8.713  -1.956  1.00  0.00     0.142 A 
HETATM   25  C   UNL     1      40.917  -8.167  -1.079  1.00  0.00     0.027 A 
HETATM   26  C   UNL     1      39.634  -8.472  -1.591  1.00  0.00     0.036 A 
ENDBRANCH  21  22
ENDBRANCH  19  21
ENDBRANCH  17  19
ENDBRANCH  15  17
ENDBRANCH  12  15
ENDBRANCH   7  11
BRANCH   1  27
HETATM   27  C   UNL     1      41.286 -15.720   3.286  1.00  0.00    -0.035 A 
HETATM   28  C   UNL     1      41.905 -16.134   4.477  1.00  0.00     0.012 A 
HETATM   29  C   UNL     1      42.898 -17.119   4.469  1.00  0.00     0.037 A 
HETATM   30  C   UNL     1      43.302 -17.715   3.278  1.00  0.00     0.068 A 
HETATM   31  C   UNL     1      42.725 -17.293   2.082  1.00  0.00     0.037 A 
HETATM   32  C   UNL     1      41.734 -16.301   2.087  1.00  0.00     0.012 A 
BRANCH  30  33
HETATM   33  O   UNL     1      44.268 -18.672   3.411  1.00  0.00    -0.356 OA
HETATM   34  C   UNL     1      44.283 -19.393   4.636  1.00  0.00     0.210 C 
ENDBRANCH  30  33
ENDBRANCH   1  27
BRANCH   8  35
HETATM   35  C   UNL     1      42.951 -12.725   3.167  1.00  0.00     0.409 C 
HETATM   36  F   UNL     1      43.312 -13.292   4.331  1.00  0.00    -0.169 F 
HETATM   37  F   UNL     1      43.361 -13.547   2.171  1.00  0.00    -0.169 F 
HETATM   38  F   UNL     1      43.687 -11.588   3.033  1.00  0.00    -0.169 F 
ENDBRANCH   8  35
TORSDOF 9
ENDMDL
MODEL 8
REMARK VINA RESULT:      -7.7      2.025      2.846
REMARK  9 active torsions:
REMARK  status: ('A' for Active; 'I' for Inactive)
REMARK    1  A    between atoms: O_2  and  C_3 
REMARK    2  A    between atoms: C_6  and  C_7 
REMARK    3  A    between atoms: C_13  and  C_14 
REMARK       I    between atoms: C_14  and  N_15 
REMARK    4  A    between atoms: N_15  and  N_16 
REMARK    5  A    between atoms: N_16  and  C_17 
REMARK    6  A    between atoms: C_17  and  N_18 
REMARK    7  A    between atoms: N_18  and  C_19 
REMARK    8  A    between atoms: C_19  and  C_20 
REMARK    9  A    between atoms: C_27  and  C_28 
ROOT
HETATM    1  C   UNL     1      42.316 -14.956   2.945  1.00  0.00     0.118 C 
HETATM    2  N   UNL     1      42.946 -13.746   3.458  1.00  0.00    -0.365 N 
HETATM    3  C   UNL     1      42.511 -13.126   4.581  1.00  0.00     0.138 A 
HETATM    4  N   UNL     1      41.308 -13.451   5.144  1.00  0.00    -0.240 N 
HETATM    5  N   UNL     1      40.962 -12.659   6.173  1.00  0.00    -0.181 NA
HETATM    6  C   UNL     1      42.038 -11.875   6.319  1.00  0.00     0.160 A 
HETATM    7  C   UNL     1      43.056 -12.130   5.368  1.00  0.00     0.098 A 
HETATM    8  C   UNL     1      40.420 -14.481   4.642  1.00  0.00     0.221 C 
HETATM    9  C   UNL     1      40.797 -14.864   3.196  1.00  0.00     0.066 C 
HETATM   10  H   UNL     1      43.879 -13.534   3.096  1.00  0.00     0.161 HD
ENDROOT
BRANCH   7  11
HETATM   11  C   UNL     1      44.344 -11.495   5.158  1.00  0.00     0.275 C 
HETATM   12  N   UNL     1      44.993 -10.888   6.224  1.00  0.00    -0.263 N 
HETATM   13  H   UNL     1      45.939 -10.616   5.964  1.00  0.00     0.190 HD
HETATM   14  O   UNL     1      44.882 -11.457   4.050  1.00  0.00    -0.266 OA
BRANCH  12  15
HETATM   15  N   UNL     1      44.880 -11.365   7.546  1.00  0.00    -0.274 N 
HETATM   16  H   UNL     1      44.879 -12.372   7.680  1.00  0.00     0.189 HD
BRANCH  15  17
HETATM   17  C   UNL     1      44.629 -10.517   8.596  1.00  0.00     0.186 C 
HETATM   18  S   UNL     1      45.668  -9.337   9.163  1.00  0.00    -0.040 SA
BRANCH  17  19
HETATM   19  N   UNL     1      43.414 -10.635   9.201  1.00  0.00    -0.360 N 
HETATM   20  H   UNL     1      43.169 -11.586   9.452  1.00  0.00     0.162 HD
BRANCH  19  21
HETATM   21  C   UNL     1      42.563  -9.581   9.721  1.00  0.00     0.187 C 
BRANCH  21  22
HETATM   22  C   UNL     1      41.707  -9.052   8.638  1.00  0.00     0.070 A 
HETATM   23  O   UNL     1      40.399  -9.442   8.647  1.00  0.00    -0.325 OA
HETATM   24  C   UNL     1      39.799  -8.837   7.588  1.00  0.00     0.142 A 
HETATM   25  C   UNL     1      40.708  -8.078   6.890  1.00  0.00     0.027 A 
HETATM   26  C   UNL     1      41.943  -8.215   7.566  1.00  0.00     0.036 A 
ENDBRANCH  21  22
ENDBRANCH  19  21
ENDBRANCH  17  19
ENDBRANCH  15  17
ENDBRANCH  12  15
ENDBRANCH   7  11
BRANCH   1  27
HETATM   27  C   UNL     1      42.988 -16.229   3.435  1.00  0.00    -0.035 A 
HETATM   28  C   UNL     1      42.880 -17.452   2.754  1.00  0.00     0.012 A 
HETATM   29  C   UNL     1      43.507 -18.605   3.238  1.00  0.00     0.037 A 
HETATM   30  C   UNL     1      44.254 -18.571   4.412  1.00  0.00     0.068 A 
HETATM   31  C   UNL     1      44.344 -17.375   5.122  1.00  0.00     0.037 A 
HETATM   32  C   UNL     1      43.711 -16.220   4.642  1.00  0.00     0.012 A 
BRANCH  30  33
HETATM   33  O   UNL     1      44.826 -19.761   4.766  1.00  0.00    -0.356 OA
HETATM   34  C   UNL     1      43.947 -20.768   5.253  1.00  0.00     0.210 C 
ENDBRANCH  30  33
ENDBRANCH   1  27
BRANCH   8  35
HETATM   35  C   UNL     1      40.388 -15.654   5.596  1.00  0.00     0.409 C 
HETATM   36  F   UNL     1      40.064 -16.826   5.022  1.00  0.00    -0.169 F 
HETATM   37  F   UNL     1      41.574 -15.826   6.227  1.00  0.00    -0.169 F 
HETATM   38  F   UNL     1      39.476 -15.427   6.580  1.00  0.00    -0.169 F 
ENDBRANCH   8  35
TORSDOF 9
ENDMDL
MODEL 9
REMARK VINA RESULT:      -7.6      6.037      8.957
REMARK  9 active torsions:
REMARK  status: ('A' for Active; 'I' for Inactive)
REMARK    1  A    between atoms: O_2  and  C_3 
REMARK    2  A    between atoms: C_6  and  C_7 
REMARK    3  A    between atoms: C_13  and  C_14 
REMARK       I    between atoms: C_14  and  N_15 
REMARK    4  A    between atoms: N_15  and  N_16 
REMARK    5  A    between atoms: N_16  and  C_17 
REMARK    6  A    between atoms: C_17  and  N_18 
REMARK    7  A    between atoms: N_18  and  C_19 
REMARK    8  A    between atoms: C_19  and  C_20 
REMARK    9  A    between atoms: C_27  and  C_28 
ROOT
HETATM    1  C   UNL     1      40.350 -14.735   3.366  1.00  0.00     0.118 C 
HETATM    2  N   UNL     1      39.840 -14.381   2.047  1.00  0.00    -0.365 N 
HETATM    3  C   UNL     1      40.361 -13.363   1.322  1.00  0.00     0.138 A 
HETATM    4  N   UNL     1      41.212 -12.456   1.890  1.00  0.00    -0.240 N 
HETATM    5  N   UNL     1      41.536 -11.437   1.076  1.00  0.00    -0.181 NA
HETATM    6  C   UNL     1      40.943 -11.776  -0.075  1.00  0.00     0.160 A 
HETATM    7  C   UNL     1      40.208 -12.984   0.002  1.00  0.00     0.098 A 
HETATM    8  C   UNL     1      41.663 -12.506   3.267  1.00  0.00     0.221 C 
HETATM    9  C   UNL     1      40.761 -13.441   4.099  1.00  0.00     0.066 C 
HETATM   10  H   UNL     1      39.261 -15.085   1.584  1.00  0.00     0.161 HD
ENDROOT
BRANCH   7  11
HETATM   11  C   UNL     1      39.405 -13.676  -0.990  1.00  0.00     0.275 C 
HETATM   12  N   UNL     1      38.068 -13.339  -1.149  1.00  0.00    -0.263 N 
HETATM   13  H   UNL     1      37.676 -13.798  -1.968  1.00  0.00     0.190 HD
HETATM   14  O   UNL     1      39.868 -14.576  -1.693  1.00  0.00    -0.266 OA
BRANCH  12  15
HETATM   15  N   UNL     1      37.592 -12.027  -0.946  1.00  0.00    -0.274 N 
HETATM   16  H   UNL     1      37.254 -11.792  -0.018  1.00  0.00     0.189 HD
BRANCH  15  17
HETATM   17  C   UNL     1      37.447 -11.148  -1.990  1.00  0.00     0.186 C 
HETATM   18  S   UNL     1      38.658 -10.676  -3.041  1.00  0.00    -0.040 SA
BRANCH  17  19
HETATM   19  N   UNL     1      36.197 -10.646  -2.198  1.00  0.00    -0.360 N 
HETATM   20  H   UNL     1      35.816 -10.145  -1.404  1.00  0.00     0.162 HD
BRANCH  19  21
HETATM   21  C   UNL     1      35.466 -10.544  -3.448  1.00  0.00     0.187 C 
BRANCH  21  22
HETATM   22  C   UNL     1      34.022 -10.385  -3.169  1.00  0.00     0.070 A 
HETATM   23  O   UNL     1      33.678  -9.429  -2.257  1.00  0.00    -0.325 OA
HETATM   24  C   UNL     1      32.322  -9.443  -2.165  1.00  0.00     0.142 A 
HETATM   25  C   UNL     1      31.793 -10.405  -2.992  1.00  0.00     0.027 A 
HETATM   26  C   UNL     1      32.891 -11.017  -3.642  1.00  0.00     0.036 A 
ENDBRANCH  21  22
ENDBRANCH  19  21
ENDBRANCH  17  19
ENDBRANCH  15  17
ENDBRANCH  12  15
ENDBRANCH   7  11
BRANCH   1  27
HETATM   27  C   UNL     1      41.405 -15.828   3.322  1.00  0.00    -0.035 A 
HETATM   28  C   UNL     1      42.038 -16.318   4.476  1.00  0.00     0.012 A 
HETATM   29  C   UNL     1      43.010 -17.320   4.396  1.00  0.00     0.037 A 
HETATM   30  C   UNL     1      43.378 -17.860   3.167  1.00  0.00     0.068 A 
HETATM   31  C   UNL     1      42.787 -17.364   2.007  1.00  0.00     0.037 A 
HETATM   32  C   UNL     1      41.818 -16.354   2.084  1.00  0.00     0.012 A 
BRANCH  30  33
HETATM   33  O   UNL     1      44.327 -18.842   3.229  1.00  0.00    -0.356 OA
HETATM   34  C   UNL     1      43.861 -20.182   3.135  1.00  0.00     0.210 C 
ENDBRANCH  30  33
ENDBRANCH   1  27
BRANCH   8  35
HETATM   35  C   UNL     1      43.131 -12.865   3.324  1.00  0.00     0.409 C 
HETATM   36  F   UNL     1      43.502 -13.500   4.449  1.00  0.00    -0.169 F 
HETATM   37  F   UNL     1      43.503 -13.642   2.278  1.00  0.00    -0.169 F 
HETATM   38  F   UNL     1      43.887 -11.737   3.234  1.00  0.00    -0.169 F 
ENDBRANCH   8  35
TORSDOF 9
ENDMDL
MODEL 10
REMARK VINA RESULT:      -7.6      5.105     10.595
REMARK  9 active torsions:
REMARK  status: ('A' for Active; 'I' for Inactive)
REMARK    1  A    between atoms: O_2  and  C_3 
REMARK    2  A    between atoms: C_6  and  C_7 
REMARK    3  A    between atoms: C_13  and  C_14 
REMARK       I    between atoms: C_14  and  N_15 
REMARK    4  A    between atoms: N_15  and  N_16 
REMARK    5  A    between atoms: N_16  and  C_17 
REMARK    6  A    between atoms: C_17  and  N_18 
REMARK    7  A    between atoms: N_18  and  C_19 
REMARK    8  A    between atoms: C_19  and  C_20 
REMARK    9  A    between atoms: C_27  and  C_28 
ROOT
HETATM    1  C   UNL     1      41.518  -9.954  12.301  1.00  0.00     0.118 C 
HETATM    2  N   UNL     1      42.408  -9.753  11.164  1.00  0.00    -0.365 N 
HETATM    3  C   UNL     1      42.053  -9.005  10.092  1.00  0.00     0.138 A 
HETATM    4  N   UNL     1      40.755  -8.615   9.905  1.00  0.00    -0.240 N 
HETATM    5  N   UNL     1      40.544  -7.992   8.732  1.00  0.00    -0.181 NA
HETATM    6  C   UNL     1      41.776  -7.903   8.217  1.00  0.00     0.160 A 
HETATM    7  C   UNL     1      42.773  -8.498   9.028  1.00  0.00     0.098 A 
HETATM    8  C   UNL     1      39.670  -8.915  10.816  1.00  0.00     0.221 C 
HETATM    9  C   UNL     1      40.069 -10.051  11.781  1.00  0.00     0.066 C 
HETATM   10  H   UNL     1      43.395  -9.974  11.319  1.00  0.00     0.161 HD
ENDROOT
BRANCH   7  11
HETATM   11  C   UNL     1      44.203  -8.647   8.826  1.00  0.00     0.275 C 
HETATM   12  N   UNL     1      44.785  -9.902   8.936  1.00  0.00    -0.263 N 
HETATM   13  H   UNL     1      45.755  -9.878   8.629  1.00  0.00     0.190 HD
HETATM   14  O   UNL     1      44.932  -7.685   8.576  1.00  0.00    -0.266 OA
BRANCH  12  15
HETATM   15  N   UNL     1      44.103 -11.083   8.578  1.00  0.00    -0.274 N 
HETATM   16  H   UNL     1      43.674 -11.619   9.327  1.00  0.00     0.189 HD
BRANCH  15  17
HETATM   17  C   UNL     1      44.144 -11.575   7.298  1.00  0.00     0.186 C 
HETATM   18  S   UNL     1      45.415 -11.398   6.227  1.00  0.00    -0.040 SA
BRANCH  17  19
HETATM   19  N   UNL     1      43.063 -12.295   6.884  1.00  0.00    -0.360 N 
HETATM   20  H   UNL     1      42.244 -12.184   7.471  1.00  0.00     0.162 HD
BRANCH  19  21
HETATM   21  C   UNL     1      42.874 -12.990   5.624  1.00  0.00     0.187 C 
BRANCH  21  22
HETATM   22  C   UNL     1      42.726 -14.440   5.872  1.00  0.00     0.070 A 
HETATM   23  O   UNL     1      42.150 -14.801   7.056  1.00  0.00    -0.325 OA
HETATM   24  C   UNL     1      42.100 -16.160   7.071  1.00  0.00     0.142 A 
HETATM   25  C   UNL     1      42.651 -16.674   5.921  1.00  0.00     0.027 A 
HETATM   26  C   UNL     1      43.057 -15.564   5.144  1.00  0.00     0.036 A 
ENDBRANCH  21  22
ENDBRANCH  19  21
ENDBRANCH  17  19
ENDBRANCH  15  17
ENDBRANCH  12  15
ENDBRANCH   7  11
BRANCH   1  27
HETATM   27  C   UNL     1      41.749  -8.951  13.420  1.00  0.00    -0.035 A 
HETATM   28  C   UNL     1      42.796  -8.016  13.395  1.00  0.00     0.012 A 
HETATM   29  C   UNL     1      42.982  -7.111  14.446  1.00  0.00     0.037 A 
HETATM   30  C   UNL     1      42.132  -7.116  15.549  1.00  0.00     0.068 A 
HETATM   31  C   UNL     1      41.108  -8.059  15.609  1.00  0.00     0.037 A 
HETATM   32  C   UNL     1      40.925  -8.970  14.560  1.00  0.00     0.012 A 
BRANCH  30  33
HETATM   33  O   UNL     1      42.413  -6.173  16.497  1.00  0.00    -0.356 OA
HETATM   34  C   UNL     1      41.394  -5.218  16.766  1.00  0.00     0.210 C 
ENDBRANCH  30  33
ENDBRANCH   1  27
BRANCH   8  35
HETATM   35  C   UNL     1      39.209  -7.655  11.514  1.00  0.00     0.409 C 
HETATM   36  F   UNL     1      40.192  -6.773  11.769  1.00  0.00    -0.169 F 
HETATM   37  F   UNL     1      38.255  -7.004  10.807  1.00  0.00    -0.169 F 
HETATM   38  F   UNL     1      38.636  -7.969  12.708  1.00  0.00    -0.169 F 
ENDBRANCH   8  35
TORSDOF 9
ENDMDL
