MODEL 1
REMARK VINA RESULT:      -8.7      0.000      0.000
REMARK  7 active torsions:
REMARK  status: ('A' for Active; 'I' for Inactive)
REMARK    1  A    between atoms: C_2  and  N_3 
REMARK    2  A    between atoms: C_2  and  C_10 
REMARK    3  A    between atoms: N_11  and  C_12 
REMARK    4  A    between atoms: C_19  and  S_20 
REMARK    5  A    between atoms: S_20  and  C_21 
REMARK    6  A    between atoms: C_21  and  C_22 
REMARK    7  A    between atoms: C_21  and  C_28 
REMARK       I    between atoms: C_22  and  N_23 
REMARK       I    between atoms: N_23  and  C_24 
REMARK       I    between atoms: C_24  and  N_25 
ROOT
HETATM    1  C   UNL     1      40.551 -11.894   0.720  1.00  0.00     0.166 A 
HETATM    2  N   UNL     1      40.590 -12.713   1.847  1.00  0.00    -0.274 N 
HETATM    3  C   UNL     1      39.994 -11.946   2.833  1.00  0.00     0.197 A 
HETATM    4  N   UNL     1      39.675 -10.765   2.359  1.00  0.00    -0.122 NA
HETATM    5  N   UNL     1      40.052 -10.719   1.051  1.00  0.00    -0.131 NA
ENDROOT
BRANCH   3   6
HETATM    6  S   UNL     1      39.764 -12.393   4.487  1.00  0.00    -0.070 SA
BRANCH   6   7
HETATM    7  C   UNL     1      41.485 -12.631   5.064  1.00  0.00     0.180 C 
BRANCH   7   8
HETATM    8  C   UNL     1      41.790 -11.691   6.241  1.00  0.00     0.244 C 
HETATM    9  N   UNL     1      43.040 -11.860   6.816  1.00  0.00    -0.278 N 
HETATM   10  C   UNL     1      43.609 -11.161   7.840  1.00  0.00     0.320 C 
HETATM   11  H   UNL     1      43.636 -12.605   6.483  1.00  0.00     0.173 HD
HETATM   12  N   UNL     1      42.937 -10.086   8.300  1.00  0.00    -0.352 N 
HETATM   13  O   UNL     1      44.695 -11.489   8.305  1.00  0.00    -0.247 OA
HETATM   14  H   UNL     1      41.953  -9.983   8.080  1.00  0.00     0.160 HD
HETATM   15  H   UNL     1      43.304  -9.618   9.117  1.00  0.00     0.160 HD
HETATM   16  O   UNL     1      40.943 -10.887   6.639  1.00  0.00    -0.271 OA
ENDBRANCH   7   8
BRANCH   7  17
HETATM   17  C   UNL     1      41.881 -14.073   5.374  1.00  0.00    -0.035 A 
HETATM   18  C   UNL     1      43.190 -14.574   5.270  1.00  0.00     0.009 A 
HETATM   19  C   UNL     1      43.468 -15.918   5.541  1.00  0.00     0.001 A 
HETATM   20  C   UNL     1      42.446 -16.786   5.910  1.00  0.00     0.000 A 
HETATM   21  C   UNL     1      41.142 -16.314   6.013  1.00  0.00     0.001 A 
HETATM   22  C   UNL     1      40.862 -14.971   5.752  1.00  0.00     0.009 A 
ENDBRANCH   7  17
ENDBRANCH   6   7
ENDBRANCH   3   6
BRANCH   2  23
HETATM   23  C   UNL     1      41.066 -14.047   1.918  1.00  0.00     0.043 A 
HETATM   24  C   UNL     1      40.169 -15.096   2.171  1.00  0.00     0.033 A 
HETATM   25  C   UNL     1      40.641 -16.406   2.266  1.00  0.00     0.044 A 
HETATM   26  C   UNL     1      41.998 -16.663   2.106  1.00  0.00     0.116 A 
HETATM   27  F   UNL     1      42.446 -17.920   2.207  1.00  0.00    -0.206 F 
HETATM   28  C   UNL     1      42.894 -15.635   1.845  1.00  0.00     0.044 A 
HETATM   29  C   UNL     1      42.432 -14.320   1.746  1.00  0.00     0.033 A 
ENDBRANCH   2  23
BRANCH   1  30
HETATM   30  C   UNL     1      40.843 -12.305  -0.693  1.00  0.00     0.255 C 
HETATM   31  C   UNL     1      41.201 -11.097  -1.562  1.00  0.00     0.049 C 
BRANCH  30  32
HETATM   32  N   UNL     1      39.703 -13.096  -1.378  1.00  0.00    -0.060 N 
HETATM   33  H   UNL     1      39.242 -13.618  -0.623  1.00  0.00     0.280 HD
HETATM   34  C   UNL     1      38.657 -12.175  -1.973  1.00  0.00     0.236 C 
HETATM   35  C   UNL     1      37.444 -12.992  -2.397  1.00  0.00     0.028 C 
HETATM   36  C   UNL     1      37.822 -14.106  -3.366  1.00  0.00     0.003 C 
HETATM   37  C   UNL     1      38.944 -14.974  -2.804  1.00  0.00     0.028 C 
HETATM   38  C   UNL     1      40.149 -14.130  -2.402  1.00  0.00     0.236 C 
ENDBRANCH  30  32
ENDBRANCH   1  30
TORSDOF 7
ENDMDL
MODEL 2
REMARK VINA RESULT:      -8.5      3.426      5.820
REMARK  7 active torsions:
REMARK  status: ('A' for Active; 'I' for Inactive)
REMARK    1  A    between atoms: C_2  and  N_3 
REMARK    2  A    between atoms: C_2  and  C_10 
REMARK    3  A    between atoms: N_11  and  C_12 
REMARK    4  A    between atoms: C_19  and  S_20 
REMARK    5  A    between atoms: S_20  and  C_21 
REMARK    6  A    between atoms: C_21  and  C_22 
REMARK    7  A    between atoms: C_21  and  C_28 
REMARK       I    between atoms: C_22  and  N_23 
REMARK       I    between atoms: N_23  and  C_24 
REMARK       I    between atoms: C_24  and  N_25 
ROOT
HETATM    1  C   UNL     1      43.597 -12.329   3.940  1.00  0.00     0.166 A 
HETATM    2  N   UNL     1      43.234 -12.582   5.262  1.00  0.00    -0.274 N 
HETATM    3  C   UNL     1      43.951 -11.647   5.986  1.00  0.00     0.197 A 
HETATM    4  N   UNL     1      44.709 -10.936   5.185  1.00  0.00    -0.122 NA
HETATM    5  N   UNL     1      44.515 -11.383   3.914  1.00  0.00    -0.131 NA
ENDROOT
BRANCH   3   6
HETATM    6  S   UNL     1      43.959 -11.460   7.704  1.00  0.00    -0.070 SA
BRANCH   6   7
HETATM    7  C   UNL     1      43.324  -9.755   7.910  1.00  0.00     0.180 C 
BRANCH   7   8
HETATM    8  C   UNL     1      41.980  -9.593   7.185  1.00  0.00     0.244 C 
HETATM    9  N   UNL     1      40.901 -10.199   7.809  1.00  0.00    -0.278 N 
HETATM   10  C   UNL     1      39.589 -10.201   7.435  1.00  0.00     0.320 C 
HETATM   11  H   UNL     1      41.063 -10.747   8.643  1.00  0.00     0.173 HD
HETATM   12  N   UNL     1      39.248  -9.426   6.385  1.00  0.00    -0.352 N 
HETATM   13  O   UNL     1      38.757 -10.865   8.043  1.00  0.00    -0.247 OA
HETATM   14  H   UNL     1      39.970  -9.092   5.757  1.00  0.00     0.160 HD
HETATM   15  H   UNL     1      38.299  -9.492   6.043  1.00  0.00     0.160 HD
HETATM   16  O   UNL     1      41.914  -8.993   6.108  1.00  0.00    -0.271 OA
ENDBRANCH   7   8
BRANCH   7  17
HETATM   17  C   UNL     1      43.256  -9.248   9.349  1.00  0.00    -0.035 A 
HETATM   18  C   UNL     1      42.994  -7.914   9.706  1.00  0.00     0.009 A 
HETATM   19  C   UNL     1      42.980  -7.519  11.048  1.00  0.00     0.001 A 
HETATM   20  C   UNL     1      43.235  -8.445  12.055  1.00  0.00     0.000 A 
HETATM   21  C   UNL     1      43.502  -9.769  11.725  1.00  0.00     0.001 A 
HETATM   22  C   UNL     1      43.509 -10.168  10.386  1.00  0.00     0.009 A 
ENDBRANCH   7  17
ENDBRANCH   6   7
ENDBRANCH   3   6
BRANCH   2  23
HETATM   23  C   UNL     1      42.288 -13.534   5.720  1.00  0.00     0.043 A 
HETATM   24  C   UNL     1      42.710 -14.827   6.065  1.00  0.00     0.033 A 
HETATM   25  C   UNL     1      41.774 -15.773   6.492  1.00  0.00     0.044 A 
HETATM   26  C   UNL     1      40.431 -15.425   6.574  1.00  0.00     0.116 A 
HETATM   27  F   UNL     1      39.539 -16.337   6.976  1.00  0.00    -0.206 F 
HETATM   28  C   UNL     1      40.003 -14.145   6.246  1.00  0.00     0.044 A 
HETATM   29  C   UNL     1      40.931 -13.191   5.820  1.00  0.00     0.033 A 
ENDBRANCH   2  23
BRANCH   1  30
HETATM   30  C   UNL     1      42.941 -12.886   2.712  1.00  0.00     0.255 C 
HETATM   31  C   UNL     1      41.647 -12.139   2.382  1.00  0.00     0.049 C 
BRANCH  30  32
HETATM   32  N   UNL     1      42.642 -14.403   2.778  1.00  0.00    -0.060 N 
HETATM   33  H   UNL     1      42.854 -14.681   3.743  1.00  0.00     0.280 HD
HETATM   34  C   UNL     1      41.172 -14.697   2.553  1.00  0.00     0.236 C 
HETATM   35  C   UNL     1      40.891 -16.157   2.885  1.00  0.00     0.028 C 
HETATM   36  C   UNL     1      41.778 -17.102   2.083  1.00  0.00     0.003 C 
HETATM   37  C   UNL     1      43.252 -16.741   2.234  1.00  0.00     0.028 C 
HETATM   38  C   UNL     1      43.505 -15.280   1.882  1.00  0.00     0.236 C 
ENDBRANCH  30  32
ENDBRANCH   1  30
TORSDOF 7
ENDMDL
MODEL 3
REMARK VINA RESULT:      -8.5      4.100      8.266
REMARK  7 active torsions:
REMARK  status: ('A' for Active; 'I' for Inactive)
REMARK    1  A    between atoms: C_2  and  N_3 
REMARK    2  A    between atoms: C_2  and  C_10 
REMARK    3  A    between atoms: N_11  and  C_12 
REMARK    4  A    between atoms: C_19  and  S_20 
REMARK    5  A    between atoms: S_20  and  C_21 
REMARK    6  A    between atoms: C_21  and  C_22 
REMARK    7  A    between atoms: C_21  and  C_28 
REMARK       I    between atoms: C_22  and  N_23 
REMARK       I    between atoms: N_23  and  C_24 
REMARK       I    between atoms: C_24  and  N_25 
ROOT
HETATM    1  C   UNL     1      43.407 -12.947   7.097  1.00  0.00     0.166 A 
HETATM    2  N   UNL     1      42.674 -13.738   6.214  1.00  0.00    -0.274 N 
HETATM    3  C   UNL     1      42.640 -14.977   6.830  1.00  0.00     0.197 A 
HETATM    4  N   UNL     1      43.328 -14.947   7.947  1.00  0.00    -0.122 NA
HETATM    5  N   UNL     1      43.834 -13.693   8.098  1.00  0.00    -0.131 NA
ENDROOT
BRANCH   3   6
HETATM    6  S   UNL     1      41.898 -16.412   6.216  1.00  0.00    -0.070 SA
BRANCH   6   7
HETATM    7  C   UNL     1      43.047 -16.898   4.876  1.00  0.00     0.180 C 
BRANCH   7   8
HETATM    8  C   UNL     1      43.376 -18.396   4.970  1.00  0.00     0.244 C 
HETATM    9  N   UNL     1      43.528 -19.039   3.751  1.00  0.00    -0.278 N 
HETATM   10  C   UNL     1      43.854 -20.341   3.508  1.00  0.00     0.320 C 
HETATM   11  H   UNL     1      43.359 -18.521   2.900  1.00  0.00     0.173 HD
HETATM   12  N   UNL     1      44.188 -21.100   4.572  1.00  0.00    -0.352 N 
HETATM   13  O   UNL     1      43.860 -20.791   2.369  1.00  0.00    -0.247 OA
HETATM   14  H   UNL     1      43.939 -20.788   5.504  1.00  0.00     0.160 HD
HETATM   15  H   UNL     1      44.341 -22.086   4.414  1.00  0.00     0.160 HD
HETATM   16  O   UNL     1      43.451 -18.956   6.067  1.00  0.00    -0.271 OA
ENDBRANCH   7   8
BRANCH   7  17
HETATM   17  C   UNL     1      42.618 -16.500   3.466  1.00  0.00    -0.035 A 
HETATM   18  C   UNL     1      43.510 -16.151   2.437  1.00  0.00     0.009 A 
HETATM   19  C   UNL     1      43.038 -15.765   1.178  1.00  0.00     0.001 A 
HETATM   20  C   UNL     1      41.671 -15.711   0.927  1.00  0.00     0.000 A 
HETATM   21  C   UNL     1      40.770 -16.046   1.932  1.00  0.00     0.001 A 
HETATM   22  C   UNL     1      41.238 -16.439   3.188  1.00  0.00     0.009 A 
ENDBRANCH   7  17
ENDBRANCH   6   7
ENDBRANCH   3   6
BRANCH   2  23
HETATM   23  C   UNL     1      42.054 -13.322   5.008  1.00  0.00     0.043 A 
HETATM   24  C   UNL     1      42.844 -12.949   3.910  1.00  0.00     0.033 A 
HETATM   25  C   UNL     1      42.234 -12.515   2.731  1.00  0.00     0.044 A 
HETATM   26  C   UNL     1      40.848 -12.457   2.654  1.00  0.00     0.116 A 
HETATM   27  F   UNL     1      40.269 -12.032   1.525  1.00  0.00    -0.206 F 
HETATM   28  C   UNL     1      40.055 -12.834   3.730  1.00  0.00     0.044 A 
HETATM   29  C   UNL     1      40.655 -13.272   4.913  1.00  0.00     0.033 A 
ENDBRANCH   2  23
BRANCH   1  30
HETATM   30  C   UNL     1      43.551 -11.455   7.052  1.00  0.00     0.255 C 
HETATM   31  C   UNL     1      44.826 -11.040   6.314  1.00  0.00     0.049 C 
BRANCH  30  32
HETATM   32  N   UNL     1      43.525 -10.767   8.437  1.00  0.00    -0.060 N 
HETATM   33  H   UNL     1      43.182 -11.482   9.090  1.00  0.00     0.280 HD
HETATM   34  C   UNL     1      44.916 -10.385   8.902  1.00  0.00     0.236 C 
HETATM   35  C   UNL     1      44.863  -9.956  10.362  1.00  0.00     0.028 C 
HETATM   36  C   UNL     1      43.869  -8.822  10.585  1.00  0.00     0.003 C 
HETATM   37  C   UNL     1      42.493  -9.174  10.028  1.00  0.00     0.028 C 
HETATM   38  C   UNL     1      42.576  -9.584   8.562  1.00  0.00     0.236 C 
ENDBRANCH  30  32
ENDBRANCH   1  30
TORSDOF 7
ENDMDL
MODEL 4
REMARK VINA RESULT:      -8.2      2.681      7.707
REMARK  7 active torsions:
REMARK  status: ('A' for Active; 'I' for Inactive)
REMARK    1  A    between atoms: C_2  and  N_3 
REMARK    2  A    between atoms: C_2  and  C_10 
REMARK    3  A    between atoms: N_11  and  C_12 
REMARK    4  A    between atoms: C_19  and  S_20 
REMARK    5  A    between atoms: S_20  and  C_21 
REMARK    6  A    between atoms: C_21  and  C_22 
REMARK    7  A    between atoms: C_21  and  C_28 
REMARK       I    between atoms: C_22  and  N_23 
REMARK       I    between atoms: N_23  and  C_24 
REMARK       I    between atoms: C_24  and  N_25 
ROOT
HETATM    1  C   UNL     1      41.600 -10.279   6.091  1.00  0.00     0.166 A 
HETATM    2  N   UNL     1      41.834 -11.363   5.246  1.00  0.00    -0.274 N 
HETATM    3  C   UNL     1      42.018 -10.780   4.004  1.00  0.00     0.197 A 
HETATM    4  N   UNL     1      41.859  -9.479   4.086  1.00  0.00    -0.122 NA
HETATM    5  N   UNL     1      41.566  -9.170   5.378  1.00  0.00    -0.131 NA
ENDROOT
BRANCH   3   6
HETATM    6  S   UNL     1      42.319 -11.602   2.515  1.00  0.00    -0.070 SA
BRANCH   6   7
HETATM    7  C   UNL     1      41.064 -12.936   2.551  1.00  0.00     0.180 C 
BRANCH   7   8
HETATM    8  C   UNL     1      39.961 -12.662   1.518  1.00  0.00     0.244 C 
HETATM    9  N   UNL     1      40.185 -13.208   0.263  1.00  0.00    -0.278 N 
HETATM   10  C   UNL     1      39.382 -13.170  -0.839  1.00  0.00     0.320 C 
HETATM   11  H   UNL     1      41.057 -13.686   0.086  1.00  0.00     0.173 HD
HETATM   12  N   UNL     1      38.154 -12.634  -0.688  1.00  0.00    -0.352 N 
HETATM   13  O   UNL     1      39.759 -13.622  -1.914  1.00  0.00    -0.247 OA
HETATM   14  H   UNL     1      37.960 -12.053   0.120  1.00  0.00     0.160 HD
HETATM   15  H   UNL     1      37.588 -12.517  -1.517  1.00  0.00     0.160 HD
HETATM   16  O   UNL     1      38.983 -11.969   1.811  1.00  0.00    -0.271 OA
ENDBRANCH   7   8
BRANCH   7  17
HETATM   17  C   UNL     1      41.612 -14.357   2.430  1.00  0.00    -0.035 A 
HETATM   18  C   UNL     1      40.926 -15.508   2.852  1.00  0.00     0.009 A 
HETATM   19  C   UNL     1      41.508 -16.774   2.737  1.00  0.00     0.001 A 
HETATM   20  C   UNL     1      42.788 -16.913   2.209  1.00  0.00     0.000 A 
HETATM   21  C   UNL     1      43.489 -15.788   1.791  1.00  0.00     0.001 A 
HETATM   22  C   UNL     1      42.907 -14.522   1.896  1.00  0.00     0.009 A 
ENDBRANCH   7  17
ENDBRANCH   6   7
ENDBRANCH   3   6
BRANCH   2  23
HETATM   23  C   UNL     1      41.931 -12.728   5.615  1.00  0.00     0.043 A 
HETATM   24  C   UNL     1      40.780 -13.428   6.009  1.00  0.00     0.033 A 
HETATM   25  C   UNL     1      40.879 -14.766   6.397  1.00  0.00     0.044 A 
HETATM   26  C   UNL     1      42.119 -15.396   6.389  1.00  0.00     0.116 A 
HETATM   27  F   UNL     1      42.209 -16.675   6.770  1.00  0.00    -0.206 F 
HETATM   28  C   UNL     1      43.263 -14.717   5.991  1.00  0.00     0.044 A 
HETATM   29  C   UNL     1      43.174 -13.379   5.598  1.00  0.00     0.033 A 
ENDBRANCH   2  23
BRANCH   1  30
HETATM   30  C   UNL     1      41.574 -10.305   7.590  1.00  0.00     0.255 C 
HETATM   31  C   UNL     1      40.478  -9.393   8.145  1.00  0.00     0.049 C 
BRANCH  30  32
HETATM   32  N   UNL     1      42.920  -9.938   8.260  1.00  0.00    -0.060 N 
HETATM   33  H   UNL     1      43.264  -9.117   7.749  1.00  0.00     0.280 HD
HETATM   34  C   UNL     1      42.732  -9.508   9.701  1.00  0.00     0.236 C 
HETATM   35  C   UNL     1      44.033  -8.915  10.227  1.00  0.00     0.028 C 
HETATM   36  C   UNL     1      45.198  -9.887  10.082  1.00  0.00     0.003 C 
HETATM   37  C   UNL     1      45.324 -10.393   8.648  1.00  0.00     0.028 C 
HETATM   38  C   UNL     1      44.012 -10.993   8.156  1.00  0.00     0.236 C 
ENDBRANCH  30  32
ENDBRANCH   1  30
TORSDOF 7
ENDMDL
MODEL 5
REMARK VINA RESULT:      -8.2      2.146      3.751
REMARK  7 active torsions:
REMARK  status: ('A' for Active; 'I' for Inactive)
REMARK    1  A    between atoms: C_2  and  N_3 
REMARK    2  A    between atoms: C_2  and  C_10 
REMARK    3  A    between atoms: N_11  and  C_12 
REMARK    4  A    between atoms: C_19  and  S_20 
REMARK    5  A    between atoms: S_20  and  C_21 
REMARK    6  A    between atoms: C_21  and  C_22 
REMARK    7  A    between atoms: C_21  and  C_28 
REMARK       I    between atoms: C_22  and  N_23 
REMARK       I    between atoms: N_23  and  C_24 
REMARK       I    between atoms: C_24  and  N_25 
ROOT
HETATM    1  C   UNL     1      41.097 -12.247   1.138  1.00  0.00     0.166 A 
HETATM    2  N   UNL     1      42.024 -12.872   1.971  1.00  0.00    -0.274 N 
HETATM    3  C   UNL     1      42.691 -11.819   2.571  1.00  0.00     0.197 A 
HETATM    4  N   UNL     1      42.245 -10.675   2.107  1.00  0.00    -0.122 NA
HETATM    5  N   UNL     1      41.276 -10.941   1.189  1.00  0.00    -0.131 NA
ENDROOT
BRANCH   3   6
HETATM    6  S   UNL     1      43.993 -11.936   3.701  1.00  0.00    -0.070 SA
BRANCH   6   7
HETATM    7  C   UNL     1      43.173 -11.504   5.281  1.00  0.00     0.180 C 
BRANCH   7   8
HETATM    8  C   UNL     1      42.213 -12.624   5.710  1.00  0.00     0.244 C 
HETATM    9  N   UNL     1      40.874 -12.267   5.743  1.00  0.00    -0.278 N 
HETATM   10  C   UNL     1      39.792 -13.041   6.045  1.00  0.00     0.320 C 
HETATM   11  H   UNL     1      40.618 -11.309   5.551  1.00  0.00     0.173 HD
HETATM   12  N   UNL     1      40.011 -14.359   6.229  1.00  0.00    -0.352 N 
HETATM   13  O   UNL     1      38.669 -12.558   6.123  1.00  0.00    -0.247 OA
HETATM   14  H   UNL     1      40.954 -14.688   6.405  1.00  0.00     0.160 HD
HETATM   15  H   UNL     1      39.234 -14.924   6.543  1.00  0.00     0.160 HD
HETATM   16  O   UNL     1      42.646 -13.735   6.031  1.00  0.00    -0.271 OA
ENDBRANCH   7   8
BRANCH   7  17
HETATM   17  C   UNL     1      44.108 -11.094   6.416  1.00  0.00    -0.035 A 
HETATM   18  C   UNL     1      45.509 -11.186   6.359  1.00  0.00     0.009 A 
HETATM   19  C   UNL     1      46.299 -10.821   7.454  1.00  0.00     0.001 A 
HETATM   20  C   UNL     1      45.705 -10.367   8.627  1.00  0.00     0.000 A 
HETATM   21  C   UNL     1      44.320 -10.274   8.709  1.00  0.00     0.001 A 
HETATM   22  C   UNL     1      43.529 -10.630   7.615  1.00  0.00     0.009 A 
ENDBRANCH   7  17
ENDBRANCH   6   7
ENDBRANCH   3   6
BRANCH   2  23
HETATM   23  C   UNL     1      42.172 -14.265   2.189  1.00  0.00     0.043 A 
HETATM   24  C   UNL     1      43.232 -14.957   1.582  1.00  0.00     0.033 A 
HETATM   25  C   UNL     1      43.363 -16.334   1.776  1.00  0.00     0.044 A 
HETATM   26  C   UNL     1      42.444 -17.009   2.570  1.00  0.00     0.116 A 
HETATM   27  F   UNL     1      42.571 -18.329   2.746  1.00  0.00    -0.206 F 
HETATM   28  C   UNL     1      41.398 -16.333   3.184  1.00  0.00     0.044 A 
HETATM   29  C   UNL     1      41.258 -14.956   2.999  1.00  0.00     0.033 A 
ENDBRANCH   2  23
BRANCH   1  30
HETATM   30  C   UNL     1      39.949 -12.901   0.429  1.00  0.00     0.255 C 
HETATM   31  C   UNL     1      40.432 -14.012  -0.507  1.00  0.00     0.049 C 
BRANCH  30  32
HETATM   32  N   UNL     1      39.050 -11.927  -0.370  1.00  0.00    -0.060 N 
HETATM   33  H   UNL     1      39.622 -11.087  -0.517  1.00  0.00     0.280 HD
HETATM   34  C   UNL     1      38.711 -12.471  -1.743  1.00  0.00     0.236 C 
HETATM   35  C   UNL     1      38.054 -11.377  -2.573  1.00  0.00     0.028 C 
HETATM   36  C   UNL     1      36.824 -10.801  -1.881  1.00  0.00     0.003 C 
HETATM   37  C   UNL     1      37.148 -10.343  -0.463  1.00  0.00     0.028 C 
HETATM   38  C   UNL     1      37.790 -11.463   0.348  1.00  0.00     0.236 C 
ENDBRANCH  30  32
ENDBRANCH   1  30
TORSDOF 7
ENDMDL
MODEL 6
REMARK VINA RESULT:      -7.8      3.671      8.316
REMARK  7 active torsions:
REMARK  status: ('A' for Active; 'I' for Inactive)
REMARK    1  A    between atoms: C_2  and  N_3 
REMARK    2  A    between atoms: C_2  and  C_10 
REMARK    3  A    between atoms: N_11  and  C_12 
REMARK    4  A    between atoms: C_19  and  S_20 
REMARK    5  A    between atoms: S_20  and  C_21 
REMARK    6  A    between atoms: C_21  and  C_22 
REMARK    7  A    between atoms: C_21  and  C_28 
REMARK       I    between atoms: C_22  and  N_23 
REMARK       I    between atoms: N_23  and  C_24 
REMARK       I    between atoms: C_24  and  N_25 
ROOT
HETATM    1  C   UNL     1      43.576 -12.196   6.865  1.00  0.00     0.166 A 
HETATM    2  N   UNL     1      42.567 -12.433   5.934  1.00  0.00    -0.274 N 
HETATM    3  C   UNL     1      42.423 -13.809   5.945  1.00  0.00     0.197 A 
HETATM    4  N   UNL     1      43.295 -14.350   6.764  1.00  0.00    -0.122 NA
HETATM    5  N   UNL     1      44.036 -13.348   7.312  1.00  0.00    -0.131 NA
ENDROOT
BRANCH   3   6
HETATM    6  S   UNL     1      41.338 -14.739   4.974  1.00  0.00    -0.070 SA
BRANCH   6   7
HETATM    7  C   UNL     1      42.250 -14.868   3.391  1.00  0.00     0.180 C 
BRANCH   7   8
HETATM    8  C   UNL     1      43.070 -16.166   3.349  1.00  0.00     0.244 C 
HETATM    9  N   UNL     1      43.126 -16.862   4.547  1.00  0.00    -0.278 N 
HETATM   10  C   UNL     1      43.737 -18.052   4.814  1.00  0.00     0.320 C 
HETATM   11  H   UNL     1      42.692 -16.461   5.366  1.00  0.00     0.173 HD
HETATM   12  N   UNL     1      44.270 -18.718   3.770  1.00  0.00    -0.352 N 
HETATM   13  O   UNL     1      43.779 -18.501   5.953  1.00  0.00    -0.247 OA
HETATM   14  H   UNL     1      44.443 -18.225   2.900  1.00  0.00     0.160 HD
HETATM   15  H   UNL     1      44.804 -19.552   3.969  1.00  0.00     0.160 HD
HETATM   16  O   UNL     1      43.654 -16.508   2.317  1.00  0.00    -0.271 OA
ENDBRANCH   7   8
BRANCH   7  17
HETATM   17  C   UNL     1      41.406 -14.690   2.130  1.00  0.00    -0.035 A 
HETATM   18  C   UNL     1      40.488 -15.641   1.653  1.00  0.00     0.009 A 
HETATM   19  C   UNL     1      39.774 -15.420   0.471  1.00  0.00     0.001 A 
HETATM   20  C   UNL     1      39.972 -14.253  -0.260  1.00  0.00     0.000 A 
HETATM   21  C   UNL     1      40.880 -13.301   0.189  1.00  0.00     0.001 A 
HETATM   22  C   UNL     1      41.588 -13.515   1.374  1.00  0.00     0.009 A 
ENDBRANCH   7  17
ENDBRANCH   6   7
ENDBRANCH   3   6
BRANCH   2  23
HETATM   23  C   UNL     1      41.825 -11.463   5.213  1.00  0.00     0.043 A 
HETATM   24  C   UNL     1      40.606 -10.994   5.727  1.00  0.00     0.033 A 
HETATM   25  C   UNL     1      39.863 -10.058   5.005  1.00  0.00     0.044 A 
HETATM   26  C   UNL     1      40.337  -9.595   3.783  1.00  0.00     0.116 A 
HETATM   27  F   UNL     1      39.617  -8.704   3.093  1.00  0.00    -0.206 F 
HETATM   28  C   UNL     1      41.547 -10.043   3.270  1.00  0.00     0.044 A 
HETATM   29  C   UNL     1      42.300 -10.978   3.985  1.00  0.00     0.033 A 
ENDBRANCH   2  23
BRANCH   1  30
HETATM   30  C   UNL     1      43.974 -10.866   7.432  1.00  0.00     0.255 C 
HETATM   31  C   UNL     1      45.492 -10.759   7.592  1.00  0.00     0.049 C 
BRANCH  30  32
HETATM   32  N   UNL     1      43.302 -10.519   8.782  1.00  0.00    -0.060 N 
HETATM   33  H   UNL     1      42.724 -11.335   9.017  1.00  0.00     0.280 HD
HETATM   34  C   UNL     1      44.319 -10.369   9.896  1.00  0.00     0.236 C 
HETATM   35  C   UNL     1      43.597 -10.289  11.234  1.00  0.00     0.028 C 
HETATM   36  C   UNL     1      42.572  -9.161  11.259  1.00  0.00     0.003 C 
HETATM   37  C   UNL     1      41.609  -9.260  10.080  1.00  0.00     0.028 C 
HETATM   38  C   UNL     1      42.360  -9.324   8.755  1.00  0.00     0.236 C 
ENDBRANCH  30  32
ENDBRANCH   1  30
TORSDOF 7
ENDMDL
MODEL 7
REMARK VINA RESULT:      -7.8      3.067      6.265
REMARK  7 active torsions:
REMARK  status: ('A' for Active; 'I' for Inactive)
REMARK    1  A    between atoms: C_2  and  N_3 
REMARK    2  A    between atoms: C_2  and  C_10 
REMARK    3  A    between atoms: N_11  and  C_12 
REMARK    4  A    between atoms: C_19  and  S_20 
REMARK    5  A    between atoms: S_20  and  C_21 
REMARK    6  A    between atoms: C_21  and  C_22 
REMARK    7  A    between atoms: C_21  and  C_28 
REMARK       I    between atoms: C_22  and  N_23 
REMARK       I    between atoms: N_23  and  C_24 
REMARK       I    between atoms: C_24  and  N_25 
ROOT
HETATM    1  C   UNL     1      42.630 -14.632   5.750  1.00  0.00     0.166 A 
HETATM    2  N   UNL     1      42.390 -13.736   4.710  1.00  0.00    -0.274 N 
HETATM    3  C   UNL     1      43.054 -12.588   5.103  1.00  0.00     0.197 A 
HETATM    4  N   UNL     1      43.596 -12.759   6.285  1.00  0.00    -0.122 NA
HETATM    5  N   UNL     1      43.305 -14.021   6.704  1.00  0.00    -0.131 NA
ENDROOT
BRANCH   3   6
HETATM    6  S   UNL     1      43.113 -11.088   4.246  1.00  0.00    -0.070 SA
BRANCH   6   7
HETATM    7  C   UNL     1      41.340 -10.653   4.107  1.00  0.00     0.180 C 
BRANCH   7   8
HETATM    8  C   UNL     1      41.056  -9.326   4.826  1.00  0.00     0.244 C 
HETATM    9  N   UNL     1      40.129  -9.403   5.853  1.00  0.00    -0.278 N 
HETATM   10  C   UNL     1      39.699  -8.415   6.691  1.00  0.00     0.320 C 
HETATM   11  H   UNL     1      39.662 -10.282   6.026  1.00  0.00     0.173 HD
HETATM   12  N   UNL     1      40.323  -7.223   6.606  1.00  0.00    -0.352 N 
HETATM   13  O   UNL     1      38.799  -8.616   7.498  1.00  0.00    -0.247 OA
HETATM   14  H   UNL     1      40.876  -7.007   5.784  1.00  0.00     0.160 HD
HETATM   15  H   UNL     1      39.952  -6.460   7.155  1.00  0.00     0.160 HD
HETATM   16  O   UNL     1      41.603  -8.282   4.459  1.00  0.00    -0.271 OA
ENDBRANCH   7   8
BRANCH   7  17
HETATM   17  C   UNL     1      40.770 -10.663   2.690  1.00  0.00    -0.035 A 
HETATM   18  C   UNL     1      39.403 -10.788   2.388  1.00  0.00     0.009 A 
HETATM   19  C   UNL     1      38.960 -10.821   1.062  1.00  0.00     0.001 A 
HETATM   20  C   UNL     1      39.873 -10.741   0.015  1.00  0.00     0.000 A 
HETATM   21  C   UNL     1      41.231 -10.623   0.290  1.00  0.00     0.001 A 
HETATM   22  C   UNL     1      41.676 -10.581   1.613  1.00  0.00     0.009 A 
ENDBRANCH   7  17
ENDBRANCH   6   7
ENDBRANCH   3   6
BRANCH   2  23
HETATM   23  C   UNL     1      41.688 -13.995   3.505  1.00  0.00     0.043 A 
HETATM   24  C   UNL     1      42.386 -14.052   2.289  1.00  0.00     0.033 A 
HETATM   25  C   UNL     1      41.691 -14.281   1.099  1.00  0.00     0.044 A 
HETATM   26  C   UNL     1      40.312 -14.453   1.129  1.00  0.00     0.116 A 
HETATM   27  F   UNL     1      39.652 -14.664  -0.015  1.00  0.00    -0.206 F 
HETATM   28  C   UNL     1      39.612 -14.410   2.327  1.00  0.00     0.044 A 
HETATM   29  C   UNL     1      40.297 -14.183   3.523  1.00  0.00     0.033 A 
ENDBRANCH   2  23
BRANCH   1  30
HETATM   30  C   UNL     1      42.349 -16.105   5.743  1.00  0.00     0.255 C 
HETATM   31  C   UNL     1      42.674 -16.742   7.096  1.00  0.00     0.049 C 
BRANCH  30  32
HETATM   32  N   UNL     1      43.083 -16.891   4.630  1.00  0.00    -0.060 N 
HETATM   33  H   UNL     1      43.790 -16.244   4.260  1.00  0.00     0.280 HD
HETATM   34  C   UNL     1      43.832 -18.086   5.184  1.00  0.00     0.236 C 
HETATM   35  C   UNL     1      44.737 -18.663   4.104  1.00  0.00     0.028 C 
HETATM   36  C   UNL     1      43.957 -19.028   2.846  1.00  0.00     0.003 C 
HETATM   37  C   UNL     1      43.128 -17.850   2.346  1.00  0.00     0.028 C 
HETATM   38  C   UNL     1      42.222 -17.304   3.444  1.00  0.00     0.236 C 
ENDBRANCH  30  32
ENDBRANCH   1  30
TORSDOF 7
ENDMDL
MODEL 8
REMARK VINA RESULT:      -7.8      3.943      8.498
REMARK  7 active torsions:
REMARK  status: ('A' for Active; 'I' for Inactive)
REMARK    1  A    between atoms: C_2  and  N_3 
REMARK    2  A    between atoms: C_2  and  C_10 
REMARK    3  A    between atoms: N_11  and  C_12 
REMARK    4  A    between atoms: C_19  and  S_20 
REMARK    5  A    between atoms: S_20  and  C_21 
REMARK    6  A    between atoms: C_21  and  C_22 
REMARK    7  A    between atoms: C_21  and  C_28 
REMARK       I    between atoms: C_22  and  N_23 
REMARK       I    between atoms: N_23  and  C_24 
REMARK       I    between atoms: C_24  and  N_25 
ROOT
HETATM    1  C   UNL     1      43.236 -10.137   8.315  1.00  0.00     0.166 A 
HETATM    2  N   UNL     1      42.832 -10.678   7.096  1.00  0.00    -0.274 N 
HETATM    3  C   UNL     1      43.698 -11.740   6.903  1.00  0.00     0.197 A 
HETATM    4  N   UNL     1      44.569 -11.799   7.883  1.00  0.00    -0.122 NA
HETATM    5  N   UNL     1      44.303 -10.781   8.746  1.00  0.00    -0.131 NA
ENDROOT
BRANCH   3   6
HETATM    6  S   UNL     1      43.735 -12.805   5.542  1.00  0.00    -0.070 SA
BRANCH   6   7
HETATM    7  C   UNL     1      42.511 -14.081   6.018  1.00  0.00     0.180 C 
BRANCH   7   8
HETATM    8  C   UNL     1      41.171 -13.828   5.310  1.00  0.00     0.244 C 
HETATM    9  N   UNL     1      41.263 -13.127   4.118  1.00  0.00    -0.278 N 
HETATM   10  C   UNL     1      40.266 -12.784   3.251  1.00  0.00     0.320 C 
HETATM   11  H   UNL     1      42.164 -12.779   3.823  1.00  0.00     0.173 HD
HETATM   12  N   UNL     1      39.036 -13.275   3.503  1.00  0.00    -0.352 N 
HETATM   13  O   UNL     1      40.490 -12.077   2.276  1.00  0.00    -0.247 OA
HETATM   14  H   UNL     1      38.824 -13.639   4.426  1.00  0.00     0.160 HD
HETATM   15  H   UNL     1      38.275 -12.953   2.922  1.00  0.00     0.160 HD
HETATM   16  O   UNL     1      40.111 -14.204   5.818  1.00  0.00    -0.271 OA
ENDBRANCH   7   8
BRANCH   7  17
HETATM   17  C   UNL     1      42.973 -15.528   5.856  1.00  0.00    -0.035 A 
HETATM   18  C   UNL     1      43.390 -16.093   4.639  1.00  0.00     0.009 A 
HETATM   19  C   UNL     1      43.769 -17.437   4.564  1.00  0.00     0.001 A 
HETATM   20  C   UNL     1      43.729 -18.242   5.698  1.00  0.00     0.000 A 
HETATM   21  C   UNL     1      43.314 -17.706   6.911  1.00  0.00     0.001 A 
HETATM   22  C   UNL     1      42.943 -16.362   6.992  1.00  0.00     0.009 A 
ENDBRANCH   7  17
ENDBRANCH   6   7
ENDBRANCH   3   6
BRANCH   2  23
HETATM   23  C   UNL     1      41.736 -10.263   6.298  1.00  0.00     0.043 A 
HETATM   24  C   UNL     1      40.430 -10.617   6.669  1.00  0.00     0.033 A 
HETATM   25  C   UNL     1      39.352 -10.230   5.869  1.00  0.00     0.044 A 
HETATM   26  C   UNL     1      39.581  -9.494   4.713  1.00  0.00     0.116 A 
HETATM   27  F   UNL     1      38.545  -9.134   3.947  1.00  0.00    -0.206 F 
HETATM   28  C   UNL     1      40.868  -9.129   4.341  1.00  0.00     0.044 A 
HETATM   29  C   UNL     1      41.953  -9.509   5.135  1.00  0.00     0.033 A 
ENDBRANCH   2  23
BRANCH   1  30
HETATM   30  C   UNL     1      42.496  -9.116   9.127  1.00  0.00     0.255 C 
HETATM   31  C   UNL     1      43.404  -7.945   9.512  1.00  0.00     0.049 C 
BRANCH  30  32
HETATM   32  N   UNL     1      41.830  -9.676  10.406  1.00  0.00    -0.060 N 
HETATM   33  H   UNL     1      41.869 -10.697  10.309  1.00  0.00     0.280 HD
HETATM   34  C   UNL     1      42.619  -9.326  11.652  1.00  0.00     0.236 C 
HETATM   35  C   UNL     1      42.072 -10.111  12.836  1.00  0.00     0.028 C 
HETATM   36  C   UNL     1      40.580  -9.871  13.035  1.00  0.00     0.003 C 
HETATM   37  C   UNL     1      39.800 -10.130  11.751  1.00  0.00     0.028 C 
HETATM   38  C   UNL     1      40.361  -9.320  10.588  1.00  0.00     0.236 C 
ENDBRANCH  30  32
ENDBRANCH   1  30
TORSDOF 7
ENDMDL
MODEL 9
REMARK VINA RESULT:      -7.7      3.826      6.345
REMARK  7 active torsions:
REMARK  status: ('A' for Active; 'I' for Inactive)
REMARK    1  A    between atoms: C_2  and  N_3 
REMARK    2  A    between atoms: C_2  and  C_10 
REMARK    3  A    between atoms: N_11  and  C_12 
REMARK    4  A    between atoms: C_19  and  S_20 
REMARK    5  A    between atoms: S_20  and  C_21 
REMARK    6  A    between atoms: C_21  and  C_22 
REMARK    7  A    between atoms: C_21  and  C_28 
REMARK       I    between atoms: C_22  and  N_23 
REMARK       I    between atoms: N_23  and  C_24 
REMARK       I    between atoms: C_24  and  N_25 
ROOT
HETATM    1  C   UNL     1      42.598 -14.603   5.379  1.00  0.00     0.166 A 
HETATM    2  N   UNL     1      42.458 -13.226   5.217  1.00  0.00    -0.274 N 
HETATM    3  C   UNL     1      43.504 -12.698   5.954  1.00  0.00     0.197 A 
HETATM    4  N   UNL     1      44.175 -13.660   6.542  1.00  0.00    -0.122 NA
HETATM    5  N   UNL     1      43.592 -14.845   6.212  1.00  0.00    -0.131 NA
ENDROOT
BRANCH   3   6
HETATM    6  S   UNL     1      43.863 -11.022   6.179  1.00  0.00    -0.070 SA
BRANCH   6   7
HETATM    7  C   UNL     1      42.481 -10.473   7.248  1.00  0.00     0.180 C 
BRANCH   7   8
HETATM    8  C   UNL     1      43.022  -9.809   8.523  1.00  0.00     0.244 C 
HETATM    9  N   UNL     1      43.339 -10.686   9.549  1.00  0.00    -0.278 N 
HETATM   10  C   UNL     1      43.868 -10.408  10.776  1.00  0.00     0.320 C 
HETATM   11  H   UNL     1      43.146 -11.670   9.429  1.00  0.00     0.173 HD
HETATM   12  N   UNL     1      44.248  -9.135  11.008  1.00  0.00    -0.352 N 
HETATM   13  O   UNL     1      44.009 -11.286  11.619  1.00  0.00    -0.247 OA
HETATM   14  H   UNL     1      43.900  -8.394  10.408  1.00  0.00     0.160 HD
HETATM   15  H   UNL     1      44.554  -8.900  11.941  1.00  0.00     0.160 HD
HETATM   16  O   UNL     1      43.114  -8.581   8.603  1.00  0.00    -0.271 OA
ENDBRANCH   7   8
BRANCH   7  17
HETATM   17  C   UNL     1      41.425  -9.607   6.563  1.00  0.00    -0.035 A 
HETATM   18  C   UNL     1      40.120  -9.419   7.050  1.00  0.00     0.009 A 
HETATM   19  C   UNL     1      39.198  -8.635   6.348  1.00  0.00     0.001 A 
HETATM   20  C   UNL     1      39.558  -8.035   5.146  1.00  0.00     0.000 A 
HETATM   21  C   UNL     1      40.842  -8.212   4.643  1.00  0.00     0.001 A 
HETATM   22  C   UNL     1      41.768  -8.987   5.345  1.00  0.00     0.009 A 
ENDBRANCH   7  17
ENDBRANCH   6   7
ENDBRANCH   3   6
BRANCH   2  23
HETATM   23  C   UNL     1      41.501 -12.553   4.415  1.00  0.00     0.043 A 
HETATM   24  C   UNL     1      40.173 -12.445   4.857  1.00  0.00     0.033 A 
HETATM   25  C   UNL     1      39.225 -11.806   4.055  1.00  0.00     0.044 A 
HETATM   26  C   UNL     1      39.604 -11.279   2.826  1.00  0.00     0.116 A 
HETATM   27  F   UNL     1      38.690 -10.675   2.059  1.00  0.00    -0.206 F 
HETATM   28  C   UNL     1      40.917 -11.370   2.383  1.00  0.00     0.044 A 
HETATM   29  C   UNL     1      41.874 -12.006   3.178  1.00  0.00     0.033 A 
ENDBRANCH   2  23
BRANCH   1  30
HETATM   30  C   UNL     1      41.882 -15.670   4.608  1.00  0.00     0.255 C 
HETATM   31  C   UNL     1      40.837 -16.378   5.473  1.00  0.00     0.049 C 
BRANCH  30  32
HETATM   32  N   UNL     1      42.810 -16.733   3.972  1.00  0.00    -0.060 N 
HETATM   33  H   UNL     1      43.662 -16.226   3.705  1.00  0.00     0.280 HD
HETATM   34  C   UNL     1      43.227 -17.789   4.975  1.00  0.00     0.236 C 
HETATM   35  C   UNL     1      44.332 -18.649   4.376  1.00  0.00     0.028 C 
HETATM   36  C   UNL     1      43.910 -19.273   3.051  1.00  0.00     0.003 C 
HETATM   37  C   UNL     1      43.399 -18.216   2.078  1.00  0.00     0.028 C 
HETATM   38  C   UNL     1      42.284 -17.382   2.699  1.00  0.00     0.236 C 
ENDBRANCH  30  32
ENDBRANCH   1  30
TORSDOF 7
ENDMDL
MODEL 10
REMARK VINA RESULT:      -7.7      2.675      4.162
REMARK  7 active torsions:
REMARK  status: ('A' for Active; 'I' for Inactive)
REMARK    1  A    between atoms: C_2  and  N_3 
REMARK    2  A    between atoms: C_2  and  C_10 
REMARK    3  A    between atoms: N_11  and  C_12 
REMARK    4  A    between atoms: C_19  and  S_20 
REMARK    5  A    between atoms: S_20  and  C_21 
REMARK    6  A    between atoms: C_21  and  C_22 
REMARK    7  A    between atoms: C_21  and  C_28 
REMARK       I    between atoms: C_22  and  N_23 
REMARK       I    between atoms: N_23  and  C_24 
REMARK       I    between atoms: C_24  and  N_25 
ROOT
HETATM    1  C   UNL     1      41.209 -10.680   0.531  1.00  0.00     0.166 A 
HETATM    2  N   UNL     1      40.847 -12.004   0.291  1.00  0.00    -0.274 N 
HETATM    3  C   UNL     1      41.474 -12.707   1.304  1.00  0.00     0.197 A 
HETATM    4  N   UNL     1      42.185 -11.894   2.049  1.00  0.00    -0.122 NA
HETATM    5  N   UNL     1      42.048 -10.635   1.548  1.00  0.00    -0.131 NA
ENDROOT
BRANCH   3   6
HETATM    6  S   UNL     1      41.439 -14.418   1.545  1.00  0.00    -0.070 SA
BRANCH   6   7
HETATM    7  C   UNL     1      42.462 -14.617   3.051  1.00  0.00     0.180 C 
BRANCH   7   8
HETATM    8  C   UNL     1      41.733 -14.040   4.273  1.00  0.00     0.244 C 
HETATM    9  N   UNL     1      42.425 -13.049   4.954  1.00  0.00    -0.278 N 
HETATM   10  C   UNL     1      42.031 -12.328   6.042  1.00  0.00     0.320 C 
HETATM   11  H   UNL     1      43.361 -12.814   4.656  1.00  0.00     0.173 HD
HETATM   12  N   UNL     1      40.762 -12.498   6.467  1.00  0.00    -0.352 N 
HETATM   13  O   UNL     1      42.795 -11.544   6.594  1.00  0.00    -0.247 OA
HETATM   14  H   UNL     1      40.240 -13.313   6.163  1.00  0.00     0.160 HD
HETATM   15  H   UNL     1      40.489 -12.039   7.325  1.00  0.00     0.160 HD
HETATM   16  O   UNL     1      40.631 -14.480   4.615  1.00  0.00    -0.271 OA
ENDBRANCH   7   8
BRANCH   7  17
HETATM   17  C   UNL     1      42.976 -16.031   3.314  1.00  0.00    -0.035 A 
HETATM   18  C   UNL     1      43.618 -16.431   4.498  1.00  0.00     0.009 A 
HETATM   19  C   UNL     1      44.091 -17.738   4.653  1.00  0.00     0.001 A 
HETATM   20  C   UNL     1      43.941 -18.665   3.626  1.00  0.00     0.000 A 
HETATM   21  C   UNL     1      43.315 -18.290   2.442  1.00  0.00     0.001 A 
HETATM   22  C   UNL     1      42.834 -16.987   2.288  1.00  0.00     0.009 A 
ENDBRANCH   7  17
ENDBRANCH   6   7
ENDBRANCH   3   6
BRANCH   2  23
HETATM   23  C   UNL     1      39.974 -12.481  -0.720  1.00  0.00     0.043 A 
HETATM   24  C   UNL     1      40.503 -12.980  -1.920  1.00  0.00     0.033 A 
HETATM   25  C   UNL     1      39.642 -13.425  -2.926  1.00  0.00     0.044 A 
HETATM   26  C   UNL     1      38.267 -13.372  -2.730  1.00  0.00     0.116 A 
HETATM   27  F   UNL     1      37.448 -13.793  -3.701  1.00  0.00    -0.206 F 
HETATM   28  C   UNL     1      37.732 -12.890  -1.543  1.00  0.00     0.044 A 
HETATM   29  C   UNL     1      38.584 -12.444  -0.529  1.00  0.00     0.033 A 
ENDBRANCH   2  23
BRANCH   1  30
HETATM   30  C   UNL     1      40.621  -9.462  -0.116  1.00  0.00     0.255 C 
HETATM   31  C   UNL     1      39.352  -9.004   0.607  1.00  0.00     0.049 C 
BRANCH  30  32
HETATM   32  N   UNL     1      40.309  -9.624  -1.623  1.00  0.00    -0.060 N 
HETATM   33  H   UNL     1      40.336 -10.636  -1.799  1.00  0.00     0.280 HD
HETATM   34  C   UNL     1      38.907  -9.160  -1.961  1.00  0.00     0.236 C 
HETATM   35  C   UNL     1      38.564  -9.579  -3.384  1.00  0.00     0.028 C 
HETATM   36  C   UNL     1      39.583  -9.058  -4.391  1.00  0.00     0.003 C 
HETATM   37  C   UNL     1      41.004  -9.445  -3.994  1.00  0.00     0.028 C 
HETATM   38  C   UNL     1      41.323  -9.000  -2.571  1.00  0.00     0.236 C 
ENDBRANCH  30  32
ENDBRANCH   1  30
TORSDOF 7
ENDMDL
