MODEL 1
REMARK VINA RESULT:      -9.9      0.000      0.000
REMARK  7 active torsions:
REMARK  status: ('A' for Active; 'I' for Inactive)
REMARK    1  A    between atoms: C_2  and  C_3 
REMARK    2  A    between atoms: C_3  and  C_4 
REMARK    3  A    between atoms: C_4  and  N_5 
REMARK       I    between atoms: N_5  and  C_6 
REMARK    4  A    between atoms: C_6  and  C_7 
REMARK    5  A    between atoms: C_8  and  N_9 
REMARK    6  A    between atoms: N_10  and  N_11 
REMARK    7  A    between atoms: C_12  and  C_13 
ROOT
HETATM    1  C   UNL     1      42.969 -14.025   5.241  1.00  0.00     0.104 C 
HETATM    2  C   UNL     1      42.182 -13.319   4.337  1.00  0.00     0.123 C 
HETATM    3  N   UNL     1      42.300 -13.963   3.104  1.00  0.00    -0.202 N 
HETATM    4  C   UNL     1      42.631 -15.278   3.364  1.00  0.00     0.183 A 
HETATM    5  C   UNL     1      43.126 -15.319   4.667  1.00  0.00     0.124 A 
HETATM    6  N   UNL     1      43.678 -16.456   5.164  1.00  0.00    -0.242 NA
HETATM    7  C   UNL     1      43.641 -17.513   4.336  1.00  0.00     0.086 A 
HETATM    8  C   UNL     1      43.101 -17.446   3.023  1.00  0.00     0.088 A 
HETATM    9  N   UNL     1      42.611 -16.314   2.496  1.00  0.00    -0.225 NA
HETATM   10  C   UNL     1      44.145 -18.726   4.788  1.00  0.00     0.034 A 
HETATM   11  C   UNL     1      44.119 -19.874   3.993  1.00  0.00     0.002 A 
HETATM   12  C   UNL     1      43.579 -19.809   2.717  1.00  0.00     0.002 A 
HETATM   13  C   UNL     1      43.079 -18.596   2.244  1.00  0.00     0.034 A 
ENDROOT
BRANCH   3  14
HETATM   14  N   UNL     1      42.190 -13.396   1.853  1.00  0.00    -0.176 NA
HETATM   15  C   UNL     1      40.965 -13.347   1.441  1.00  0.00     0.153 C 
BRANCH  15  16
HETATM   16  C   UNL     1      40.602 -12.753   0.176  1.00  0.00     0.011 A 
HETATM   17  C   UNL     1      39.932 -13.420  -0.899  1.00  0.00     0.004 A 
HETATM   18  C   UNL     1      39.659 -12.462  -1.875  1.00  0.00     0.043 A 
HETATM   19  C   UNL     1      39.523 -14.753  -1.126  1.00  0.00     0.014 A 
HETATM   20  C   UNL     1      38.972 -12.765  -3.057  1.00  0.00     0.030 A 
HETATM   21  N   UNL     1      40.174 -11.268  -1.424  1.00  0.00    -0.364 N 
HETATM   22  C   UNL     1      38.575 -14.092  -3.257  1.00  0.00     0.002 A 
HETATM   23  C   UNL     1      38.852 -15.076  -2.311  1.00  0.00     0.001 A 
HETATM   24  H   UNL     1      40.112 -10.392  -1.923  1.00  0.00     0.165 HD
HETATM   25  C   UNL     1      40.763 -11.436  -0.199  1.00  0.00     0.102 A 
ENDBRANCH  15  16
ENDBRANCH   3  14
BRANCH   2  26
HETATM   26  N   UNL     1      41.500 -12.138   4.476  1.00  0.00    -0.286 NA
HETATM   27  H   UNL     1      41.060 -11.970   5.385  1.00  0.00     0.125 HD
HETATM   28  H   UNL     1      40.829 -11.913   3.734  1.00  0.00     0.125 HD
ENDBRANCH   2  26
BRANCH   1  29
HETATM   29  C   UNL     1      43.508 -13.492   6.488  1.00  0.00     0.257 C 
HETATM   30  N   UNL     1      44.106 -12.258   6.309  1.00  0.00    -0.357 N 
HETATM   31  H   UNL     1      44.149 -11.926   5.351  1.00  0.00     0.162 HD
HETATM   32  O   UNL     1      43.517 -14.093   7.554  1.00  0.00    -0.267 OA
BRANCH  30  33
HETATM   33  C   UNL     1      45.007 -11.645   7.261  1.00  0.00     0.123 C 
BRANCH  33  34
HETATM   34  C   UNL     1      44.201 -10.743   8.198  1.00  0.00     0.023 C 
BRANCH  34  35
HETATM   35  C   UNL     1      44.972  -9.539   8.757  1.00  0.00    -0.021 C 
HETATM   36  C   UNL     1      46.294  -9.313   8.027  1.00  0.00     0.009 C 
HETATM   37  C   UNL     1      45.233  -9.751  10.253  1.00  0.00     0.009 C 
ENDBRANCH  34  35
ENDBRANCH  33  34
ENDBRANCH  30  33
ENDBRANCH   1  29
TORSDOF 7
ENDMDL
MODEL 2
REMARK VINA RESULT:      -9.5      2.086      7.936
REMARK  7 active torsions:
REMARK  status: ('A' for Active; 'I' for Inactive)
REMARK    1  A    between atoms: C_2  and  C_3 
REMARK    2  A    between atoms: C_3  and  C_4 
REMARK    3  A    between atoms: C_4  and  N_5 
REMARK       I    between atoms: N_5  and  C_6 
REMARK    4  A    between atoms: C_6  and  C_7 
REMARK    5  A    between atoms: C_8  and  N_9 
REMARK    6  A    between atoms: N_10  and  N_11 
REMARK    7  A    between atoms: C_12  and  C_13 
ROOT
HETATM    1  C   UNL     1      41.471 -14.150   1.352  1.00  0.00     0.104 C 
HETATM    2  C   UNL     1      41.721 -13.011   2.112  1.00  0.00     0.123 C 
HETATM    3  N   UNL     1      42.016 -13.441   3.406  1.00  0.00    -0.202 N 
HETATM    4  C   UNL     1      42.500 -14.730   3.305  1.00  0.00     0.183 A 
HETATM    5  C   UNL     1      42.097 -15.215   2.061  1.00  0.00     0.124 A 
HETATM    6  N   UNL     1      42.294 -16.517   1.727  1.00  0.00    -0.242 NA
HETATM    7  C   UNL     1      42.947 -17.246   2.646  1.00  0.00     0.086 A 
HETATM    8  C   UNL     1      43.371 -16.713   3.895  1.00  0.00     0.088 A 
HETATM    9  N   UNL     1      43.128 -15.447   4.264  1.00  0.00    -0.225 NA
HETATM   10  C   UNL     1      43.228 -18.576   2.360  1.00  0.00     0.034 A 
HETATM   11  C   UNL     1      43.923 -19.389   3.257  1.00  0.00     0.002 A 
HETATM   12  C   UNL     1      44.348 -18.863   4.468  1.00  0.00     0.002 A 
HETATM   13  C   UNL     1      44.065 -17.532   4.775  1.00  0.00     0.034 A 
ENDROOT
BRANCH   3  14
HETATM   14  N   UNL     1      41.801 -12.756   4.582  1.00  0.00    -0.176 NA
HETATM   15  C   UNL     1      42.847 -12.102   4.970  1.00  0.00     0.153 C 
BRANCH  15  16
HETATM   16  C   UNL     1      42.842 -11.274   6.153  1.00  0.00     0.011 A 
HETATM   17  C   UNL     1      43.999 -10.853   6.884  1.00  0.00     0.004 A 
HETATM   18  C   UNL     1      43.566  -9.969   7.872  1.00  0.00     0.043 A 
HETATM   19  C   UNL     1      45.380 -11.134   6.785  1.00  0.00     0.014 A 
HETATM   20  C   UNL     1      44.450  -9.332   8.752  1.00  0.00     0.030 A 
HETATM   21  N   UNL     1      42.196  -9.887   7.768  1.00  0.00    -0.364 N 
HETATM   22  C   UNL     1      45.812  -9.625   8.632  1.00  0.00     0.002 A 
HETATM   23  C   UNL     1      46.274 -10.519   7.669  1.00  0.00     0.001 A 
HETATM   24  H   UNL     1      41.611  -9.307   8.353  1.00  0.00     0.165 HD
HETATM   25  C   UNL     1      41.747 -10.686   6.749  1.00  0.00     0.102 A 
ENDBRANCH  15  16
ENDBRANCH   3  14
BRANCH   2  26
HETATM   26  N   UNL     1      41.596 -11.682   1.799  1.00  0.00    -0.286 NA
HETATM   27  H   UNL     1      40.695 -11.389   1.410  1.00  0.00     0.125 HD
HETATM   28  H   UNL     1      42.350 -11.277   1.235  1.00  0.00     0.125 HD
ENDBRANCH   2  26
BRANCH   1  29
HETATM   29  C   UNL     1      40.703 -14.187   0.113  1.00  0.00     0.257 C 
HETATM   30  N   UNL     1      41.136 -13.236  -0.794  1.00  0.00    -0.357 N 
HETATM   31  H   UNL     1      41.864 -12.612  -0.463  1.00  0.00     0.162 HD
HETATM   32  O   UNL     1      39.732 -14.906  -0.082  1.00  0.00    -0.267 OA
BRANCH  30  33
HETATM   33  C   UNL     1      40.376 -12.808  -1.949  1.00  0.00     0.123 C 
BRANCH  33  34
HETATM   34  C   UNL     1      39.715 -11.463  -1.638  1.00  0.00     0.023 C 
BRANCH  34  35
HETATM   35  C   UNL     1      38.227 -11.545  -1.270  1.00  0.00    -0.021 C 
HETATM   36  C   UNL     1      38.009 -11.579   0.241  1.00  0.00     0.009 C 
HETATM   37  C   UNL     1      37.611 -12.793  -1.913  1.00  0.00     0.009 C 
ENDBRANCH  34  35
ENDBRANCH  33  34
ENDBRANCH  30  33
ENDBRANCH   1  29
TORSDOF 7
ENDMDL
MODEL 3
REMARK VINA RESULT:      -9.4      1.585      2.352
REMARK  7 active torsions:
REMARK  status: ('A' for Active; 'I' for Inactive)
REMARK    1  A    between atoms: C_2  and  C_3 
REMARK    2  A    between atoms: C_3  and  C_4 
REMARK    3  A    between atoms: C_4  and  N_5 
REMARK       I    between atoms: N_5  and  C_6 
REMARK    4  A    between atoms: C_6  and  C_7 
REMARK    5  A    between atoms: C_8  and  N_9 
REMARK    6  A    between atoms: N_10  and  N_11 
REMARK    7  A    between atoms: C_12  and  C_13 
ROOT
HETATM    1  C   UNL     1      41.446 -13.943   4.554  1.00  0.00     0.104 C 
HETATM    2  C   UNL     1      40.350 -13.742   3.721  1.00  0.00     0.123 C 
HETATM    3  N   UNL     1      40.550 -14.530   2.586  1.00  0.00    -0.202 N 
HETATM    4  C   UNL     1      41.377 -15.572   2.956  1.00  0.00     0.183 A 
HETATM    5  C   UNL     1      42.005 -15.186   4.141  1.00  0.00     0.124 A 
HETATM    6  N   UNL     1      42.998 -15.942   4.678  1.00  0.00    -0.242 NA
HETATM    7  C   UNL     1      43.258 -17.085   4.021  1.00  0.00     0.086 A 
HETATM    8  C   UNL     1      42.578 -17.463   2.831  1.00  0.00     0.088 A 
HETATM    9  N   UNL     1      41.641 -16.697   2.254  1.00  0.00    -0.225 NA
HETATM   10  C   UNL     1      44.229 -17.936   4.532  1.00  0.00     0.034 A 
HETATM   11  C   UNL     1      44.538 -19.152   3.918  1.00  0.00     0.002 A 
HETATM   12  C   UNL     1      43.863 -19.525   2.765  1.00  0.00     0.002 A 
HETATM   13  C   UNL     1      42.893 -18.676   2.232  1.00  0.00     0.034 A 
ENDROOT
BRANCH   3  14
HETATM   14  N   UNL     1      40.086 -14.289   1.312  1.00  0.00    -0.176 NA
HETATM   15  C   UNL     1      40.803 -13.414   0.683  1.00  0.00     0.153 C 
BRANCH  15  16
HETATM   16  C   UNL     1      40.532 -13.037  -0.684  1.00  0.00     0.011 A 
HETATM   17  C   UNL     1      40.780 -11.750  -1.260  1.00  0.00     0.004 A 
HETATM   18  C   UNL     1      40.501 -11.846  -2.623  1.00  0.00     0.043 A 
HETATM   19  C   UNL     1      41.230 -10.513  -0.747  1.00  0.00     0.014 A 
HETATM   20  C   UNL     1      40.673 -10.772  -3.505  1.00  0.00     0.030 A 
HETATM   21  N   UNL     1      40.065 -13.131  -2.856  1.00  0.00    -0.364 N 
HETATM   22  C   UNL     1      41.123  -9.559  -2.972  1.00  0.00     0.002 A 
HETATM   23  C   UNL     1      41.391  -9.425  -1.613  1.00  0.00     0.001 A 
HETATM   24  H   UNL     1      39.801 -13.491  -3.763  1.00  0.00     0.165 HD
HETATM   25  C   UNL     1      40.060 -13.851  -1.691  1.00  0.00     0.102 A 
ENDBRANCH  15  16
ENDBRANCH   3  14
BRANCH   2  26
HETATM   26  N   UNL     1      39.298 -12.869   3.822  1.00  0.00    -0.286 NA
HETATM   27  H   UNL     1      38.925 -12.502   2.942  1.00  0.00     0.125 HD
HETATM   28  H   UNL     1      39.415 -12.094   4.483  1.00  0.00     0.125 HD
ENDBRANCH   2  26
BRANCH   1  29
HETATM   29  C   UNL     1      41.894 -13.027   5.597  1.00  0.00     0.257 C 
HETATM   30  N   UNL     1      43.224 -13.222   5.923  1.00  0.00    -0.357 N 
HETATM   31  H   UNL     1      43.682 -13.997   5.455  1.00  0.00     0.162 HD
HETATM   32  O   UNL     1      41.169 -12.237   6.187  1.00  0.00    -0.267 OA
BRANCH  30  33
HETATM   33  C   UNL     1      43.851 -12.715   7.124  1.00  0.00     0.123 C 
BRANCH  33  34
HETATM   34  C   UNL     1      44.913 -11.685   6.734  1.00  0.00     0.023 C 
BRANCH  34  35
HETATM   35  C   UNL     1      44.833 -10.355   7.495  1.00  0.00    -0.021 C 
HETATM   36  C   UNL     1      45.419 -10.460   8.901  1.00  0.00     0.009 C 
HETATM   37  C   UNL     1      43.371  -9.899   7.573  1.00  0.00     0.009 C 
ENDBRANCH  34  35
ENDBRANCH  33  34
ENDBRANCH  30  33
ENDBRANCH   1  29
TORSDOF 7
ENDMDL
MODEL 4
REMARK VINA RESULT:      -9.1      3.275      7.033
REMARK  7 active torsions:
REMARK  status: ('A' for Active; 'I' for Inactive)
REMARK    1  A    between atoms: C_2  and  C_3 
REMARK    2  A    between atoms: C_3  and  C_4 
REMARK    3  A    between atoms: C_4  and  N_5 
REMARK       I    between atoms: N_5  and  C_6 
REMARK    4  A    between atoms: C_6  and  C_7 
REMARK    5  A    between atoms: C_8  and  N_9 
REMARK    6  A    between atoms: N_10  and  N_11 
REMARK    7  A    between atoms: C_12  and  C_13 
ROOT
HETATM    1  C   UNL     1      43.834 -10.592   7.390  1.00  0.00     0.104 C 
HETATM    2  C   UNL     1      44.519 -10.961   6.237  1.00  0.00     0.123 C 
HETATM    3  N   UNL     1      43.576 -11.048   5.212  1.00  0.00    -0.202 N 
HETATM    4  C   UNL     1      42.525 -10.222   5.558  1.00  0.00     0.183 A 
HETATM    5  C   UNL     1      42.626  -9.994   6.930  1.00  0.00     0.124 A 
HETATM    6  N   UNL     1      41.644  -9.335   7.598  1.00  0.00    -0.242 NA
HETATM    7  C   UNL     1      40.639  -8.884   6.829  1.00  0.00     0.086 A 
HETATM    8  C   UNL     1      40.581  -9.107   5.426  1.00  0.00     0.088 A 
HETATM    9  N   UNL     1      41.511  -9.810   4.763  1.00  0.00    -0.225 NA
HETATM   10  C   UNL     1      39.618  -8.160   7.431  1.00  0.00     0.034 A 
HETATM   11  C   UNL     1      38.553  -7.639   6.693  1.00  0.00     0.002 A 
HETATM   12  C   UNL     1      38.506  -7.846   5.322  1.00  0.00     0.002 A 
HETATM   13  C   UNL     1      39.518  -8.580   4.704  1.00  0.00     0.034 A 
ENDROOT
BRANCH   3  14
HETATM   14  N   UNL     1      43.627 -11.856   4.098  1.00  0.00    -0.176 NA
HETATM   15  C   UNL     1      43.083 -13.012   4.303  1.00  0.00     0.153 C 
BRANCH  15  16
HETATM   16  C   UNL     1      42.980 -14.009   3.263  1.00  0.00     0.011 A 
HETATM   17  C   UNL     1      43.185 -15.416   3.431  1.00  0.00     0.004 A 
HETATM   18  C   UNL     1      42.864 -16.028   2.220  1.00  0.00     0.043 A 
HETATM   19  C   UNL     1      43.603 -16.227   4.509  1.00  0.00     0.014 A 
HETATM   20  C   UNL     1      42.916 -17.417   2.040  1.00  0.00     0.030 A 
HETATM   21  N   UNL     1      42.514 -15.028   1.342  1.00  0.00    -0.364 N 
HETATM   22  C   UNL     1      43.331 -18.197   3.125  1.00  0.00     0.002 A 
HETATM   23  C   UNL     1      43.678 -17.614   4.341  1.00  0.00     0.001 A 
HETATM   24  H   UNL     1      42.221 -15.180   0.387  1.00  0.00     0.165 HD
HETATM   25  C   UNL     1      42.600 -13.805   1.954  1.00  0.00     0.102 A 
ENDBRANCH  15  16
ENDBRANCH   3  14
BRANCH   2  26
HETATM   26  N   UNL     1      45.826 -11.331   6.053  1.00  0.00    -0.286 NA
HETATM   27  H   UNL     1      45.990 -12.299   5.763  1.00  0.00     0.125 HD
HETATM   28  H   UNL     1      46.474 -11.097   6.813  1.00  0.00     0.125 HD
ENDBRANCH   2  26
BRANCH   1  29
HETATM   29  C   UNL     1      44.295 -10.816   8.756  1.00  0.00     0.257 C 
HETATM   30  N   UNL     1      43.273 -10.678   9.678  1.00  0.00    -0.357 N 
HETATM   31  H   UNL     1      42.379 -10.382   9.301  1.00  0.00     0.162 HD
HETATM   32  O   UNL     1      45.461 -11.013   9.072  1.00  0.00    -0.267 OA
BRANCH  30  33
HETATM   33  C   UNL     1      43.477 -10.508  11.100  1.00  0.00     0.123 C 
BRANCH  33  34
HETATM   34  C   UNL     1      42.765  -9.232  11.555  1.00  0.00     0.023 C 
BRANCH  34  35
HETATM   35  C   UNL     1      42.681  -9.048  13.077  1.00  0.00    -0.021 C 
HETATM   36  C   UNL     1      41.262  -9.249  13.603  1.00  0.00     0.009 C 
HETATM   37  C   UNL     1      43.182  -7.648  13.450  1.00  0.00     0.009 C 
ENDBRANCH  34  35
ENDBRANCH  33  34
ENDBRANCH  30  33
ENDBRANCH   1  29
TORSDOF 7
ENDMDL
MODEL 5
REMARK VINA RESULT:      -9.0      2.168      8.613
REMARK  7 active torsions:
REMARK  status: ('A' for Active; 'I' for Inactive)
REMARK    1  A    between atoms: C_2  and  C_3 
REMARK    2  A    between atoms: C_3  and  C_4 
REMARK    3  A    between atoms: C_4  and  N_5 
REMARK       I    between atoms: N_5  and  C_6 
REMARK    4  A    between atoms: C_6  and  C_7 
REMARK    5  A    between atoms: C_8  and  N_9 
REMARK    6  A    between atoms: N_10  and  N_11 
REMARK    7  A    between atoms: C_12  and  C_13 
ROOT
HETATM    1  C   UNL     1      40.580 -14.473   4.305  1.00  0.00     0.104 C 
HETATM    2  C   UNL     1      40.283 -13.791   5.481  1.00  0.00     0.123 C 
HETATM    3  N   UNL     1      40.170 -12.440   5.152  1.00  0.00    -0.202 N 
HETATM    4  C   UNL     1      39.825 -12.375   3.816  1.00  0.00     0.183 A 
HETATM    5  C   UNL     1      40.150 -13.611   3.256  1.00  0.00     0.124 A 
HETATM    6  N   UNL     1      40.067 -13.808   1.915  1.00  0.00    -0.242 NA
HETATM    7  C   UNL     1      39.595 -12.762   1.216  1.00  0.00     0.086 A 
HETATM    8  C   UNL     1      39.244 -11.525   1.822  1.00  0.00     0.088 A 
HETATM    9  N   UNL     1      39.381 -11.294   3.136  1.00  0.00    -0.225 NA
HETATM   10  C   UNL     1      39.437 -12.900  -0.157  1.00  0.00     0.034 A 
HETATM   11  C   UNL     1      38.931 -11.865  -0.946  1.00  0.00     0.002 A 
HETATM   12  C   UNL     1      38.575 -10.664  -0.350  1.00  0.00     0.002 A 
HETATM   13  C   UNL     1      38.738 -10.505   1.026  1.00  0.00     0.034 A 
ENDROOT
BRANCH   3  14
HETATM   14  N   UNL     1      40.425 -11.358   5.966  1.00  0.00    -0.176 NA
HETATM   15  C   UNL     1      41.692 -11.129   6.096  1.00  0.00     0.153 C 
BRANCH  15  16
HETATM   16  C   UNL     1      42.197 -10.017   6.868  1.00  0.00     0.011 A 
HETATM   17  C   UNL     1      43.460  -9.972   7.540  1.00  0.00     0.004 A 
HETATM   18  C   UNL     1      43.611  -8.683   8.051  1.00  0.00     0.043 A 
HETATM   19  C   UNL     1      44.497 -10.909   7.749  1.00  0.00     0.014 A 
HETATM   20  C   UNL     1      44.760  -8.276   8.741  1.00  0.00     0.030 A 
HETATM   21  N   UNL     1      42.467  -7.987   7.733  1.00  0.00    -0.364 N 
HETATM   22  C   UNL     1      45.773  -9.222   8.932  1.00  0.00     0.002 A 
HETATM   23  C   UNL     1      45.644 -10.522   8.451  1.00  0.00     0.001 A 
HETATM   24  H   UNL     1      42.303  -7.018   7.969  1.00  0.00     0.165 HD
HETATM   25  C   UNL     1      41.599  -8.787   7.039  1.00  0.00     0.102 A 
ENDBRANCH  15  16
ENDBRANCH   3  14
BRANCH   2  26
HETATM   26  N   UNL     1      40.227 -14.229   6.779  1.00  0.00    -0.286 NA
HETATM   27  H   UNL     1      40.388 -15.229   6.930  1.00  0.00     0.125 HD
HETATM   28  H   UNL     1      39.406 -13.938   7.320  1.00  0.00     0.125 HD
ENDBRANCH   2  26
BRANCH   1  29
HETATM   29  C   UNL     1      41.218 -15.782   4.226  1.00  0.00     0.257 C 
HETATM   30  N   UNL     1      41.645 -16.074   2.943  1.00  0.00    -0.357 N 
HETATM   31  H   UNL     1      41.406 -15.389   2.234  1.00  0.00     0.162 HD
HETATM   32  O   UNL     1      41.293 -16.576   5.154  1.00  0.00    -0.267 OA
BRANCH  30  33
HETATM   33  C   UNL     1      41.999 -17.400   2.485  1.00  0.00     0.123 C 
BRANCH  33  34
HETATM   34  C   UNL     1      43.522 -17.498   2.377  1.00  0.00     0.023 C 
BRANCH  34  35
HETATM   35  C   UNL     1      44.118 -18.831   2.851  1.00  0.00    -0.021 C 
HETATM   36  C   UNL     1      43.444 -20.030   2.190  1.00  0.00     0.009 C 
HETATM   37  C   UNL     1      43.989 -18.934   4.375  1.00  0.00     0.009 C 
ENDBRANCH  34  35
ENDBRANCH  33  34
ENDBRANCH  30  33
ENDBRANCH   1  29
TORSDOF 7
ENDMDL
MODEL 6
REMARK VINA RESULT:      -8.9      2.665      8.742
REMARK  7 active torsions:
REMARK  status: ('A' for Active; 'I' for Inactive)
REMARK    1  A    between atoms: C_2  and  C_3 
REMARK    2  A    between atoms: C_3  and  C_4 
REMARK    3  A    between atoms: C_4  and  N_5 
REMARK       I    between atoms: N_5  and  C_6 
REMARK    4  A    between atoms: C_6  and  C_7 
REMARK    5  A    between atoms: C_8  and  N_9 
REMARK    6  A    between atoms: N_10  and  N_11 
REMARK    7  A    between atoms: C_12  and  C_13 
ROOT
HETATM    1  C   UNL     1      40.081 -11.863   2.240  1.00  0.00     0.104 C 
HETATM    2  C   UNL     1      39.817 -13.138   2.728  1.00  0.00     0.123 C 
HETATM    3  N   UNL     1      40.493 -13.259   3.943  1.00  0.00    -0.202 N 
HETATM    4  C   UNL     1      40.653 -11.983   4.446  1.00  0.00     0.183 A 
HETATM    5  C   UNL     1      40.479 -11.103   3.378  1.00  0.00     0.124 A 
HETATM    6  N   UNL     1      40.725  -9.776   3.525  1.00  0.00    -0.242 NA
HETATM    7  C   UNL     1      41.071  -9.398   4.767  1.00  0.00     0.086 A 
HETATM    8  C   UNL     1      41.211 -10.317   5.842  1.00  0.00     0.088 A 
HETATM    9  N   UNL     1      41.034 -11.638   5.697  1.00  0.00    -0.225 NA
HETATM   10  C   UNL     1      41.295  -8.048   5.010  1.00  0.00     0.034 A 
HETATM   11  C   UNL     1      41.635  -7.578   6.280  1.00  0.00     0.002 A 
HETATM   12  C   UNL     1      41.757  -8.475   7.330  1.00  0.00     0.002 A 
HETATM   13  C   UNL     1      41.547  -9.834   7.101  1.00  0.00     0.034 A 
ENDROOT
BRANCH   3  14
HETATM   14  N   UNL     1      40.987 -14.412   4.512  1.00  0.00    -0.176 NA
HETATM   15  C   UNL     1      42.163 -14.716   4.068  1.00  0.00     0.153 C 
BRANCH  15  16
HETATM   16  C   UNL     1      42.897 -15.860   4.555  1.00  0.00     0.011 A 
HETATM   17  C   UNL     1      43.102 -17.086   3.844  1.00  0.00     0.004 A 
HETATM   18  C   UNL     1      43.965 -17.870   4.611  1.00  0.00     0.043 A 
HETATM   19  C   UNL     1      42.641 -17.597   2.611  1.00  0.00     0.014 A 
HETATM   20  C   UNL     1      44.410 -19.130   4.192  1.00  0.00     0.030 A 
HETATM   21  N   UNL     1      44.242 -17.161   5.757  1.00  0.00    -0.364 N 
HETATM   22  C   UNL     1      43.941 -19.611   2.965  1.00  0.00     0.002 A 
HETATM   23  C   UNL     1      43.062 -18.862   2.187  1.00  0.00     0.001 A 
HETATM   24  H   UNL     1      44.855 -17.481   6.495  1.00  0.00     0.165 HD
HETATM   25  C   UNL     1      43.588 -15.958   5.744  1.00  0.00     0.102 A 
ENDBRANCH  15  16
ENDBRANCH   3  14
BRANCH   2  26
HETATM   26  N   UNL     1      39.158 -14.195   2.156  1.00  0.00    -0.286 NA
HETATM   27  H   UNL     1      38.135 -14.157   2.170  1.00  0.00     0.125 HD
HETATM   28  H   UNL     1      39.460 -15.130   2.452  1.00  0.00     0.125 HD
ENDBRANCH   2  26
BRANCH   1  29
HETATM   29  C   UNL     1      39.978 -11.453   0.844  1.00  0.00     0.257 C 
HETATM   30  N   UNL     1      38.712 -11.673   0.332  1.00  0.00    -0.357 N 
HETATM   31  H   UNL     1      38.060 -12.138   0.955  1.00  0.00     0.162 HD
HETATM   32  O   UNL     1      40.913 -11.047   0.167  1.00  0.00    -0.267 OA
BRANCH  30  33
HETATM   33  C   UNL     1      38.396 -11.687  -1.080  1.00  0.00     0.123 C 
BRANCH  33  34
HETATM   34  C   UNL     1      38.047 -13.118  -1.497  1.00  0.00     0.023 C 
BRANCH  34  35
HETATM   35  C   UNL     1      39.253 -14.000  -1.849  1.00  0.00    -0.021 C 
HETATM   36  C   UNL     1      40.322 -13.232  -2.622  1.00  0.00     0.009 C 
HETATM   37  C   UNL     1      38.780 -15.206  -2.670  1.00  0.00     0.009 C 
ENDBRANCH  34  35
ENDBRANCH  33  34
ENDBRANCH  30  33
ENDBRANCH   1  29
TORSDOF 7
ENDMDL
MODEL 7
REMARK VINA RESULT:      -8.8      3.628      8.344
REMARK  7 active torsions:
REMARK  status: ('A' for Active; 'I' for Inactive)
REMARK    1  A    between atoms: C_2  and  C_3 
REMARK    2  A    between atoms: C_3  and  C_4 
REMARK    3  A    between atoms: C_4  and  N_5 
REMARK       I    between atoms: N_5  and  C_6 
REMARK    4  A    between atoms: C_6  and  C_7 
REMARK    5  A    between atoms: C_8  and  N_9 
REMARK    6  A    between atoms: N_10  and  N_11 
REMARK    7  A    between atoms: C_12  and  C_13 
ROOT
HETATM    1  C   UNL     1      40.054 -12.745   0.791  1.00  0.00     0.104 C 
HETATM    2  C   UNL     1      39.936 -14.094   1.112  1.00  0.00     0.123 C 
HETATM    3  N   UNL     1      40.125 -14.203   2.491  1.00  0.00    -0.202 N 
HETATM    4  C   UNL     1      39.783 -12.986   3.045  1.00  0.00     0.183 A 
HETATM    5  C   UNL     1      39.813 -12.050   2.011  1.00  0.00     0.124 A 
HETATM    6  N   UNL     1      39.667 -10.725   2.270  1.00  0.00    -0.242 NA
HETATM    7  C   UNL     1      39.432 -10.422   3.558  1.00  0.00     0.086 A 
HETATM    8  C   UNL     1      39.377 -11.404   4.584  1.00  0.00     0.088 A 
HETATM    9  N   UNL     1      39.583 -12.709   4.353  1.00  0.00    -0.225 NA
HETATM   10  C   UNL     1      39.226  -9.091   3.898  1.00  0.00     0.034 A 
HETATM   11  C   UNL     1      38.953  -8.702   5.210  1.00  0.00     0.002 A 
HETATM   12  C   UNL     1      38.886  -9.664   6.207  1.00  0.00     0.002 A 
HETATM   13  C   UNL     1      39.102 -11.003   5.885  1.00  0.00     0.034 A 
ENDROOT
BRANCH   3  14
HETATM   14  N   UNL     1      40.630 -15.284   3.180  1.00  0.00    -0.176 NA
HETATM   15  C   UNL     1      41.921 -15.260   3.255  1.00  0.00     0.153 C 
BRANCH  15  16
HETATM   16  C   UNL     1      42.669 -16.267   3.970  1.00  0.00     0.011 A 
HETATM   17  C   UNL     1      42.995 -17.572   3.479  1.00  0.00     0.004 A 
HETATM   18  C   UNL     1      43.828 -18.173   4.422  1.00  0.00     0.043 A 
HETATM   19  C   UNL     1      42.666 -18.293   2.310  1.00  0.00     0.014 A 
HETATM   20  C   UNL     1      44.371 -19.452   4.242  1.00  0.00     0.030 A 
HETATM   21  N   UNL     1      43.971 -17.281   5.461  1.00  0.00    -0.364 N 
HETATM   22  C   UNL     1      44.032 -20.143   3.074  1.00  0.00     0.002 A 
HETATM   23  C   UNL     1      43.186 -19.579   2.123  1.00  0.00     0.001 A 
HETATM   24  H   UNL     1      44.535 -17.446   6.284  1.00  0.00     0.165 HD
HETATM   25  C   UNL     1      43.260 -16.138   5.209  1.00  0.00     0.102 A 
ENDBRANCH  15  16
ENDBRANCH   3  14
BRANCH   2  26
HETATM   26  N   UNL     1      39.804 -15.196   0.308  1.00  0.00    -0.286 NA
HETATM   27  H   UNL     1      39.882 -16.108   0.768  1.00  0.00     0.125 HD
HETATM   28  H   UNL     1      40.371 -15.204  -0.546  1.00  0.00     0.125 HD
ENDBRANCH   2  26
BRANCH   1  29
HETATM   29  C   UNL     1      40.380 -12.216  -0.528  1.00  0.00     0.257 C 
HETATM   30  N   UNL     1      41.212 -11.114  -0.454  1.00  0.00    -0.357 N 
HETATM   31  H   UNL     1      41.426 -10.787   0.482  1.00  0.00     0.162 HD
HETATM   32  O   UNL     1      39.909 -12.631  -1.579  1.00  0.00    -0.267 OA
BRANCH  30  33
HETATM   33  C   UNL     1      41.432 -10.185  -1.542  1.00  0.00     0.123 C 
BRANCH  33  34
HETATM   34  C   UNL     1      41.845  -8.830  -0.962  1.00  0.00     0.023 C 
BRANCH  34  35
HETATM   35  C   UNL     1      42.859  -8.048  -1.809  1.00  0.00    -0.021 C 
HETATM   36  C   UNL     1      43.286  -6.746  -1.137  1.00  0.00     0.009 C 
HETATM   37  C   UNL     1      42.253  -7.751  -3.185  1.00  0.00     0.009 C 
ENDBRANCH  34  35
ENDBRANCH  33  34
ENDBRANCH  30  33
ENDBRANCH   1  29
TORSDOF 7
ENDMDL
MODEL 8
REMARK VINA RESULT:      -8.8      3.022      7.456
REMARK  7 active torsions:
REMARK  status: ('A' for Active; 'I' for Inactive)
REMARK    1  A    between atoms: C_2  and  C_3 
REMARK    2  A    between atoms: C_3  and  C_4 
REMARK    3  A    between atoms: C_4  and  N_5 
REMARK       I    between atoms: N_5  and  C_6 
REMARK    4  A    between atoms: C_6  and  C_7 
REMARK    5  A    between atoms: C_8  and  N_9 
REMARK    6  A    between atoms: N_10  and  N_11 
REMARK    7  A    between atoms: C_12  and  C_13 
ROOT
HETATM    1  C   UNL     1      41.343 -10.994   2.786  1.00  0.00     0.104 C 
HETATM    2  C   UNL     1      42.575 -11.610   2.982  1.00  0.00     0.123 C 
HETATM    3  N   UNL     1      42.484 -12.889   2.430  1.00  0.00    -0.202 N 
HETATM    4  C   UNL     1      41.507 -12.841   1.456  1.00  0.00     0.183 A 
HETATM    5  C   UNL     1      40.737 -11.707   1.712  1.00  0.00     0.124 A 
HETATM    6  N   UNL     1      39.599 -11.468   1.010  1.00  0.00    -0.242 NA
HETATM    7  C   UNL     1      39.335 -12.357   0.038  1.00  0.00     0.086 A 
HETATM    8  C   UNL     1      40.159 -13.488  -0.218  1.00  0.00     0.088 A 
HETATM    9  N   UNL     1      41.249 -13.772   0.509  1.00  0.00    -0.225 NA
HETATM   10  C   UNL     1      38.213 -12.157  -0.756  1.00  0.00     0.034 A 
HETATM   11  C   UNL     1      37.888 -13.025  -1.800  1.00  0.00     0.002 A 
HETATM   12  C   UNL     1      38.700 -14.120  -2.056  1.00  0.00     0.002 A 
HETATM   13  C   UNL     1      39.825 -14.341  -1.261  1.00  0.00     0.034 A 
ENDROOT
BRANCH   3  14
HETATM   14  N   UNL     1      43.172 -14.017   2.822  1.00  0.00    -0.176 NA
HETATM   15  C   UNL     1      42.648 -14.575   3.864  1.00  0.00     0.153 C 
BRANCH  15  16
HETATM   16  C   UNL     1      43.173 -15.797   4.428  1.00  0.00     0.011 A 
HETATM   17  C   UNL     1      43.252 -17.060   3.758  1.00  0.00     0.004 A 
HETATM   18  C   UNL     1      43.934 -17.935   4.602  1.00  0.00     0.043 A 
HETATM   19  C   UNL     1      42.814 -17.536   2.502  1.00  0.00     0.014 A 
HETATM   20  C   UNL     1      44.224 -19.257   4.243  1.00  0.00     0.030 A 
HETATM   21  N   UNL     1      44.225 -17.239   5.754  1.00  0.00    -0.364 N 
HETATM   22  C   UNL     1      43.782 -19.703   2.992  1.00  0.00     0.002 A 
HETATM   23  C   UNL     1      43.080 -18.860   2.135  1.00  0.00     0.001 A 
HETATM   24  H   UNL     1      44.729 -17.621   6.542  1.00  0.00     0.165 HD
HETATM   25  C   UNL     1      43.753 -15.956   5.668  1.00  0.00     0.102 A 
ENDBRANCH  15  16
ENDBRANCH   3  14
BRANCH   2  26
HETATM   26  N   UNL     1      43.679 -11.199   3.683  1.00  0.00    -0.286 NA
HETATM   27  H   UNL     1      43.542 -10.419   4.332  1.00  0.00     0.125 HD
HETATM   28  H   UNL     1      44.527 -11.030   3.133  1.00  0.00     0.125 HD
ENDBRANCH   2  26
BRANCH   1  29
HETATM   29  C   UNL     1      40.826  -9.872   3.561  1.00  0.00     0.257 C 
HETATM   30  N   UNL     1      39.444  -9.827   3.550  1.00  0.00    -0.357 N 
HETATM   31  H   UNL     1      38.986 -10.520   2.966  1.00  0.00     0.162 HD
HETATM   32  O   UNL     1      41.520  -9.013   4.089  1.00  0.00    -0.267 OA
BRANCH  30  33
HETATM   33  C   UNL     1      38.664  -8.670   3.933  1.00  0.00     0.123 C 
BRANCH  33  34
HETATM   34  C   UNL     1      37.927  -8.138   2.702  1.00  0.00     0.023 C 
BRANCH  34  35
HETATM   35  C   UNL     1      38.758  -8.115   1.412  1.00  0.00    -0.021 C 
HETATM   36  C   UNL     1      39.479  -6.783   1.216  1.00  0.00     0.009 C 
HETATM   37  C   UNL     1      37.846  -8.395   0.212  1.00  0.00     0.009 C 
ENDBRANCH  34  35
ENDBRANCH  33  34
ENDBRANCH  30  33
ENDBRANCH   1  29
TORSDOF 7
ENDMDL
MODEL 9
REMARK VINA RESULT:      -8.8      2.231      8.835
REMARK  7 active torsions:
REMARK  status: ('A' for Active; 'I' for Inactive)
REMARK    1  A    between atoms: C_2  and  C_3 
REMARK    2  A    between atoms: C_3  and  C_4 
REMARK    3  A    between atoms: C_4  and  N_5 
REMARK       I    between atoms: N_5  and  C_6 
REMARK    4  A    between atoms: C_6  and  C_7 
REMARK    5  A    between atoms: C_8  and  N_9 
REMARK    6  A    between atoms: N_10  and  N_11 
REMARK    7  A    between atoms: C_12  and  C_13 
ROOT
HETATM    1  C   UNL     1      40.950 -13.679   3.160  1.00  0.00     0.104 C 
HETATM    2  C   UNL     1      41.087 -12.958   4.342  1.00  0.00     0.123 C 
HETATM    3  N   UNL     1      41.761 -11.778   4.025  1.00  0.00    -0.202 N 
HETATM    4  C   UNL     1      41.518 -11.519   2.690  1.00  0.00     0.183 A 
HETATM    5  C   UNL     1      41.089 -12.717   2.119  1.00  0.00     0.124 A 
HETATM    6  N   UNL     1      40.913 -12.822   0.776  1.00  0.00    -0.242 NA
HETATM    7  C   UNL     1      41.120 -11.688   0.087  1.00  0.00     0.086 A 
HETATM    8  C   UNL     1      41.529 -10.474   0.704  1.00  0.00     0.088 A 
HETATM    9  N   UNL     1      41.768 -10.372   2.020  1.00  0.00    -0.225 NA
HETATM   10  C   UNL     1      40.917 -11.701  -1.287  1.00  0.00     0.034 A 
HETATM   11  C   UNL     1      41.089 -10.555  -2.066  1.00  0.00     0.002 A 
HETATM   12  C   UNL     1      41.475  -9.369  -1.459  1.00  0.00     0.002 A 
HETATM   13  C   UNL     1      41.694  -9.341  -0.082  1.00  0.00     0.034 A 
ENDROOT
BRANCH   3  14
HETATM   14  N   UNL     1      42.582 -11.039   4.848  1.00  0.00    -0.176 NA
HETATM   15  C   UNL     1      43.510 -11.757   5.391  1.00  0.00     0.153 C 
BRANCH  15  16
HETATM   16  C   UNL     1      44.516 -11.188   6.257  1.00  0.00     0.011 A 
HETATM   17  C   UNL     1      44.265 -10.472   7.472  1.00  0.00     0.004 A 
HETATM   18  C   UNL     1      45.502 -10.210   8.060  1.00  0.00     0.043 A 
HETATM   19  C   UNL     1      43.095 -10.034   8.131  1.00  0.00     0.014 A 
HETATM   20  C   UNL     1      45.626  -9.552   9.291  1.00  0.00     0.030 A 
HETATM   21  N   UNL     1      46.465 -10.714   7.217  1.00  0.00    -0.364 N 
HETATM   22  C   UNL     1      44.452  -9.131   9.925  1.00  0.00     0.002 A 
HETATM   23  C   UNL     1      43.203  -9.360   9.353  1.00  0.00     0.001 A 
HETATM   24  H   UNL     1      47.460 -10.678   7.396  1.00  0.00     0.165 HD
HETATM   25  C   UNL     1      45.884 -11.287   6.117  1.00  0.00     0.102 A 
ENDBRANCH  15  16
ENDBRANCH   3  14
BRANCH   2  26
HETATM   26  N   UNL     1      40.788 -13.297   5.636  1.00  0.00    -0.286 NA
HETATM   27  H   UNL     1      41.035 -14.248   5.927  1.00  0.00     0.125 HD
HETATM   28  H   UNL     1      39.834 -13.091   5.950  1.00  0.00     0.125 HD
ENDBRANCH   2  26
BRANCH   1  29
HETATM   29  C   UNL     1      40.733 -15.119   3.069  1.00  0.00     0.257 C 
HETATM   30  N   UNL     1      41.786 -15.837   3.607  1.00  0.00    -0.357 N 
HETATM   31  H   UNL     1      42.576 -15.286   3.924  1.00  0.00     0.162 HD
HETATM   32  O   UNL     1      39.782 -15.644   2.506  1.00  0.00    -0.267 OA
BRANCH  30  33
HETATM   33  C   UNL     1      42.018 -17.245   3.366  1.00  0.00     0.123 C 
BRANCH  33  34
HETATM   34  C   UNL     1      43.253 -17.400   2.477  1.00  0.00     0.023 C 
BRANCH  34  35
HETATM   35  C   UNL     1      44.049 -18.694   2.697  1.00  0.00    -0.021 C 
HETATM   36  C   UNL     1      43.321 -19.918   2.147  1.00  0.00     0.009 C 
HETATM   37  C   UNL     1      44.319 -18.878   4.195  1.00  0.00     0.009 C 
ENDBRANCH  34  35
ENDBRANCH  33  34
ENDBRANCH  30  33
ENDBRANCH   1  29
TORSDOF 7
ENDMDL
MODEL 10
REMARK VINA RESULT:      -8.6      2.876      6.925
REMARK  7 active torsions:
REMARK  status: ('A' for Active; 'I' for Inactive)
REMARK    1  A    between atoms: C_2  and  C_3 
REMARK    2  A    between atoms: C_3  and  C_4 
REMARK    3  A    between atoms: C_4  and  N_5 
REMARK       I    between atoms: N_5  and  C_6 
REMARK    4  A    between atoms: C_6  and  C_7 
REMARK    5  A    between atoms: C_8  and  N_9 
REMARK    6  A    between atoms: N_10  and  N_11 
REMARK    7  A    between atoms: C_12  and  C_13 
ROOT
HETATM    1  C   UNL     1      40.817 -10.794   2.094  1.00  0.00     0.104 C 
HETATM    2  C   UNL     1      42.074 -11.325   2.365  1.00  0.00     0.123 C 
HETATM    3  N   UNL     1      42.065 -12.646   1.916  1.00  0.00    -0.202 N 
HETATM    4  C   UNL     1      41.112 -12.729   0.920  1.00  0.00     0.183 A 
HETATM    5  C   UNL     1      40.276 -11.622   1.069  1.00  0.00     0.124 A 
HETATM    6  N   UNL     1      39.146 -11.501   0.326  1.00  0.00    -0.242 NA
HETATM    7  C   UNL     1      38.954 -12.477  -0.577  1.00  0.00     0.086 A 
HETATM    8  C   UNL     1      39.841 -13.578  -0.724  1.00  0.00     0.088 A 
HETATM    9  N   UNL     1      40.927 -13.744   0.046  1.00  0.00    -0.225 NA
HETATM   10  C   UNL     1      37.843 -12.401  -1.408  1.00  0.00     0.034 A 
HETATM   11  C   UNL     1      37.590 -13.366  -2.385  1.00  0.00     0.002 A 
HETATM   12  C   UNL     1      38.465 -14.431  -2.536  1.00  0.00     0.002 A 
HETATM   13  C   UNL     1      39.579 -14.528  -1.702  1.00  0.00     0.034 A 
ENDROOT
BRANCH   3  14
HETATM   14  N   UNL     1      42.800 -13.701   2.411  1.00  0.00    -0.176 NA
HETATM   15  C   UNL     1      42.317 -14.162   3.518  1.00  0.00     0.153 C 
BRANCH  15  16
HETATM   16  C   UNL     1      42.897 -15.296   4.198  1.00  0.00     0.011 A 
HETATM   17  C   UNL     1      43.089 -16.599   3.635  1.00  0.00     0.004 A 
HETATM   18  C   UNL     1      43.790 -17.356   4.573  1.00  0.00     0.043 A 
HETATM   19  C   UNL     1      42.740 -17.199   2.405  1.00  0.00     0.014 A 
HETATM   20  C   UNL     1      44.183 -18.678   4.332  1.00  0.00     0.030 A 
HETATM   21  N   UNL     1      43.983 -16.554   5.675  1.00  0.00    -0.364 N 
HETATM   22  C   UNL     1      43.828 -19.249   3.105  1.00  0.00     0.002 A 
HETATM   23  C   UNL     1      43.110 -18.526   2.155  1.00  0.00     0.001 A 
HETATM   24  H   UNL     1      44.475 -16.838   6.511  1.00  0.00     0.165 HD
HETATM   25  C   UNL     1      43.430 -15.318   5.469  1.00  0.00     0.102 A 
ENDBRANCH  15  16
ENDBRANCH   3  14
BRANCH   2  26
HETATM   26  N   UNL     1      43.137 -10.800   3.054  1.00  0.00    -0.286 NA
HETATM   27  H   UNL     1      42.925 -10.366   3.957  1.00  0.00     0.125 HD
HETATM   28  H   UNL     1      43.759 -10.180   2.524  1.00  0.00     0.125 HD
ENDBRANCH   2  26
BRANCH   1  29
HETATM   29  C   UNL     1      40.223  -9.644   2.766  1.00  0.00     0.257 C 
HETATM   30  N   UNL     1      40.281  -9.760   4.143  1.00  0.00    -0.357 N 
HETATM   31  H   UNL     1      40.658 -10.635   4.494  1.00  0.00     0.162 HD
HETATM   32  O   UNL     1      39.656  -8.722   2.195  1.00  0.00    -0.267 OA
BRANCH  30  33
HETATM   33  C   UNL     1      39.494  -8.967   5.061  1.00  0.00     0.123 C 
BRANCH  33  34
HETATM   34  C   UNL     1      40.427  -8.329   6.093  1.00  0.00     0.023 C 
BRANCH  34  35
HETATM   35  C   UNL     1      40.012  -8.539   7.556  1.00  0.00    -0.021 C 
HETATM   36  C   UNL     1      39.426  -9.928   7.794  1.00  0.00     0.009 C 
HETATM   37  C   UNL     1      38.991  -7.467   7.955  1.00  0.00     0.009 C 
ENDBRANCH  34  35
ENDBRANCH  33  34
ENDBRANCH  30  33
ENDBRANCH   1  29
TORSDOF 7
ENDMDL
