MODEL 1
REMARK VINA RESULT:      -9.0      0.000      0.000
REMARK  6 active torsions:
REMARK  status: ('A' for Active; 'I' for Inactive)
REMARK    1  A    between atoms: C_2  and  C_3 
REMARK    2  A    between atoms: C_3  and  N_4 
REMARK       I    between atoms: N_4  and  C_5 
REMARK    3  A    between atoms: C_5  and  C_6 
REMARK    4  A    between atoms: C_8  and  N_9 
REMARK       I    between atoms: N_9  and  C_10 
REMARK    5  A    between atoms: C_10  and  C_11 
REMARK    6  A    between atoms: C_15  and  C_16 
ROOT
HETATM    1  N   UNL     1      44.292 -12.210   7.134  1.00  0.00    -0.322 N 
HETATM    2  C   UNL     1      43.163 -12.510   6.395  1.00  0.00     0.274 C 
HETATM    3  O   UNL     1      42.322 -11.694   6.034  1.00  0.00    -0.266 OA
HETATM    4  H   UNL     1      45.008 -12.922   7.178  1.00  0.00     0.169 HD
ENDROOT
BRANCH   1   5
HETATM    5  C   UNL     1      44.592 -10.985   7.767  1.00  0.00     0.036 A 
HETATM    6  C   UNL     1      43.746 -10.375   8.697  1.00  0.00     0.046 A 
HETATM    7  C   UNL     1      44.118  -9.172   9.315  1.00  0.00     0.034 A 
HETATM    8  C   UNL     1      45.353  -8.589   9.011  1.00  0.00     0.017 A 
HETATM    9  C   UNL     1      46.203  -9.196   8.089  1.00  0.00     0.003 A 
HETATM   10  C   UNL     1      45.826 -10.392   7.474  1.00  0.00     0.029 A 
BRANCH   7  11
HETATM   11  C   UNL     1      43.260  -8.517  10.345  1.00  0.00     0.251 C 
HETATM   12  N   UNL     1      42.673  -9.345  11.280  1.00  0.00    -0.357 N 
HETATM   13  H   UNL     1      42.708 -10.349  11.156  1.00  0.00     0.162 HD
HETATM   14  O   UNL     1      43.095  -7.303  10.319  1.00  0.00    -0.268 OA
BRANCH  12  15
HETATM   15  C   UNL     1      41.827  -8.824  12.333  1.00  0.00     0.122 C 
BRANCH  15  16
HETATM   16  C   UNL     1      42.550  -8.703  13.673  1.00  0.00     0.015 C 
HETATM   17  C   UNL     1      43.188  -7.336  13.874  1.00  0.00     0.006 C 
ENDBRANCH  15  16
ENDBRANCH  12  15
ENDBRANCH   7  11
ENDBRANCH   1   5
BRANCH   2  18
HETATM   18  C   UNL     1      43.040 -13.899   6.034  1.00  0.00     0.120 A 
HETATM   19  N   UNL     1      42.769 -14.859   6.969  1.00  0.00    -0.272 N 
HETATM   20  H   UNL     1      42.611 -14.712   7.962  1.00  0.00     0.189 HD
HETATM   21  N   UNL     1      42.737 -16.107   6.486  1.00  0.00    -0.174 NA
HETATM   22  C   UNL     1      43.022 -15.977   5.180  1.00  0.00     0.089 A 
HETATM   23  C   UNL     1      43.195 -14.600   4.853  1.00  0.00     0.071 A 
BRANCH  22  24
HETATM   24  C   UNL     1      43.155 -17.145   4.301  1.00  0.00    -0.006 A 
HETATM   25  C   UNL     1      43.879 -18.270   4.724  1.00  0.00     0.014 A 
HETATM   26  C   UNL     1      44.050 -19.375   3.885  1.00  0.00     0.007 A 
HETATM   27  C   UNL     1      43.496 -19.381   2.602  1.00  0.00    -0.062 A 
HETATM   28  C   UNL     1      43.676 -20.556   1.689  1.00  0.00     0.048 C 
HETATM   29  C   UNL     1      42.759 -18.270   2.178  1.00  0.00     0.007 A 
HETATM   30  C   UNL     1      42.590 -17.163   3.018  1.00  0.00     0.014 A 
ENDBRANCH  22  24
ENDBRANCH   2  18
TORSDOF 6
ENDMDL
MODEL 2
REMARK VINA RESULT:      -8.7      2.036     10.458
REMARK  6 active torsions:
REMARK  status: ('A' for Active; 'I' for Inactive)
REMARK    1  A    between atoms: C_2  and  C_3 
REMARK    2  A    between atoms: C_3  and  N_4 
REMARK       I    between atoms: N_4  and  C_5 
REMARK    3  A    between atoms: C_5  and  C_6 
REMARK    4  A    between atoms: C_8  and  N_9 
REMARK       I    between atoms: N_9  and  C_10 
REMARK    5  A    between atoms: C_10  and  C_11 
REMARK    6  A    between atoms: C_15  and  C_16 
ROOT
HETATM    1  N   UNL     1      43.408 -12.453   6.914  1.00  0.00    -0.322 N 
HETATM    2  C   UNL     1      44.544 -11.748   7.266  1.00  0.00     0.274 C 
HETATM    3  O   UNL     1      45.615 -11.796   6.670  1.00  0.00    -0.266 OA
HETATM    4  H   UNL     1      42.542 -12.163   7.346  1.00  0.00     0.169 HD
ENDROOT
BRANCH   1   5
HETATM    5  C   UNL     1      43.312 -13.482   5.953  1.00  0.00     0.036 A 
HETATM    6  C   UNL     1      43.497 -14.834   6.255  1.00  0.00     0.046 A 
HETATM    7  C   UNL     1      43.356 -15.811   5.259  1.00  0.00     0.034 A 
HETATM    8  C   UNL     1      43.009 -15.430   3.958  1.00  0.00     0.017 A 
HETATM    9  C   UNL     1      42.817 -14.084   3.653  1.00  0.00     0.003 A 
HETATM   10  C   UNL     1      42.962 -13.115   4.648  1.00  0.00     0.029 A 
BRANCH   7  11
HETATM   11  C   UNL     1      43.502 -17.265   5.556  1.00  0.00     0.251 C 
HETATM   12  N   UNL     1      44.091 -18.042   4.579  1.00  0.00    -0.357 N 
HETATM   13  H   UNL     1      44.258 -17.653   3.660  1.00  0.00     0.162 HD
HETATM   14  O   UNL     1      43.092 -17.715   6.620  1.00  0.00    -0.268 OA
BRANCH  12  15
HETATM   15  C   UNL     1      44.293 -19.465   4.757  1.00  0.00     0.122 C 
BRANCH  15  16
HETATM   16  C   UNL     1      43.809 -20.288   3.565  1.00  0.00     0.015 C 
HETATM   17  C   UNL     1      43.488 -19.429   2.351  1.00  0.00     0.006 C 
ENDBRANCH  15  16
ENDBRANCH  12  15
ENDBRANCH   7  11
ENDBRANCH   1   5
BRANCH   2  18
HETATM   18  C   UNL     1      44.380 -10.892   8.414  1.00  0.00     0.120 A 
HETATM   19  N   UNL     1      45.335  -9.978   8.763  1.00  0.00    -0.272 N 
HETATM   20  H   UNL     1      46.206  -9.791   8.274  1.00  0.00     0.189 HD
HETATM   21  N   UNL     1      45.060  -9.293   9.881  1.00  0.00    -0.174 NA
HETATM   22  C   UNL     1      43.887  -9.788  10.307  1.00  0.00     0.089 A 
HETATM   23  C   UNL     1      43.416 -10.779   9.397  1.00  0.00     0.071 A 
BRANCH  22  24
HETATM   24  C   UNL     1      43.273  -9.342  11.563  1.00  0.00    -0.006 A 
HETATM   25  C   UNL     1      43.735  -8.182  12.204  1.00  0.00     0.014 A 
HETATM   26  C   UNL     1      43.189  -7.763  13.420  1.00  0.00     0.007 A 
HETATM   27  C   UNL     1      42.163  -8.496  14.024  1.00  0.00    -0.062 A 
HETATM   28  C   UNL     1      41.573  -8.063  15.332  1.00  0.00     0.048 C 
HETATM   29  C   UNL     1      41.685  -9.645  13.385  1.00  0.00     0.007 A 
HETATM   30  C   UNL     1      42.235 -10.064  12.167  1.00  0.00     0.014 A 
ENDBRANCH  22  24
ENDBRANCH   2  18
TORSDOF 6
ENDMDL
MODEL 3
REMARK VINA RESULT:      -8.4      3.619     10.636
REMARK  6 active torsions:
REMARK  status: ('A' for Active; 'I' for Inactive)
REMARK    1  A    between atoms: C_2  and  C_3 
REMARK    2  A    between atoms: C_3  and  N_4 
REMARK       I    between atoms: N_4  and  C_5 
REMARK    3  A    between atoms: C_5  and  C_6 
REMARK    4  A    between atoms: C_8  and  N_9 
REMARK       I    between atoms: N_9  and  C_10 
REMARK    5  A    between atoms: C_10  and  C_11 
REMARK    6  A    between atoms: C_15  and  C_16 
ROOT
HETATM    1  N   UNL     1      42.893 -12.898   4.792  1.00  0.00    -0.322 N 
HETATM    2  C   UNL     1      43.808 -11.863   4.837  1.00  0.00     0.274 C 
HETATM    3  O   UNL     1      44.351 -11.363   3.858  1.00  0.00    -0.266 OA
HETATM    4  H   UNL     1      42.360 -13.069   5.633  1.00  0.00     0.169 HD
ENDROOT
BRANCH   1   5
HETATM    5  C   UNL     1      42.562 -13.691   3.673  1.00  0.00     0.036 A 
HETATM    6  C   UNL     1      41.663 -13.286   2.683  1.00  0.00     0.046 A 
HETATM    7  C   UNL     1      41.402 -14.110   1.579  1.00  0.00     0.034 A 
HETATM    8  C   UNL     1      42.061 -15.338   1.458  1.00  0.00     0.017 A 
HETATM    9  C   UNL     1      42.964 -15.744   2.439  1.00  0.00     0.003 A 
HETATM   10  C   UNL     1      43.217 -14.921   3.538  1.00  0.00     0.029 A 
BRANCH   7  11
HETATM   11  C   UNL     1      40.482 -13.689   0.482  1.00  0.00     0.251 C 
HETATM   12  N   UNL     1      40.786 -14.136  -0.787  1.00  0.00    -0.357 N 
HETATM   13  H   UNL     1      41.674 -14.588  -0.963  1.00  0.00     0.162 HD
HETATM   14  O   UNL     1      39.524 -12.968   0.733  1.00  0.00    -0.268 OA
BRANCH  12  15
HETATM   15  C   UNL     1      39.962 -13.800  -1.930  1.00  0.00     0.122 C 
BRANCH  15  16
HETATM   16  C   UNL     1      39.027 -14.935  -2.344  1.00  0.00     0.015 C 
HETATM   17  C   UNL     1      38.165 -14.575  -3.545  1.00  0.00     0.006 C 
ENDBRANCH  15  16
ENDBRANCH  12  15
ENDBRANCH   7  11
ENDBRANCH   1   5
BRANCH   2  18
HETATM   18  C   UNL     1      44.076 -11.363   6.161  1.00  0.00     0.120 A 
HETATM   19  N   UNL     1      45.231 -11.677   6.822  1.00  0.00    -0.272 N 
HETATM   20  H   UNL     1      45.997 -12.245   6.470  1.00  0.00     0.189 HD
HETATM   21  N   UNL     1      45.311 -11.178   8.062  1.00  0.00    -0.174 NA
HETATM   22  C   UNL     1      44.152 -10.526   8.244  1.00  0.00     0.089 A 
HETATM   23  C   UNL     1      43.358 -10.599   7.062  1.00  0.00     0.071 A 
BRANCH  22  24
HETATM   24  C   UNL     1      43.818  -9.892   9.526  1.00  0.00    -0.006 A 
HETATM   25  C   UNL     1      43.627  -8.505   9.601  1.00  0.00     0.014 A 
HETATM   26  C   UNL     1      43.347  -7.879  10.819  1.00  0.00     0.007 A 
HETATM   27  C   UNL     1      43.249  -8.631  11.993  1.00  0.00    -0.062 A 
HETATM   28  C   UNL     1      42.956  -7.974  13.309  1.00  0.00     0.048 C 
HETATM   29  C   UNL     1      43.422 -10.018  11.926  1.00  0.00     0.007 A 
HETATM   30  C   UNL     1      43.704 -10.642  10.705  1.00  0.00     0.014 A 
ENDBRANCH  22  24
ENDBRANCH   2  18
TORSDOF 6
ENDMDL
MODEL 4
REMARK VINA RESULT:      -8.4      2.280     10.187
REMARK  6 active torsions:
REMARK  status: ('A' for Active; 'I' for Inactive)
REMARK    1  A    between atoms: C_2  and  C_3 
REMARK    2  A    between atoms: C_3  and  N_4 
REMARK       I    between atoms: N_4  and  C_5 
REMARK    3  A    between atoms: C_5  and  C_6 
REMARK    4  A    between atoms: C_8  and  N_9 
REMARK       I    between atoms: N_9  and  C_10 
REMARK    5  A    between atoms: C_10  and  C_11 
REMARK    6  A    between atoms: C_15  and  C_16 
ROOT
HETATM    1  N   UNL     1      43.067 -12.693   5.363  1.00  0.00    -0.322 N 
HETATM    2  C   UNL     1      44.046 -11.724   5.475  1.00  0.00     0.274 C 
HETATM    3  O   UNL     1      44.718 -11.293   4.545  1.00  0.00    -0.266 OA
HETATM    4  H   UNL     1      42.443 -12.801   6.151  1.00  0.00     0.169 HD
ENDROOT
BRANCH   1   5
HETATM    5  C   UNL     1      42.791 -13.494   4.235  1.00  0.00     0.036 A 
HETATM    6  C   UNL     1      43.084 -14.860   4.172  1.00  0.00     0.046 A 
HETATM    7  C   UNL     1      42.755 -15.606   3.032  1.00  0.00     0.034 A 
HETATM    8  C   UNL     1      42.111 -14.983   1.957  1.00  0.00     0.017 A 
HETATM    9  C   UNL     1      41.811 -13.623   2.017  1.00  0.00     0.003 A 
HETATM   10  C   UNL     1      42.144 -12.885   3.153  1.00  0.00     0.029 A 
BRANCH   7  11
HETATM   11  C   UNL     1      43.012 -17.073   2.950  1.00  0.00     0.251 C 
HETATM   12  N   UNL     1      43.908 -17.597   3.858  1.00  0.00    -0.357 N 
HETATM   13  H   UNL     1      44.467 -16.977   4.430  1.00  0.00     0.162 HD
HETATM   14  O   UNL     1      42.448 -17.744   2.094  1.00  0.00    -0.268 OA
BRANCH  12  15
HETATM   15  C   UNL     1      44.232 -19.009   3.880  1.00  0.00     0.122 C 
BRANCH  15  16
HETATM   16  C   UNL     1      44.083 -19.631   5.267  1.00  0.00     0.015 C 
HETATM   17  C   UNL     1      43.754 -21.116   5.211  1.00  0.00     0.006 C 
ENDBRANCH  15  16
ENDBRANCH  12  15
ENDBRANCH   7  11
ENDBRANCH   1   5
BRANCH   2  18
HETATM   18  C   UNL     1      44.220 -11.205   6.809  1.00  0.00     0.120 A 
HETATM   19  N   UNL     1      45.394 -11.368   7.490  1.00  0.00    -0.272 N 
HETATM   20  H   UNL     1      46.235 -11.826   7.151  1.00  0.00     0.189 HD
HETATM   21  N   UNL     1      45.382 -10.875   8.735  1.00  0.00    -0.174 NA
HETATM   22  C   UNL     1      44.142 -10.386   8.899  1.00  0.00     0.089 A 
HETATM   23  C   UNL     1      43.389 -10.553   7.700  1.00  0.00     0.071 A 
BRANCH  22  24
HETATM   24  C   UNL     1      43.702  -9.815  10.177  1.00  0.00    -0.006 A 
HETATM   25  C   UNL     1      43.552  -8.427  10.319  1.00  0.00     0.014 A 
HETATM   26  C   UNL     1      43.171  -7.863  11.540  1.00  0.00     0.007 A 
HETATM   27  C   UNL     1      42.929  -8.677  12.649  1.00  0.00    -0.062 A 
HETATM   28  C   UNL     1      42.527  -8.086  13.967  1.00  0.00     0.048 C 
HETATM   29  C   UNL     1      43.060 -10.063  12.514  1.00  0.00     0.007 A 
HETATM   30  C   UNL     1      43.444 -10.627  11.290  1.00  0.00     0.014 A 
ENDBRANCH  22  24
ENDBRANCH   2  18
TORSDOF 6
ENDMDL
MODEL 5
REMARK VINA RESULT:      -8.2      7.553      9.759
REMARK  6 active torsions:
REMARK  status: ('A' for Active; 'I' for Inactive)
REMARK    1  A    between atoms: C_2  and  C_3 
REMARK    2  A    between atoms: C_3  and  N_4 
REMARK       I    between atoms: N_4  and  C_5 
REMARK    3  A    between atoms: C_5  and  C_6 
REMARK    4  A    between atoms: C_8  and  N_9 
REMARK       I    between atoms: N_9  and  C_10 
REMARK    5  A    between atoms: C_10  and  C_11 
REMARK    6  A    between atoms: C_15  and  C_16 
ROOT
HETATM    1  N   UNL     1      40.649 -13.801  -0.557  1.00  0.00    -0.322 N 
HETATM    2  C   UNL     1      40.531 -13.948   0.812  1.00  0.00     0.274 C 
HETATM    3  O   UNL     1      39.669 -13.418   1.505  1.00  0.00    -0.266 OA
HETATM    4  H   UNL     1      41.255 -14.454  -1.033  1.00  0.00     0.169 HD
ENDROOT
BRANCH   1   5
HETATM    5  C   UNL     1      39.951 -12.888  -1.376  1.00  0.00     0.036 A 
HETATM    6  C   UNL     1      40.516 -11.703  -1.859  1.00  0.00     0.046 A 
HETATM    7  C   UNL     1      39.778 -10.853  -2.695  1.00  0.00     0.034 A 
HETATM    8  C   UNL     1      38.474 -11.203  -3.063  1.00  0.00     0.017 A 
HETATM    9  C   UNL     1      37.909 -12.386  -2.590  1.00  0.00     0.003 A 
HETATM   10  C   UNL     1      38.647 -13.227  -1.755  1.00  0.00     0.029 A 
BRANCH   7  11
HETATM   11  C   UNL     1      40.364  -9.605  -3.264  1.00  0.00     0.251 C 
HETATM   12  N   UNL     1      40.477  -8.528  -2.410  1.00  0.00    -0.357 N 
HETATM   13  H   UNL     1      40.033  -8.557  -1.501  1.00  0.00     0.162 HD
HETATM   14  O   UNL     1      40.702  -9.572  -4.441  1.00  0.00    -0.268 OA
BRANCH  12  15
HETATM   15  C   UNL     1      41.037  -7.266  -2.846  1.00  0.00     0.122 C 
BRANCH  15  16
HETATM   16  C   UNL     1      42.512  -7.111  -2.478  1.00  0.00     0.015 C 
HETATM   17  C   UNL     1      42.957  -8.103  -1.413  1.00  0.00     0.006 C 
ENDBRANCH  15  16
ENDBRANCH  12  15
ENDBRANCH   7  11
ENDBRANCH   1   5
BRANCH   2  18
HETATM   18  C   UNL     1      41.510 -14.826   1.402  1.00  0.00     0.120 A 
HETATM   19  N   UNL     1      42.844 -14.685   1.141  1.00  0.00    -0.272 N 
HETATM   20  H   UNL     1      43.277 -13.977   0.555  1.00  0.00     0.189 HD
HETATM   21  N   UNL     1      43.621 -15.608   1.723  1.00  0.00    -0.174 NA
HETATM   22  C   UNL     1      42.767 -16.411   2.379  1.00  0.00     0.089 A 
HETATM   23  C   UNL     1      41.432 -15.937   2.221  1.00  0.00     0.071 A 
BRANCH  22  24
HETATM   24  C   UNL     1      43.230 -17.605   3.096  1.00  0.00    -0.006 A 
HETATM   25  C   UNL     1      43.308 -18.841   2.435  1.00  0.00     0.014 A 
HETATM   26  C   UNL     1      43.709 -19.996   3.112  1.00  0.00     0.007 A 
HETATM   27  C   UNL     1      44.044 -19.942   4.467  1.00  0.00    -0.062 A 
HETATM   28  C   UNL     1      44.469 -21.174   5.208  1.00  0.00     0.048 C 
HETATM   29  C   UNL     1      43.984 -18.711   5.130  1.00  0.00     0.007 A 
HETATM   30  C   UNL     1      43.581 -17.555   4.452  1.00  0.00     0.014 A 
ENDBRANCH  22  24
ENDBRANCH   2  18
TORSDOF 6
ENDMDL
MODEL 6
REMARK VINA RESULT:      -8.1      1.948     10.706
REMARK  6 active torsions:
REMARK  status: ('A' for Active; 'I' for Inactive)
REMARK    1  A    between atoms: C_2  and  C_3 
REMARK    2  A    between atoms: C_3  and  N_4 
REMARK       I    between atoms: N_4  and  C_5 
REMARK    3  A    between atoms: C_5  and  C_6 
REMARK    4  A    between atoms: C_8  and  N_9 
REMARK       I    between atoms: N_9  and  C_10 
REMARK    5  A    between atoms: C_10  and  C_11 
REMARK    6  A    between atoms: C_15  and  C_16 
ROOT
HETATM    1  N   UNL     1      43.103 -11.126   7.890  1.00  0.00    -0.322 N 
HETATM    2  C   UNL     1      44.184 -10.937   8.730  1.00  0.00     0.274 C 
HETATM    3  O   UNL     1      45.359 -11.081   8.409  1.00  0.00    -0.266 OA
HETATM    4  H   UNL     1      42.213 -10.768   8.206  1.00  0.00     0.169 HD
ENDROOT
BRANCH   1   5
HETATM    5  C   UNL     1      43.122 -11.695   6.598  1.00  0.00     0.036 A 
HETATM    6  C   UNL     1      42.729 -13.010   6.332  1.00  0.00     0.046 A 
HETATM    7  C   UNL     1      42.742 -13.505   5.020  1.00  0.00     0.034 A 
HETATM    8  C   UNL     1      43.132 -12.669   3.968  1.00  0.00     0.017 A 
HETATM    9  C   UNL     1      43.519 -11.355   4.226  1.00  0.00     0.003 A 
HETATM   10  C   UNL     1      43.508 -10.870   5.535  1.00  0.00     0.029 A 
BRANCH   7  11
HETATM   11  C   UNL     1      42.286 -14.887   4.696  1.00  0.00     0.251 C 
HETATM   12  N   UNL     1      43.069 -15.608   3.818  1.00  0.00    -0.357 N 
HETATM   13  H   UNL     1      43.815 -15.146   3.313  1.00  0.00     0.162 HD
HETATM   14  O   UNL     1      41.253 -15.321   5.191  1.00  0.00    -0.268 OA
BRANCH  12  15
HETATM   15  C   UNL     1      42.733 -16.963   3.434  1.00  0.00     0.122 C 
BRANCH  15  16
HETATM   16  C   UNL     1      43.799 -17.979   3.842  1.00  0.00     0.015 C 
HETATM   17  C   UNL     1      43.942 -19.113   2.837  1.00  0.00     0.006 C 
ENDBRANCH  15  16
ENDBRANCH  12  15
ENDBRANCH   7  11
ENDBRANCH   1   5
BRANCH   2  18
HETATM   18  C   UNL     1      43.834 -10.513  10.062  1.00  0.00     0.120 A 
HETATM   19  N   UNL     1      43.575 -11.417  11.054  1.00  0.00    -0.272 N 
HETATM   20  H   UNL     1      43.618 -12.430  10.979  1.00  0.00     0.189 HD
HETATM   21  N   UNL     1      43.215 -10.869  12.221  1.00  0.00    -0.174 NA
HETATM   22  C   UNL     1      43.209  -9.546  11.991  1.00  0.00     0.089 A 
HETATM   23  C   UNL     1      43.617  -9.281  10.651  1.00  0.00     0.071 A 
BRANCH  22  24
HETATM   24  C   UNL     1      42.790  -8.587  13.021  1.00  0.00    -0.006 A 
HETATM   25  C   UNL     1      42.177  -9.037  14.199  1.00  0.00     0.014 A 
HETATM   26  C   UNL     1      41.735  -8.136  15.173  1.00  0.00     0.007 A 
HETATM   27  C   UNL     1      41.901  -6.760  14.989  1.00  0.00    -0.062 A 
HETATM   28  C   UNL     1      41.427  -5.781  16.021  1.00  0.00     0.048 C 
HETATM   29  C   UNL     1      42.527  -6.303  13.825  1.00  0.00     0.007 A 
HETATM   30  C   UNL     1      42.966  -7.207  12.849  1.00  0.00     0.014 A 
ENDBRANCH  22  24
ENDBRANCH   2  18
TORSDOF 6
ENDMDL
MODEL 7
REMARK VINA RESULT:      -7.8      7.361     10.756
REMARK  6 active torsions:
REMARK  status: ('A' for Active; 'I' for Inactive)
REMARK    1  A    between atoms: C_2  and  C_3 
REMARK    2  A    between atoms: C_3  and  N_4 
REMARK       I    between atoms: N_4  and  C_5 
REMARK    3  A    between atoms: C_5  and  C_6 
REMARK    4  A    between atoms: C_8  and  N_9 
REMARK       I    between atoms: N_9  and  C_10 
REMARK    5  A    between atoms: C_10  and  C_11 
REMARK    6  A    between atoms: C_15  and  C_16 
ROOT
HETATM    1  N   UNL     1      39.835 -14.593  -0.303  1.00  0.00    -0.322 N 
HETATM    2  C   UNL     1      40.799 -13.873   0.377  1.00  0.00     0.274 C 
HETATM    3  O   UNL     1      40.951 -12.659   0.306  1.00  0.00    -0.266 OA
HETATM    4  H   UNL     1      39.675 -15.542   0.005  1.00  0.00     0.169 HD
ENDROOT
BRANCH   1   5
HETATM    5  C   UNL     1      38.990 -14.120  -1.330  1.00  0.00     0.036 A 
HETATM    6  C   UNL     1      38.375 -12.865  -1.301  1.00  0.00     0.046 A 
HETATM    7  C   UNL     1      37.571 -12.443  -2.370  1.00  0.00     0.034 A 
HETATM    8  C   UNL     1      37.399 -13.277  -3.480  1.00  0.00     0.017 A 
HETATM    9  C   UNL     1      38.015 -14.527  -3.516  1.00  0.00     0.003 A 
HETATM   10  C   UNL     1      38.811 -14.943  -2.448  1.00  0.00     0.029 A 
BRANCH   7  11
HETATM   11  C   UNL     1      36.937 -11.093  -2.392  1.00  0.00     0.251 C 
HETATM   12  N   UNL     1      35.698 -11.000  -2.991  1.00  0.00    -0.357 N 
HETATM   13  H   UNL     1      35.333 -11.783  -3.519  1.00  0.00     0.162 HD
HETATM   14  O   UNL     1      37.527 -10.134  -1.908  1.00  0.00    -0.268 OA
BRANCH  12  15
HETATM   15  C   UNL     1      34.981  -9.744  -3.067  1.00  0.00     0.122 C 
BRANCH  15  16
HETATM   16  C   UNL     1      33.726  -9.826  -3.933  1.00  0.00     0.015 C 
HETATM   17  C   UNL     1      32.819 -10.985  -3.543  1.00  0.00     0.006 C 
ENDBRANCH  15  16
ENDBRANCH  12  15
ENDBRANCH   7  11
ENDBRANCH   1   5
BRANCH   2  18
HETATM   18  C   UNL     1      41.639 -14.669   1.237  1.00  0.00     0.120 A 
HETATM   19  N   UNL     1      42.878 -14.238   1.621  1.00  0.00    -0.272 N 
HETATM   20  H   UNL     1      43.317 -13.354   1.378  1.00  0.00     0.189 HD
HETATM   21  N   UNL     1      43.555 -15.111   2.378  1.00  0.00    -0.174 NA
HETATM   22  C   UNL     1      42.745 -16.176   2.483  1.00  0.00     0.089 A 
HETATM   23  C   UNL     1      41.519 -15.926   1.798  1.00  0.00     0.071 A 
BRANCH  22  24
HETATM   24  C   UNL     1      43.162 -17.395   3.186  1.00  0.00    -0.006 A 
HETATM   25  C   UNL     1      43.439 -17.359   4.561  1.00  0.00     0.014 A 
HETATM   26  C   UNL     1      43.875 -18.501   5.239  1.00  0.00     0.007 A 
HETATM   27  C   UNL     1      44.040 -19.709   4.556  1.00  0.00    -0.062 A 
HETATM   28  C   UNL     1      44.514 -20.940   5.269  1.00  0.00     0.048 C 
HETATM   29  C   UNL     1      43.751 -19.758   3.188  1.00  0.00     0.007 A 
HETATM   30  C   UNL     1      43.316 -18.613   2.510  1.00  0.00     0.014 A 
ENDBRANCH  22  24
ENDBRANCH   2  18
TORSDOF 6
ENDMDL
MODEL 8
REMARK VINA RESULT:      -7.8      1.533      2.119
REMARK  6 active torsions:
REMARK  status: ('A' for Active; 'I' for Inactive)
REMARK    1  A    between atoms: C_2  and  C_3 
REMARK    2  A    between atoms: C_3  and  N_4 
REMARK       I    between atoms: N_4  and  C_5 
REMARK    3  A    between atoms: C_5  and  C_6 
REMARK    4  A    between atoms: C_8  and  N_9 
REMARK       I    between atoms: N_9  and  C_10 
REMARK    5  A    between atoms: C_10  and  C_11 
REMARK    6  A    between atoms: C_15  and  C_16 
ROOT
HETATM    1  N   UNL     1      42.723 -11.286   6.666  1.00  0.00    -0.322 N 
HETATM    2  C   UNL     1      41.794 -12.208   6.222  1.00  0.00     0.274 C 
HETATM    3  O   UNL     1      40.602 -11.979   6.050  1.00  0.00    -0.266 OA
HETATM    4  H   UNL     1      43.696 -11.533   6.557  1.00  0.00     0.169 HD
ENDROOT
BRANCH   1   5
HETATM    5  C   UNL     1      42.461  -9.999   7.183  1.00  0.00     0.036 A 
HETATM    6  C   UNL     1      42.726  -9.635   8.506  1.00  0.00     0.046 A 
HETATM    7  C   UNL     1      42.471  -8.329   8.949  1.00  0.00     0.034 A 
HETATM    8  C   UNL     1      41.966  -7.380   8.054  1.00  0.00     0.017 A 
HETATM    9  C   UNL     1      41.705  -7.736   6.732  1.00  0.00     0.003 A 
HETATM   10  C   UNL     1      41.957  -9.039   6.298  1.00  0.00     0.029 A 
BRANCH   7  11
HETATM   11  C   UNL     1      42.785  -7.894  10.341  1.00  0.00     0.251 C 
HETATM   12  N   UNL     1      42.857  -8.885  11.298  1.00  0.00    -0.357 N 
HETATM   13  H   UNL     1      42.553  -9.824  11.075  1.00  0.00     0.162 HD
HETATM   14  O   UNL     1      42.947  -6.705  10.586  1.00  0.00    -0.268 OA
BRANCH  12  15
HETATM   15  C   UNL     1      43.162  -8.585  12.682  1.00  0.00     0.122 C 
BRANCH  15  16
HETATM   16  C   UNL     1      42.093  -9.089  13.649  1.00  0.00     0.015 C 
HETATM   17  C   UNL     1      41.028  -9.931  12.960  1.00  0.00     0.006 C 
ENDBRANCH  15  16
ENDBRANCH  12  15
ENDBRANCH   7  11
ENDBRANCH   1   5
BRANCH   2  18
HETATM   18  C   UNL     1      42.341 -13.510   5.931  1.00  0.00     0.120 A 
HETATM   19  N   UNL     1      43.354 -14.041   6.679  1.00  0.00    -0.272 N 
HETATM   20  H   UNL     1      43.797 -13.618   7.490  1.00  0.00     0.189 HD
HETATM   21  N   UNL     1      43.787 -15.234   6.253  1.00  0.00    -0.174 NA
HETATM   22  C   UNL     1      43.049 -15.498   5.163  1.00  0.00     0.089 A 
HETATM   23  C   UNL     1      42.112 -14.447   4.942  1.00  0.00     0.071 A 
BRANCH  22  24
HETATM   24  C   UNL     1      43.275 -16.701   4.353  1.00  0.00    -0.006 A 
HETATM   25  C   UNL     1      42.634 -16.851   3.114  1.00  0.00     0.014 A 
HETATM   26  C   UNL     1      42.805 -18.007   2.348  1.00  0.00     0.007 A 
HETATM   27  C   UNL     1      43.628 -19.041   2.803  1.00  0.00    -0.062 A 
HETATM   28  C   UNL     1      43.817 -20.290   1.995  1.00  0.00     0.048 C 
HETATM   29  C   UNL     1      44.285 -18.894   4.029  1.00  0.00     0.007 A 
HETATM   30  C   UNL     1      44.110 -17.736   4.797  1.00  0.00     0.014 A 
ENDBRANCH  22  24
ENDBRANCH   2  18
TORSDOF 6
ENDMDL
MODEL 9
REMARK VINA RESULT:      -7.7      3.840      4.627
REMARK  6 active torsions:
REMARK  status: ('A' for Active; 'I' for Inactive)
REMARK    1  A    between atoms: C_2  and  C_3 
REMARK    2  A    between atoms: C_3  and  N_4 
REMARK       I    between atoms: N_4  and  C_5 
REMARK    3  A    between atoms: C_5  and  C_6 
REMARK    4  A    between atoms: C_8  and  N_9 
REMARK       I    between atoms: N_9  and  C_10 
REMARK    5  A    between atoms: C_10  and  C_11 
REMARK    6  A    between atoms: C_15  and  C_16 
ROOT
HETATM    1  N   UNL     1      43.449 -11.974   5.295  1.00  0.00    -0.322 N 
HETATM    2  C   UNL     1      43.061 -13.285   5.096  1.00  0.00     0.274 C 
HETATM    3  O   UNL     1      43.130 -14.174   5.938  1.00  0.00    -0.266 OA
HETATM    4  H   UNL     1      43.141 -11.300   4.608  1.00  0.00     0.169 HD
ENDROOT
BRANCH   1   5
HETATM    5  C   UNL     1      44.161 -11.457   6.398  1.00  0.00     0.036 A 
HETATM    6  C   UNL     1      43.563 -11.161   7.627  1.00  0.00     0.046 A 
HETATM    7  C   UNL     1      44.334 -10.679   8.695  1.00  0.00     0.034 A 
HETATM    8  C   UNL     1      45.713 -10.511   8.534  1.00  0.00     0.017 A 
HETATM    9  C   UNL     1      46.316 -10.810   7.313  1.00  0.00     0.003 A 
HETATM   10  C   UNL     1      45.542 -11.286   6.253  1.00  0.00     0.029 A 
BRANCH   7  11
HETATM   11  C   UNL     1      43.737 -10.397  10.032  1.00  0.00     0.251 C 
HETATM   12  N   UNL     1      42.834  -9.356  10.101  1.00  0.00    -0.357 N 
HETATM   13  H   UNL     1      42.721  -8.734   9.311  1.00  0.00     0.162 HD
HETATM   14  O   UNL     1      44.069 -11.067  11.003  1.00  0.00    -0.268 OA
BRANCH  12  15
HETATM   15  C   UNL     1      42.183  -8.993  11.343  1.00  0.00     0.122 C 
BRANCH  15  16
HETATM   16  C   UNL     1      42.720  -7.693  11.938  1.00  0.00     0.015 C 
HETATM   17  C   UNL     1      43.162  -7.849  13.385  1.00  0.00     0.006 C 
ENDBRANCH  15  16
ENDBRANCH  12  15
ENDBRANCH   7  11
ENDBRANCH   1   5
BRANCH   2  18
HETATM   18  C   UNL     1      42.518 -13.553   3.788  1.00  0.00     0.120 A 
HETATM   19  N   UNL     1      43.239 -14.225   2.841  1.00  0.00    -0.272 N 
HETATM   20  H   UNL     1      44.175 -14.608   2.947  1.00  0.00     0.189 HD
HETATM   21  N   UNL     1      42.618 -14.350   1.661  1.00  0.00    -0.174 NA
HETATM   22  C   UNL     1      41.446 -13.716   1.821  1.00  0.00     0.089 A 
HETATM   23  C   UNL     1      41.336 -13.222   3.154  1.00  0.00     0.071 A 
BRANCH  22  24
HETATM   24  C   UNL     1      40.493 -13.567   0.715  1.00  0.00    -0.006 A 
HETATM   25  C   UNL     1      39.738 -12.392   0.584  1.00  0.00     0.014 A 
HETATM   26  C   UNL     1      38.798 -12.248  -0.440  1.00  0.00     0.007 A 
HETATM   27  C   UNL     1      38.594 -13.278  -1.362  1.00  0.00    -0.062 A 
HETATM   28  C   UNL     1      37.585 -13.141  -2.462  1.00  0.00     0.048 C 
HETATM   29  C   UNL     1      39.354 -14.447  -1.250  1.00  0.00     0.007 A 
HETATM   30  C   UNL     1      40.293 -14.591  -0.222  1.00  0.00     0.014 A 
ENDBRANCH  22  24
ENDBRANCH   2  18
TORSDOF 6
ENDMDL
MODEL 10
REMARK VINA RESULT:      -7.5      6.252      7.902
REMARK  6 active torsions:
REMARK  status: ('A' for Active; 'I' for Inactive)
REMARK    1  A    between atoms: C_2  and  C_3 
REMARK    2  A    between atoms: C_3  and  N_4 
REMARK       I    between atoms: N_4  and  C_5 
REMARK    3  A    between atoms: C_5  and  C_6 
REMARK    4  A    between atoms: C_8  and  N_9 
REMARK       I    between atoms: N_9  and  C_10 
REMARK    5  A    between atoms: C_10  and  C_11 
REMARK    6  A    between atoms: C_15  and  C_16 
ROOT
HETATM    1  N   UNL     1      41.536 -11.947   1.825  1.00  0.00    -0.322 N 
HETATM    2  C   UNL     1      42.655 -12.298   2.558  1.00  0.00     0.274 C 
HETATM    3  O   UNL     1      43.356 -11.515   3.189  1.00  0.00    -0.266 OA
HETATM    4  H   UNL     1      40.928 -12.700   1.536  1.00  0.00     0.169 HD
ENDROOT
BRANCH   1   5
HETATM    5  C   UNL     1      41.107 -10.641   1.506  1.00  0.00     0.036 A 
HETATM    6  C   UNL     1      41.674  -9.875   0.483  1.00  0.00     0.046 A 
HETATM    7  C   UNL     1      41.179  -8.595   0.196  1.00  0.00     0.034 A 
HETATM    8  C   UNL     1      40.098  -8.089   0.926  1.00  0.00     0.017 A 
HETATM    9  C   UNL     1      39.524  -8.851   1.942  1.00  0.00     0.003 A 
HETATM   10  C   UNL     1      40.023 -10.124   2.226  1.00  0.00     0.029 A 
BRANCH   7  11
HETATM   11  C   UNL     1      41.730  -7.769  -0.917  1.00  0.00     0.251 C 
HETATM   12  N   UNL     1      43.006  -7.272  -0.747  1.00  0.00    -0.357 N 
HETATM   13  H   UNL     1      43.458  -7.343   0.156  1.00  0.00     0.162 HD
HETATM   14  O   UNL     1      41.048  -7.550  -1.911  1.00  0.00    -0.268 OA
BRANCH  12  15
HETATM   15  C   UNL     1      43.650  -6.464  -1.762  1.00  0.00     0.122 C 
BRANCH  15  16
HETATM   16  C   UNL     1      44.277  -5.190  -1.199  1.00  0.00     0.015 C 
HETATM   17  C   UNL     1      43.955  -4.980   0.274  1.00  0.00     0.006 C 
ENDBRANCH  15  16
ENDBRANCH  12  15
ENDBRANCH   7  11
ENDBRANCH   1   5
BRANCH   2  18
HETATM   18  C   UNL     1      42.946 -13.709   2.558  1.00  0.00     0.120 A 
HETATM   19  N   UNL     1      42.958 -14.435   1.399  1.00  0.00    -0.272 N 
HETATM   20  H   UNL     1      42.794 -14.084   0.460  1.00  0.00     0.189 HD
HETATM   21  N   UNL     1      43.195 -15.742   1.569  1.00  0.00    -0.174 NA
HETATM   22  C   UNL     1      43.322 -15.898   2.897  1.00  0.00     0.089 A 
HETATM   23  C   UNL     1      43.196 -14.637   3.551  1.00  0.00     0.071 A 
BRANCH  22  24
HETATM   24  C   UNL     1      43.521 -17.221   3.502  1.00  0.00    -0.006 A 
HETATM   25  C   UNL     1      43.611 -17.355   4.895  1.00  0.00     0.014 A 
HETATM   26  C   UNL     1      43.839 -18.601   5.487  1.00  0.00     0.007 A 
HETATM   27  C   UNL     1      43.979 -19.744   4.695  1.00  0.00    -0.062 A 
HETATM   28  C   UNL     1      44.230 -21.086   5.315  1.00  0.00     0.048 C 
HETATM   29  C   UNL     1      43.874 -19.622   3.306  1.00  0.00     0.007 A 
HETATM   30  C   UNL     1      43.648 -18.373   2.714  1.00  0.00     0.014 A 
ENDBRANCH  22  24
ENDBRANCH   2  18
TORSDOF 6
ENDMDL
