MODEL 1
REMARK VINA RESULT:      -7.4      0.000      0.000
REMARK  8 active torsions:
REMARK  status: ('A' for Active; 'I' for Inactive)
REMARK    1  A    between atoms: C_4  and  C_5 
REMARK    2  A    between atoms: C_5  and  N_6 
REMARK    3  A    between atoms: N_6  and  C_9 
REMARK    4  A    between atoms: C_9  and  C_10 
REMARK    5  A    between atoms: C_10  and  C_11 
REMARK    6  A    between atoms: C_11  and  C_12 
REMARK    7  A    between atoms: C_17  and  O_18 
REMARK    8  A    between atoms: C_21  and  O_22 
ROOT
HETATM    1  C   UNL     1      43.292 -14.515   5.919  1.00  0.00     0.010 C 
HETATM    2  N   UNL     1      43.801 -15.788   6.029  1.00  0.00    -0.359 N 
HETATM    3  H   UNL     1      44.315 -16.157   6.819  1.00  0.00     0.166 HD
HETATM    4  C   UNL     1      43.573 -16.490   4.867  1.00  0.00     0.048 A 
HETATM    5  C   UNL     1      42.787 -15.689   4.043  1.00  0.00     0.026 A 
HETATM    6  C   UNL     1      42.385 -16.183   2.784  1.00  0.00     0.083 A 
HETATM    7  C   UNL     1      42.833 -17.452   2.378  1.00  0.00     0.074 A 
HETATM    8  C   UNL     1      43.629 -18.234   3.219  1.00  0.00     0.073 A 
HETATM    9  C   UNL     1      43.997 -17.767   4.487  1.00  0.00     0.067 A 
HETATM   10  C   UNL     1      42.580 -14.464   4.738  1.00  0.00     0.041 C 
ENDROOT
BRANCH   1  11
HETATM   11  C   UNL     1      43.547 -13.459   6.938  1.00  0.00     0.059 C 
BRANCH  11  12
HETATM   12  C   UNL     1      44.522 -12.400   6.405  1.00  0.00     0.033 C 
BRANCH  12  13
HETATM   13  C   UNL     1      44.945 -11.399   7.480  1.00  0.00     0.233 C 
BRANCH  13  14
HETATM   14  N   UNL     1      43.782 -11.133   8.380  1.00  0.00    -0.067 N 
HETATM   15  H   UNL     1      43.698 -11.883   9.080  1.00  0.00     0.277 HD
HETATM   16  H   UNL     1      42.914 -11.173   7.831  1.00  0.00     0.277 HD
BRANCH  14  17
HETATM   17  C   UNL     1      43.792  -9.820   9.117  1.00  0.00     0.223 C 
HETATM   18  C   UNL     1      45.225  -9.315   9.277  1.00  0.00     0.046 C 
BRANCH  17  19
HETATM   19  C   UNL     1      43.114  -9.954  10.446  1.00  0.00     0.032 A 
HETATM   20  S   UNL     1      41.540  -9.325  10.745  1.00  0.00    -0.076 SA
HETATM   21  C   UNL     1      41.615  -9.908  12.360  1.00  0.00     0.071 A 
HETATM   22  C   UNL     1      40.470  -9.705  13.289  1.00  0.00     0.078 C 
HETATM   23  N   UNL     1      42.732 -10.527  12.675  1.00  0.00    -0.257 NA
HETATM   24  C   UNL     1      43.579 -10.572  11.591  1.00  0.00     0.134 A 
ENDBRANCH  17  19
ENDBRANCH  14  17
ENDBRANCH  13  14
ENDBRANCH  12  13
ENDBRANCH  11  12
ENDBRANCH   1  11
BRANCH   6  25
HETATM   25  O   UNL     1      41.632 -15.360   1.983  1.00  0.00    -0.355 OA
HETATM   26  C   UNL     1      40.232 -15.629   2.011  1.00  0.00     0.210 C 
ENDBRANCH   6  25
BRANCH   8  27
HETATM   27  O   UNL     1      44.129 -19.475   2.922  1.00  0.00    -0.356 OA
HETATM   28  C   UNL     1      43.405 -20.261   1.982  1.00  0.00     0.210 C 
ENDBRANCH   8  27
TORSDOF 8
ENDMDL
MODEL 2
REMARK VINA RESULT:      -7.2      2.599      3.856
REMARK  8 active torsions:
REMARK  status: ('A' for Active; 'I' for Inactive)
REMARK    1  A    between atoms: C_4  and  C_5 
REMARK    2  A    between atoms: C_5  and  N_6 
REMARK    3  A    between atoms: N_6  and  C_9 
REMARK    4  A    between atoms: C_9  and  C_10 
REMARK    5  A    between atoms: C_10  and  C_11 
REMARK    6  A    between atoms: C_11  and  C_12 
REMARK    7  A    between atoms: C_17  and  O_18 
REMARK    8  A    between atoms: C_21  and  O_22 
ROOT
HETATM    1  C   UNL     1      42.258 -14.417   3.259  1.00  0.00     0.010 C 
HETATM    2  N   UNL     1      42.330 -15.508   2.425  1.00  0.00    -0.359 N 
HETATM    3  H   UNL     1      41.932 -15.576   1.497  1.00  0.00     0.166 HD
HETATM    4  C   UNL     1      42.970 -16.547   3.062  1.00  0.00     0.048 A 
HETATM    5  C   UNL     1      43.432 -16.066   4.285  1.00  0.00     0.026 A 
HETATM    6  C   UNL     1      44.152 -16.930   5.136  1.00  0.00     0.083 A 
HETATM    7  C   UNL     1      44.339 -18.267   4.746  1.00  0.00     0.074 A 
HETATM    8  C   UNL     1      43.859 -18.730   3.519  1.00  0.00     0.073 A 
HETATM    9  C   UNL     1      43.180 -17.866   2.650  1.00  0.00     0.067 A 
HETATM   10  C   UNL     1      43.014 -14.708   4.375  1.00  0.00     0.041 C 
ENDROOT
BRANCH   1  11
HETATM   11  C   UNL     1      41.458 -13.205   2.924  1.00  0.00     0.059 C 
BRANCH  11  12
HETATM   12  C   UNL     1      42.368 -12.040   2.508  1.00  0.00     0.033 C 
BRANCH  12  13
HETATM   13  C   UNL     1      42.227 -10.829   3.429  1.00  0.00     0.233 C 
BRANCH  13  14
HETATM   14  N   UNL     1      43.207 -10.955   4.550  1.00  0.00    -0.067 N 
HETATM   15  H   UNL     1      43.734 -10.077   4.659  1.00  0.00     0.277 HD
HETATM   16  H   UNL     1      43.908 -11.666   4.307  1.00  0.00     0.277 HD
BRANCH  14  17
HETATM   17  C   UNL     1      42.642 -11.318   5.897  1.00  0.00     0.223 C 
HETATM   18  C   UNL     1      41.333 -10.567   6.139  1.00  0.00     0.046 C 
BRANCH  17  19
HETATM   19  C   UNL     1      43.635 -11.036   6.982  1.00  0.00     0.032 A 
HETATM   20  S   UNL     1      43.294  -9.967   8.287  1.00  0.00    -0.076 SA
HETATM   21  C   UNL     1      44.858 -10.264   8.936  1.00  0.00     0.071 A 
HETATM   22  C   UNL     1      45.287  -9.605  10.201  1.00  0.00     0.078 C 
HETATM   23  N   UNL     1      45.600 -11.094   8.238  1.00  0.00    -0.257 NA
HETATM   24  C   UNL     1      44.908 -11.549   7.138  1.00  0.00     0.134 A 
ENDBRANCH  17  19
ENDBRANCH  14  17
ENDBRANCH  13  14
ENDBRANCH  12  13
ENDBRANCH  11  12
ENDBRANCH   1  11
BRANCH   6  25
HETATM   25  O   UNL     1      44.571 -16.434   6.347  1.00  0.00    -0.355 OA
HETATM   26  C   UNL     1      43.749 -16.805   7.452  1.00  0.00     0.210 C 
ENDBRANCH   6  25
BRANCH   8  27
HETATM   27  O   UNL     1      43.974 -20.011   3.046  1.00  0.00    -0.356 OA
HETATM   28  C   UNL     1      43.340 -20.307   1.807  1.00  0.00     0.210 C 
ENDBRANCH   8  27
TORSDOF 8
ENDMDL
MODEL 3
REMARK VINA RESULT:      -7.2      4.348      6.675
REMARK  8 active torsions:
REMARK  status: ('A' for Active; 'I' for Inactive)
REMARK    1  A    between atoms: C_4  and  C_5 
REMARK    2  A    between atoms: C_5  and  N_6 
REMARK    3  A    between atoms: N_6  and  C_9 
REMARK    4  A    between atoms: C_9  and  C_10 
REMARK    5  A    between atoms: C_10  and  C_11 
REMARK    6  A    between atoms: C_11  and  C_12 
REMARK    7  A    between atoms: C_17  and  O_18 
REMARK    8  A    between atoms: C_21  and  O_22 
ROOT
HETATM    1  C   UNL     1      40.784 -16.047   2.522  1.00  0.00     0.010 C 
HETATM    2  N   UNL     1      40.812 -15.716   3.856  1.00  0.00    -0.359 N 
HETATM    3  H   UNL     1      40.162 -15.103   4.331  1.00  0.00     0.166 HD
HETATM    4  C   UNL     1      41.909 -16.287   4.461  1.00  0.00     0.048 A 
HETATM    5  C   UNL     1      42.525 -17.107   3.520  1.00  0.00     0.026 A 
HETATM    6  C   UNL     1      43.674 -17.838   3.890  1.00  0.00     0.083 A 
HETATM    7  C   UNL     1      44.192 -17.676   5.187  1.00  0.00     0.074 A 
HETATM    8  C   UNL     1      43.562 -16.840   6.112  1.00  0.00     0.073 A 
HETATM    9  C   UNL     1      42.397 -16.145   5.764  1.00  0.00     0.067 A 
HETATM   10  C   UNL     1      41.779 -16.980   2.314  1.00  0.00     0.041 C 
ENDROOT
BRANCH   1  11
HETATM   11  C   UNL     1      39.826 -15.428   1.563  1.00  0.00     0.059 C 
BRANCH  11  12
HETATM   12  C   UNL     1      40.556 -14.880   0.328  1.00  0.00     0.033 C 
BRANCH  12  13
HETATM   13  C   UNL     1      39.887 -13.629  -0.240  1.00  0.00     0.233 C 
BRANCH  13  14
HETATM   14  N   UNL     1      39.155 -12.928   0.858  1.00  0.00    -0.067 N 
HETATM   15  H   UNL     1      38.982 -13.578   1.637  1.00  0.00     0.277 HD
HETATM   16  H   UNL     1      38.225 -12.651   0.521  1.00  0.00     0.277 HD
BRANCH  14  17
HETATM   17  C   UNL     1      39.815 -11.700   1.425  1.00  0.00     0.223 C 
HETATM   18  C   UNL     1      40.770 -11.091   0.398  1.00  0.00     0.046 C 
BRANCH  17  19
HETATM   19  C   UNL     1      40.530 -12.024   2.701  1.00  0.00     0.032 A 
HETATM   20  S   UNL     1      42.247 -12.012   2.823  1.00  0.00    -0.076 SA
HETATM   21  C   UNL     1      42.131 -12.457   4.479  1.00  0.00     0.071 A 
HETATM   22  C   UNL     1      43.360 -12.633   5.301  1.00  0.00     0.078 C 
HETATM   23  N   UNL     1      40.905 -12.614   4.927  1.00  0.00    -0.257 NA
HETATM   24  C   UNL     1      39.992 -12.354   3.929  1.00  0.00     0.134 A 
ENDBRANCH  17  19
ENDBRANCH  14  17
ENDBRANCH  13  14
ENDBRANCH  12  13
ENDBRANCH  11  12
ENDBRANCH   1  11
BRANCH   6  25
HETATM   25  O   UNL     1      44.275 -18.617   2.932  1.00  0.00    -0.355 OA
HETATM   26  C   UNL     1      43.842 -19.976   2.922  1.00  0.00     0.210 C 
ENDBRANCH   6  25
BRANCH   8  27
HETATM   27  O   UNL     1      43.984 -16.602   7.393  1.00  0.00    -0.356 OA
HETATM   28  C   UNL     1      43.178 -15.749   8.197  1.00  0.00     0.210 C 
ENDBRANCH   8  27
TORSDOF 8
ENDMDL
MODEL 4
REMARK VINA RESULT:      -7.0      5.828      8.587
REMARK  8 active torsions:
REMARK  status: ('A' for Active; 'I' for Inactive)
REMARK    1  A    between atoms: C_4  and  C_5 
REMARK    2  A    between atoms: C_5  and  N_6 
REMARK    3  A    between atoms: N_6  and  C_9 
REMARK    4  A    between atoms: C_9  and  C_10 
REMARK    5  A    between atoms: C_10  and  C_11 
REMARK    6  A    between atoms: C_11  and  C_12 
REMARK    7  A    between atoms: C_17  and  O_18 
REMARK    8  A    between atoms: C_21  and  O_22 
ROOT
HETATM    1  C   UNL     1      42.257 -14.410   2.682  1.00  0.00     0.010 C 
HETATM    2  N   UNL     1      42.396 -15.568   1.953  1.00  0.00    -0.359 N 
HETATM    3  H   UNL     1      42.093 -15.710   0.998  1.00  0.00     0.166 HD
HETATM    4  C   UNL     1      42.953 -16.554   2.735  1.00  0.00     0.048 A 
HETATM    5  C   UNL     1      43.298 -15.977   3.954  1.00  0.00     0.026 A 
HETATM    6  C   UNL     1      43.916 -16.771   4.942  1.00  0.00     0.083 A 
HETATM    7  C   UNL     1      44.119 -18.138   4.684  1.00  0.00     0.074 A 
HETATM    8  C   UNL     1      43.757 -18.698   3.457  1.00  0.00     0.073 A 
HETATM    9  C   UNL     1      43.183 -17.905   2.456  1.00  0.00     0.067 A 
HETATM   10  C   UNL     1      42.893 -14.613   3.889  1.00  0.00     0.041 C 
ENDROOT
BRANCH   1  11
HETATM   11  C   UNL     1      41.515 -13.225   2.170  1.00  0.00     0.059 C 
BRANCH  11  12
HETATM   12  C   UNL     1      42.341 -11.941   2.333  1.00  0.00     0.033 C 
BRANCH  12  13
HETATM   13  C   UNL     1      41.588 -10.696   1.866  1.00  0.00     0.233 C 
BRANCH  13  14
HETATM   14  N   UNL     1      40.654 -11.079   0.765  1.00  0.00    -0.067 N 
HETATM   15  H   UNL     1      39.774 -10.551   0.849  1.00  0.00     0.277 HD
HETATM   16  H   UNL     1      40.392 -12.067   0.873  1.00  0.00     0.277 HD
BRANCH  14  17
HETATM   17  C   UNL     1      41.163 -10.896  -0.640  1.00  0.00     0.223 C 
HETATM   18  C   UNL     1      40.720  -9.542  -1.191  1.00  0.00     0.046 C 
BRANCH  17  19
HETATM   19  C   UNL     1      40.700 -12.016  -1.521  1.00  0.00     0.032 A 
HETATM   20  S   UNL     1      39.413 -13.067  -1.072  1.00  0.00    -0.076 SA
HETATM   21  C   UNL     1      39.596 -13.920  -2.554  1.00  0.00     0.071 A 
HETATM   22  C   UNL     1      38.710 -15.072  -2.875  1.00  0.00     0.078 C 
HETATM   23  N   UNL     1      40.550 -13.470  -3.338  1.00  0.00    -0.257 NA
HETATM   24  C   UNL     1      41.168 -12.381  -2.768  1.00  0.00     0.134 A 
ENDBRANCH  17  19
ENDBRANCH  14  17
ENDBRANCH  13  14
ENDBRANCH  12  13
ENDBRANCH  11  12
ENDBRANCH   1  11
BRANCH   6  25
HETATM   25  O   UNL     1      44.219 -16.179   6.144  1.00  0.00    -0.355 OA
HETATM   26  C   UNL     1      43.316 -16.498   7.201  1.00  0.00     0.210 C 
ENDBRANCH   6  25
BRANCH   8  27
HETATM   27  O   UNL     1      43.900 -20.014   3.104  1.00  0.00    -0.356 OA
HETATM   28  C   UNL     1      43.514 -20.381   1.785  1.00  0.00     0.210 C 
ENDBRANCH   8  27
TORSDOF 8
ENDMDL
MODEL 5
REMARK VINA RESULT:      -6.9      5.604      9.534
REMARK  8 active torsions:
REMARK  status: ('A' for Active; 'I' for Inactive)
REMARK    1  A    between atoms: C_4  and  C_5 
REMARK    2  A    between atoms: C_5  and  N_6 
REMARK    3  A    between atoms: N_6  and  C_9 
REMARK    4  A    between atoms: C_9  and  C_10 
REMARK    5  A    between atoms: C_10  and  C_11 
REMARK    6  A    between atoms: C_11  and  C_12 
REMARK    7  A    between atoms: C_17  and  O_18 
REMARK    8  A    between atoms: C_21  and  O_22 
ROOT
HETATM    1  C   UNL     1      40.823 -15.467   3.120  1.00  0.00     0.010 C 
HETATM    2  N   UNL     1      41.772 -16.319   2.605  1.00  0.00    -0.359 N 
HETATM    3  H   UNL     1      41.941 -16.497   1.623  1.00  0.00     0.166 HD
HETATM    4  C   UNL     1      42.431 -16.964   3.627  1.00  0.00     0.048 A 
HETATM    5  C   UNL     1      41.981 -16.416   4.825  1.00  0.00     0.026 A 
HETATM    6  C   UNL     1      42.519 -16.886   6.042  1.00  0.00     0.083 A 
HETATM    7  C   UNL     1      43.457 -17.932   6.009  1.00  0.00     0.074 A 
HETATM    8  C   UNL     1      43.887 -18.472   4.795  1.00  0.00     0.073 A 
HETATM    9  C   UNL     1      43.389 -17.981   3.582  1.00  0.00     0.067 A 
HETATM   10  C   UNL     1      40.999 -15.441   4.487  1.00  0.00     0.041 C 
ENDROOT
BRANCH   1  11
HETATM   11  C   UNL     1      39.822 -14.770   2.263  1.00  0.00     0.059 C 
BRANCH  11  12
HETATM   12  C   UNL     1      40.066 -15.064   0.776  1.00  0.00     0.033 C 
BRANCH  12  13
HETATM   13  C   UNL     1      40.561 -13.838   0.010  1.00  0.00     0.233 C 
BRANCH  13  14
HETATM   14  N   UNL     1      40.418 -14.090  -1.456  1.00  0.00    -0.067 N 
HETATM   15  H   UNL     1      40.384 -15.103  -1.638  1.00  0.00     0.277 HD
HETATM   16  H   UNL     1      41.259 -13.753  -1.940  1.00  0.00     0.277 HD
BRANCH  14  17
HETATM   17  C   UNL     1      39.225 -13.465  -2.129  1.00  0.00     0.223 C 
HETATM   18  C   UNL     1      38.681 -14.398  -3.210  1.00  0.00     0.046 C 
BRANCH  17  19
HETATM   19  C   UNL     1      39.581 -12.127  -2.700  1.00  0.00     0.032 A 
HETATM   20  S   UNL     1      38.416 -10.878  -2.912  1.00  0.00    -0.076 SA
HETATM   21  C   UNL     1      39.638  -9.850  -3.549  1.00  0.00     0.071 A 
HETATM   22  C   UNL     1      39.308  -8.462  -3.978  1.00  0.00     0.078 C 
HETATM   23  N   UNL     1      40.836 -10.386  -3.614  1.00  0.00    -0.257 NA
HETATM   24  C   UNL     1      40.816 -11.670  -3.118  1.00  0.00     0.134 A 
ENDBRANCH  17  19
ENDBRANCH  14  17
ENDBRANCH  13  14
ENDBRANCH  12  13
ENDBRANCH  11  12
ENDBRANCH   1  11
BRANCH   6  25
HETATM   25  O   UNL     1      42.035 -16.345   7.208  1.00  0.00    -0.355 OA
HETATM   26  C   UNL     1      42.916 -15.415   7.835  1.00  0.00     0.210 C 
ENDBRANCH   6  25
BRANCH   8  27
HETATM   27  O   UNL     1      44.786 -19.496   4.648  1.00  0.00    -0.356 OA
HETATM   28  C   UNL     1      44.406 -20.773   5.147  1.00  0.00     0.210 C 
ENDBRANCH   8  27
TORSDOF 8
ENDMDL
MODEL 6
REMARK VINA RESULT:      -6.8      5.646      8.326
REMARK  8 active torsions:
REMARK  status: ('A' for Active; 'I' for Inactive)
REMARK    1  A    between atoms: C_4  and  C_5 
REMARK    2  A    between atoms: C_5  and  N_6 
REMARK    3  A    between atoms: N_6  and  C_9 
REMARK    4  A    between atoms: C_9  and  C_10 
REMARK    5  A    between atoms: C_10  and  C_11 
REMARK    6  A    between atoms: C_11  and  C_12 
REMARK    7  A    between atoms: C_17  and  O_18 
REMARK    8  A    between atoms: C_21  and  O_22 
ROOT
HETATM    1  C   UNL     1      41.597 -15.047   2.439  1.00  0.00     0.010 C 
HETATM    2  N   UNL     1      42.084 -16.260   2.011  1.00  0.00    -0.359 N 
HETATM    3  H   UNL     1      41.912 -16.685   1.109  1.00  0.00     0.166 HD
HETATM    4  C   UNL     1      42.796 -16.865   3.021  1.00  0.00     0.048 A 
HETATM    5  C   UNL     1      42.876 -15.961   4.077  1.00  0.00     0.026 A 
HETATM    6  C   UNL     1      43.581 -16.325   5.243  1.00  0.00     0.083 A 
HETATM    7  C   UNL     1      44.140 -17.612   5.324  1.00  0.00     0.074 A 
HETATM    8  C   UNL     1      44.040 -18.506   4.256  1.00  0.00     0.073 A 
HETATM    9  C   UNL     1      43.378 -18.135   3.078  1.00  0.00     0.067 A 
HETATM   10  C   UNL     1      42.152 -14.801   3.678  1.00  0.00     0.041 C 
ENDROOT
BRANCH   1  11
HETATM   11  C   UNL     1      40.631 -14.243   1.638  1.00  0.00     0.059 C 
BRANCH  11  12
HETATM   12  C   UNL     1      40.259 -14.964   0.335  1.00  0.00     0.033 C 
BRANCH  12  13
HETATM   13  C   UNL     1      39.681 -14.015  -0.714  1.00  0.00     0.233 C 
BRANCH  13  14
HETATM   14  N   UNL     1      38.920 -12.931  -0.022  1.00  0.00    -0.067 N 
HETATM   15  H   UNL     1      39.359 -12.713   0.882  1.00  0.00     0.277 HD
HETATM   16  H   UNL     1      37.978 -13.274   0.207  1.00  0.00     0.277 HD
BRANCH  14  17
HETATM   17  C   UNL     1      38.760 -11.638  -0.777  1.00  0.00     0.223 C 
HETATM   18  C   UNL     1      38.414 -11.918  -2.239  1.00  0.00     0.046 C 
BRANCH  17  19
HETATM   19  C   UNL     1      39.999 -10.804  -0.665  1.00  0.00     0.032 A 
HETATM   20  S   UNL     1      40.561  -9.813  -1.955  1.00  0.00    -0.076 SA
HETATM   21  C   UNL     1      41.885  -9.304  -0.985  1.00  0.00     0.071 A 
HETATM   22  C   UNL     1      42.881  -8.333  -1.517  1.00  0.00     0.078 C 
HETATM   23  N   UNL     1      41.926  -9.831   0.219  1.00  0.00    -0.257 NA
HETATM   24  C   UNL     1      40.851 -10.668   0.413  1.00  0.00     0.134 A 
ENDBRANCH  17  19
ENDBRANCH  14  17
ENDBRANCH  13  14
ENDBRANCH  12  13
ENDBRANCH  11  12
ENDBRANCH   1  11
BRANCH   6  25
HETATM   25  O   UNL     1      43.618 -15.422   6.278  1.00  0.00    -0.355 OA
HETATM   26  C   UNL     1      42.696 -15.694   7.331  1.00  0.00     0.210 C 
ENDBRANCH   6  25
BRANCH   8  27
HETATM   27  O   UNL     1      44.537 -19.783   4.231  1.00  0.00    -0.356 OA
HETATM   28  C   UNL     1      44.152 -20.652   5.290  1.00  0.00     0.210 C 
ENDBRANCH   8  27
TORSDOF 8
ENDMDL
MODEL 7
REMARK VINA RESULT:      -6.7      3.634      5.604
REMARK  8 active torsions:
REMARK  status: ('A' for Active; 'I' for Inactive)
REMARK    1  A    between atoms: C_4  and  C_5 
REMARK    2  A    between atoms: C_5  and  N_6 
REMARK    3  A    between atoms: N_6  and  C_9 
REMARK    4  A    between atoms: C_9  and  C_10 
REMARK    5  A    between atoms: C_10  and  C_11 
REMARK    6  A    between atoms: C_11  and  C_12 
REMARK    7  A    between atoms: C_17  and  O_18 
REMARK    8  A    between atoms: C_21  and  O_22 
ROOT
HETATM    1  C   UNL     1      43.395 -14.527   5.858  1.00  0.00     0.010 C 
HETATM    2  N   UNL     1      43.880 -15.806   5.998  1.00  0.00    -0.359 N 
HETATM    3  H   UNL     1      44.396 -16.163   6.791  1.00  0.00     0.166 HD
HETATM    4  C   UNL     1      43.625 -16.535   4.858  1.00  0.00     0.048 A 
HETATM    5  C   UNL     1      42.845 -15.742   4.021  1.00  0.00     0.026 A 
HETATM    6  C   UNL     1      42.418 -16.262   2.781  1.00  0.00     0.083 A 
HETATM    7  C   UNL     1      42.836 -17.551   2.406  1.00  0.00     0.074 A 
HETATM    8  C   UNL     1      43.626 -18.325   3.259  1.00  0.00     0.073 A 
HETATM    9  C   UNL     1      44.018 -17.830   4.509  1.00  0.00     0.067 A 
HETATM   10  C   UNL     1      42.670 -14.494   4.684  1.00  0.00     0.041 C 
ENDROOT
BRANCH   1  11
HETATM   11  C   UNL     1      43.683 -13.448   6.844  1.00  0.00     0.059 C 
BRANCH  11  12
HETATM   12  C   UNL     1      44.158 -12.168   6.142  1.00  0.00     0.033 C 
BRANCH  12  13
HETATM   13  C   UNL     1      43.132 -11.039   6.224  1.00  0.00     0.233 C 
BRANCH  13  14
HETATM   14  N   UNL     1      42.745 -10.632   4.839  1.00  0.00    -0.067 N 
HETATM   15  H   UNL     1      43.223 -11.229   4.150  1.00  0.00     0.277 HD
HETATM   16  H   UNL     1      43.087  -9.680   4.660  1.00  0.00     0.277 HD
BRANCH  14  17
HETATM   17  C   UNL     1      41.274 -10.653   4.520  1.00  0.00     0.223 C 
HETATM   18  C   UNL     1      40.531 -11.542   5.517  1.00  0.00     0.046 C 
BRANCH  17  19
HETATM   19  C   UNL     1      41.044 -11.110   3.112  1.00  0.00     0.032 A 
HETATM   20  S   UNL     1      39.675 -12.051   2.662  1.00  0.00    -0.076 SA
HETATM   21  C   UNL     1      40.227 -12.073   1.035  1.00  0.00     0.071 A 
HETATM   22  C   UNL     1      39.443 -12.775  -0.018  1.00  0.00     0.078 C 
HETATM   23  N   UNL     1      41.356 -11.434   0.823  1.00  0.00    -0.257 NA
HETATM   24  C   UNL     1      41.816 -10.872   1.993  1.00  0.00     0.134 A 
ENDBRANCH  17  19
ENDBRANCH  14  17
ENDBRANCH  13  14
ENDBRANCH  12  13
ENDBRANCH  11  12
ENDBRANCH   1  11
BRANCH   6  25
HETATM   25  O   UNL     1      41.672 -15.446   1.966  1.00  0.00    -0.355 OA
HETATM   26  C   UNL     1      40.296 -15.809   1.870  1.00  0.00     0.210 C 
ENDBRANCH   6  25
BRANCH   8  27
HETATM   27  O   UNL     1      44.098 -19.583   2.990  1.00  0.00    -0.356 OA
HETATM   28  C   UNL     1      43.460 -20.309   1.947  1.00  0.00     0.210 C 
ENDBRANCH   8  27
TORSDOF 8
ENDMDL
MODEL 8
REMARK VINA RESULT:      -6.7      5.659      8.465
REMARK  8 active torsions:
REMARK  status: ('A' for Active; 'I' for Inactive)
REMARK    1  A    between atoms: C_4  and  C_5 
REMARK    2  A    between atoms: C_5  and  N_6 
REMARK    3  A    between atoms: N_6  and  C_9 
REMARK    4  A    between atoms: C_9  and  C_10 
REMARK    5  A    between atoms: C_10  and  C_11 
REMARK    6  A    between atoms: C_11  and  C_12 
REMARK    7  A    between atoms: C_17  and  O_18 
REMARK    8  A    between atoms: C_21  and  O_22 
ROOT
HETATM    1  C   UNL     1      40.698 -14.995   3.067  1.00  0.00     0.010 C 
HETATM    2  N   UNL     1      41.308 -15.829   2.159  1.00  0.00    -0.359 N 
HETATM    3  H   UNL     1      41.142 -15.846   1.161  1.00  0.00     0.166 HD
HETATM    4  C   UNL     1      42.143 -16.707   2.812  1.00  0.00     0.048 A 
HETATM    5  C   UNL     1      42.167 -16.341   4.155  1.00  0.00     0.026 A 
HETATM    6  C   UNL     1      42.973 -17.070   5.054  1.00  0.00     0.083 A 
HETATM    7  C   UNL     1      43.691 -18.180   4.574  1.00  0.00     0.074 A 
HETATM    8  C   UNL     1      43.645 -18.534   3.224  1.00  0.00     0.073 A 
HETATM    9  C   UNL     1      42.880 -17.788   2.319  1.00  0.00     0.067 A 
HETATM   10  C   UNL     1      41.285 -15.231   4.293  1.00  0.00     0.041 C 
ENDROOT
BRANCH   1  11
HETATM   11  C   UNL     1      39.599 -14.064   2.686  1.00  0.00     0.059 C 
BRANCH  11  12
HETATM   12  C   UNL     1      39.500 -12.892   3.674  1.00  0.00     0.033 C 
BRANCH  12  13
HETATM   13  C   UNL     1      39.574 -11.533   2.980  1.00  0.00     0.233 C 
BRANCH  13  14
HETATM   14  N   UNL     1      40.122 -11.720   1.602  1.00  0.00    -0.067 N 
HETATM   15  H   UNL     1      40.157 -12.722   1.370  1.00  0.00     0.277 HD
HETATM   16  H   UNL     1      41.098 -11.400   1.581  1.00  0.00     0.277 HD
BRANCH  14  17
HETATM   17  C   UNL     1      39.390 -11.019   0.489  1.00  0.00     0.223 C 
HETATM   18  C   UNL     1      38.241 -10.186   1.055  1.00  0.00     0.046 C 
BRANCH  17  19
HETATM   19  C   UNL     1      38.895 -12.006  -0.524  1.00  0.00     0.032 A 
HETATM   20  S   UNL     1      39.820 -13.376  -1.001  1.00  0.00    -0.076 SA
HETATM   21  C   UNL     1      38.561 -13.851  -2.071  1.00  0.00     0.071 A 
HETATM   22  C   UNL     1      38.693 -15.087  -2.890  1.00  0.00     0.078 C 
HETATM   23  N   UNL     1      37.518 -13.051  -2.089  1.00  0.00    -0.257 NA
HETATM   24  C   UNL     1      37.693 -12.013  -1.202  1.00  0.00     0.134 A 
ENDBRANCH  17  19
ENDBRANCH  14  17
ENDBRANCH  13  14
ENDBRANCH  12  13
ENDBRANCH  11  12
ENDBRANCH   1  11
BRANCH   6  25
HETATM   25  O   UNL     1      42.954 -16.702   6.377  1.00  0.00    -0.355 OA
HETATM   26  C   UNL     1      44.038 -15.863   6.770  1.00  0.00     0.210 C 
ENDBRANCH   6  25
BRANCH   8  27
HETATM   27  O   UNL     1      44.294 -19.597   2.653  1.00  0.00    -0.356 OA
HETATM   28  C   UNL     1      43.536 -20.433   1.786  1.00  0.00     0.210 C 
ENDBRANCH   8  27
TORSDOF 8
ENDMDL
MODEL 9
REMARK VINA RESULT:      -6.6      5.104      7.337
REMARK  8 active torsions:
REMARK  status: ('A' for Active; 'I' for Inactive)
REMARK    1  A    between atoms: C_4  and  C_5 
REMARK    2  A    between atoms: C_5  and  N_6 
REMARK    3  A    between atoms: N_6  and  C_9 
REMARK    4  A    between atoms: C_9  and  C_10 
REMARK    5  A    between atoms: C_10  and  C_11 
REMARK    6  A    between atoms: C_11  and  C_12 
REMARK    7  A    between atoms: C_17  and  O_18 
REMARK    8  A    between atoms: C_21  and  O_22 
ROOT
HETATM    1  C   UNL     1      40.881 -15.297   1.396  1.00  0.00     0.010 C 
HETATM    2  N   UNL     1      41.532 -14.092   1.527  1.00  0.00    -0.359 N 
HETATM    3  H   UNL     1      42.291 -13.892   2.165  1.00  0.00     0.166 HD
HETATM    4  C   UNL     1      40.955 -13.153   0.702  1.00  0.00     0.048 A 
HETATM    5  C   UNL     1      39.996 -13.805  -0.068  1.00  0.00     0.026 A 
HETATM    6  C   UNL     1      39.264 -13.069  -1.023  1.00  0.00     0.083 A 
HETATM    7  C   UNL     1      39.490 -11.686  -1.133  1.00  0.00     0.074 A 
HETATM    8  C   UNL     1      40.452 -11.052  -0.344  1.00  0.00     0.073 A 
HETATM    9  C   UNL     1      41.212 -11.784   0.577  1.00  0.00     0.067 A 
HETATM   10  C   UNL     1      39.991 -15.166   0.350  1.00  0.00     0.041 C 
ENDROOT
BRANCH   1  11
HETATM   11  C   UNL     1      41.151 -16.455   2.293  1.00  0.00     0.059 C 
BRANCH  11  12
HETATM   12  C   UNL     1      42.660 -16.704   2.436  1.00  0.00     0.033 C 
BRANCH  12  13
HETATM   13  C   UNL     1      43.032 -17.275   3.804  1.00  0.00     0.233 C 
BRANCH  13  14
HETATM   14  N   UNL     1      43.784 -16.239   4.574  1.00  0.00    -0.067 N 
HETATM   15  H   UNL     1      44.139 -15.513   3.937  1.00  0.00     0.277 HD
HETATM   16  H   UNL     1      44.619 -16.669   4.992  1.00  0.00     0.277 HD
BRANCH  14  17
HETATM   17  C   UNL     1      43.031 -15.547   5.679  1.00  0.00     0.223 C 
HETATM   18  C   UNL     1      42.021 -16.504   6.309  1.00  0.00     0.046 C 
BRANCH  17  19
HETATM   19  C   UNL     1      42.357 -14.311   5.166  1.00  0.00     0.032 A 
HETATM   20  S   UNL     1      40.654 -14.084   5.263  1.00  0.00    -0.076 SA
HETATM   21  C   UNL     1      40.817 -12.548   4.510  1.00  0.00     0.071 A 
HETATM   22  C   UNL     1      39.620 -11.699   4.260  1.00  0.00     0.078 C 
HETATM   23  N   UNL     1      42.049 -12.213   4.194  1.00  0.00    -0.257 NA
HETATM   24  C   UNL     1      42.929 -13.200   4.578  1.00  0.00     0.134 A 
ENDBRANCH  17  19
ENDBRANCH  14  17
ENDBRANCH  13  14
ENDBRANCH  12  13
ENDBRANCH  11  12
ENDBRANCH   1  11
BRANCH   6  25
HETATM   25  O   UNL     1      38.306 -13.734  -1.748  1.00  0.00    -0.355 OA
HETATM   26  C   UNL     1      38.715 -14.107  -3.063  1.00  0.00     0.210 C 
ENDBRANCH   6  25
BRANCH   8  27
HETATM   27  O   UNL     1      40.746  -9.713  -0.361  1.00  0.00    -0.356 OA
HETATM   28  C   UNL     1      41.939  -9.317  -1.027  1.00  0.00     0.210 C 
ENDBRANCH   8  27
TORSDOF 8
ENDMDL
MODEL 10
REMARK VINA RESULT:      -6.5     16.814     18.428
REMARK  8 active torsions:
REMARK  status: ('A' for Active; 'I' for Inactive)
REMARK    1  A    between atoms: C_4  and  C_5 
REMARK    2  A    between atoms: C_5  and  N_6 
REMARK    3  A    between atoms: N_6  and  C_9 
REMARK    4  A    between atoms: C_9  and  C_10 
REMARK    5  A    between atoms: C_10  and  C_11 
REMARK    6  A    between atoms: C_11  and  C_12 
REMARK    7  A    between atoms: C_17  and  O_18 
REMARK    8  A    between atoms: C_21  and  O_22 
ROOT
HETATM    1  C   UNL     1      44.156 -29.080  -0.758  1.00  0.00     0.010 C 
HETATM    2  N   UNL     1      43.317 -28.669   0.251  1.00  0.00    -0.359 N 
HETATM    3  H   UNL     1      43.110 -27.711   0.500  1.00  0.00     0.166 HD
HETATM    4  C   UNL     1      42.838 -29.761   0.940  1.00  0.00     0.048 A 
HETATM    5  C   UNL     1      43.280 -30.901   0.274  1.00  0.00     0.026 A 
HETATM    6  C   UNL     1      42.908 -32.171   0.762  1.00  0.00     0.083 A 
HETATM    7  C   UNL     1      42.142 -32.248   1.939  1.00  0.00     0.074 A 
HETATM    8  C   UNL     1      41.717 -31.090   2.595  1.00  0.00     0.073 A 
HETATM    9  C   UNL     1      42.048 -29.826   2.091  1.00  0.00     0.067 A 
HETATM   10  C   UNL     1      44.073 -30.455  -0.821  1.00  0.00     0.041 C 
ENDROOT
BRANCH   1  11
HETATM   11  C   UNL     1      44.976 -28.125  -1.557  1.00  0.00     0.059 C 
BRANCH  11  12
HETATM   12  C   UNL     1      45.461 -28.771  -2.862  1.00  0.00     0.033 C 
BRANCH  12  13
HETATM   13  C   UNL     1      46.886 -29.312  -2.754  1.00  0.00     0.233 C 
BRANCH  13  14
HETATM   14  N   UNL     1      47.715 -28.345  -1.972  1.00  0.00    -0.067 N 
HETATM   15  H   UNL     1      47.118 -27.600  -1.586  1.00  0.00     0.277 HD
HETATM   16  H   UNL     1      48.368 -27.870  -2.607  1.00  0.00     0.277 HD
BRANCH  14  17
HETATM   17  C   UNL     1      48.521 -28.918  -0.837  1.00  0.00     0.223 C 
HETATM   18  C   UNL     1      49.108 -30.271  -1.237  1.00  0.00     0.046 C 
BRANCH  17  19
HETATM   19  C   UNL     1      47.685 -29.035   0.400  1.00  0.00     0.032 A 
HETATM   20  S   UNL     1      47.188 -30.557   1.033  1.00  0.00    -0.076 SA
HETATM   21  C   UNL     1      46.370 -29.754   2.315  1.00  0.00     0.071 A 
HETATM   22  C   UNL     1      45.649 -30.536   3.356  1.00  0.00     0.078 C 
HETATM   23  N   UNL     1      46.446 -28.442   2.285  1.00  0.00    -0.257 NA
HETATM   24  C   UNL     1      47.204 -28.028   1.213  1.00  0.00     0.134 A 
ENDBRANCH  17  19
ENDBRANCH  14  17
ENDBRANCH  13  14
ENDBRANCH  12  13
ENDBRANCH  11  12
ENDBRANCH   1  11
BRANCH   6  25
HETATM   25  O   UNL     1      43.381 -33.277   0.100  1.00  0.00    -0.355 OA
HETATM   26  C   UNL     1      42.390 -33.994  -0.634  1.00  0.00     0.210 C 
ENDBRANCH   6  25
BRANCH   8  27
HETATM   27  O   UNL     1      40.980 -31.049   3.749  1.00  0.00    -0.356 OA
HETATM   28  C   UNL     1      41.692 -31.102   4.979  1.00  0.00     0.210 C 
ENDBRANCH   8  27
TORSDOF 8
ENDMDL
