MODEL 1
REMARK VINA RESULT:     -10.7      0.000      0.000
REMARK  11 active torsions:
REMARK  status: ('A' for Active; 'I' for Inactive)
REMARK    1  A    between atoms: C_6  and  O_9 
REMARK    2  A    between atoms: O_9  and  C_10 
REMARK    3  A    between atoms: C_10  and  C_12 
REMARK    4  A    between atoms: C_12  and  C_13 
REMARK    5  A    between atoms: C_16  and  N_17 
REMARK       I    between atoms: N_17  and  C_18 
REMARK    6  A    between atoms: C_18  and  C_20 
REMARK    7  A    between atoms: C_24  and  C_26 
REMARK    8  A    between atoms: C_28  and  C_34 
REMARK    9  A    between atoms: C_31  and  C_32 
REMARK   10  A    between atoms: C_32  and  N_33 
REMARK       I    between atoms: C_34  and  N_36 
REMARK   11  A    between atoms: N_36  and  C_37 
ROOT
HETATM    1  C   UNL     1      44.111 -10.396   8.527  1.00  0.00     0.033 A 
HETATM    2  C   UNL     1      45.470 -10.149   8.310  1.00  0.00     0.017 A 
HETATM    3  C   UNL     1      46.115 -10.770   7.246  1.00  0.00     0.002 A 
HETATM    4  C   UNL     1      45.400 -11.611   6.387  1.00  0.00     0.012 A 
HETATM    5  C   UNL     1      44.036 -11.894   6.597  1.00  0.00    -0.024 A 
HETATM    6  C   UNL     1      43.419 -11.309   7.717  1.00  0.00     0.029 A 
ENDROOT
BRANCH   1   7
HETATM    7  C   UNL     1      43.340  -9.624   9.540  1.00  0.00     0.256 C 
HETATM    8  N   UNL     1      43.552 -10.055  10.839  1.00  0.00    -0.323 N 
HETATM    9  H   UNL     1      44.196 -10.826  10.960  1.00  0.00     0.169 HD
HETATM   10  O   UNL     1      42.675  -8.666   9.172  1.00  0.00    -0.267 OA
BRANCH   8  11
HETATM   11  C   UNL     1      43.095  -9.461  12.033  1.00  0.00     0.035 A 
HETATM   12  C   UNL     1      42.142 -10.027  12.876  1.00  0.00     0.030 A 
HETATM   13  C   UNL     1      41.715  -9.348  14.024  1.00  0.00     0.010 A 
HETATM   14  C   UNL     1      42.233  -8.086  14.344  1.00  0.00    -0.049 A 
HETATM   15  C   UNL     1      43.205  -7.528  13.508  1.00  0.00     0.010 A 
HETATM   16  C   UNL     1      43.630  -8.209  12.364  1.00  0.00     0.030 A 
BRANCH  14  17
HETATM   17  C   UNL     1      41.769  -7.357  15.580  1.00  0.00     0.149 C 
BRANCH  17  18
HETATM   18  C   UNL     1      40.355  -6.830  15.470  1.00  0.00     0.263 C 
HETATM   19  O   UNL     1      39.693  -6.738  14.446  1.00  0.00    -0.265 OA
BRANCH  18  20
HETATM   20  O   UNL     1      39.873  -6.510  16.713  1.00  0.00    -0.316 OA
BRANCH  20  21
HETATM   21  C   UNL     1      40.664  -6.986  17.816  1.00  0.00     0.135 C 
HETATM   22  C   UNL     1      41.007  -5.837  18.763  1.00  0.00     0.060 C 
HETATM   23  C   UNL     1      41.757  -6.346  19.980  1.00  0.00     0.237 C 
HETATM   24  N   UNL     1      40.970  -7.428  20.684  1.00  0.00    -0.075 N 
HETATM   25  C   UNL     1      39.823  -6.904  21.507  1.00  0.00     0.269 C 
HETATM   26  C   UNL     1      40.591  -8.565  19.766  1.00  0.00     0.237 C 
HETATM   27  H   UNL     1      41.619  -7.835  21.373  1.00  0.00     0.279 HD
HETATM   28  C   UNL     1      39.849  -8.053  18.544  1.00  0.00     0.060 C 
ENDBRANCH  20  21
ENDBRANCH  18  20
ENDBRANCH  17  18
ENDBRANCH  14  17
ENDBRANCH   8  11
ENDBRANCH   1   7
BRANCH   5  29
HETATM   29  C   UNL     1      43.282 -12.743   5.637  1.00  0.00    -0.017 A 
HETATM   30  C   UNL     1      43.276 -14.147   5.825  1.00  0.00     0.030 A 
HETATM   31  C   UNL     1      42.634 -15.008   4.924  1.00  0.00     0.033 A 
HETATM   32  C   UNL     1      41.938 -14.474   3.842  1.00  0.00     0.017 A 
HETATM   33  C   UNL     1      41.912 -13.098   3.644  1.00  0.00     0.011 A 
HETATM   34  C   UNL     1      42.617 -12.218   4.492  1.00  0.00    -0.020 A 
BRANCH  31  35
HETATM   35  C   UNL     1      42.750 -16.489   5.013  1.00  0.00     0.256 C 
HETATM   36  O   UNL     1      42.174 -17.057   5.933  1.00  0.00    -0.267 OA
HETATM   37  N   UNL     1      43.523 -17.096   4.042  1.00  0.00    -0.320 N 
HETATM   38  H   UNL     1      44.082 -16.505   3.436  1.00  0.00     0.169 HD
BRANCH  37  39
HETATM   39  C   UNL     1      43.713 -18.489   3.869  1.00  0.00     0.076 A 
HETATM   40  C   UNL     1      44.112 -19.357   4.885  1.00  0.00     0.052 A 
HETATM   41  C   UNL     1      44.253 -20.708   4.589  1.00  0.00     0.118 A 
HETATM   42  N   UNL     1      44.025 -21.243   3.369  1.00  0.00    -0.270 NA
HETATM   43  C   UNL     1      43.635 -20.383   2.400  1.00  0.00     0.160 A 
HETATM   44  C   UNL     1      43.467 -19.026   2.606  1.00  0.00     0.160 A 
HETATM   45  F   UNL     1      43.071 -18.232   1.599  1.00  0.00    -0.202 F 
ENDBRANCH  37  39
ENDBRANCH  31  35
BRANCH  34  46
HETATM   46  C   UNL     1      42.621 -10.737   4.149  1.00  0.00     0.306 C 
BRANCH  46  47
HETATM   47  N   UNL     1      42.414 -10.467   2.725  1.00  0.00     0.082 N 
HETATM   48  H   UNL     1      42.837 -11.222   2.186  1.00  0.00     0.313 HD
HETATM   49  H   UNL     1      42.915  -9.617   2.473  1.00  0.00     0.313 HD
ENDBRANCH  46  47
ENDBRANCH  34  46
ENDBRANCH   5  29
TORSDOF 11
ENDMDL
MODEL 2
REMARK VINA RESULT:     -10.6      2.110      3.159
REMARK  11 active torsions:
REMARK  status: ('A' for Active; 'I' for Inactive)
REMARK    1  A    between atoms: C_6  and  O_9 
REMARK    2  A    between atoms: O_9  and  C_10 
REMARK    3  A    between atoms: C_10  and  C_12 
REMARK    4  A    between atoms: C_12  and  C_13 
REMARK    5  A    between atoms: C_16  and  N_17 
REMARK       I    between atoms: N_17  and  C_18 
REMARK    6  A    between atoms: C_18  and  C_20 
REMARK    7  A    between atoms: C_24  and  C_26 
REMARK    8  A    between atoms: C_28  and  C_34 
REMARK    9  A    between atoms: C_31  and  C_32 
REMARK   10  A    between atoms: C_32  and  N_33 
REMARK       I    between atoms: C_34  and  N_36 
REMARK   11  A    between atoms: N_36  and  C_37 
ROOT
HETATM    1  C   UNL     1      44.073 -10.413   8.606  1.00  0.00     0.033 A 
HETATM    2  C   UNL     1      45.440 -10.151   8.483  1.00  0.00     0.017 A 
HETATM    3  C   UNL     1      46.162 -10.752   7.457  1.00  0.00     0.002 A 
HETATM    4  C   UNL     1      45.514 -11.587   6.541  1.00  0.00     0.012 A 
HETATM    5  C   UNL     1      44.142 -11.885   6.656  1.00  0.00    -0.024 A 
HETATM    6  C   UNL     1      43.446 -11.321   7.739  1.00  0.00     0.029 A 
ENDROOT
BRANCH   1   7
HETATM    7  C   UNL     1      43.227  -9.662   9.574  1.00  0.00     0.256 C 
HETATM    8  N   UNL     1      43.552  -9.912  10.897  1.00  0.00    -0.323 N 
HETATM    9  H   UNL     1      44.314 -10.558  11.062  1.00  0.00     0.169 HD
HETATM   10  O   UNL     1      42.407  -8.862   9.147  1.00  0.00    -0.267 OA
BRANCH   8  11
HETATM   11  C   UNL     1      43.052  -9.268  12.047  1.00  0.00     0.035 A 
HETATM   12  C   UNL     1      43.632  -8.144  12.630  1.00  0.00     0.030 A 
HETATM   13  C   UNL     1      43.091  -7.590  13.798  1.00  0.00     0.010 A 
HETATM   14  C   UNL     1      41.961  -8.157  14.403  1.00  0.00    -0.049 A 
HETATM   15  C   UNL     1      41.367  -9.272  13.804  1.00  0.00     0.010 A 
HETATM   16  C   UNL     1      41.909  -9.822  12.639  1.00  0.00     0.030 A 
BRANCH  14  17
HETATM   17  C   UNL     1      41.383  -7.559  15.661  1.00  0.00     0.149 C 
BRANCH  17  18
HETATM   18  C   UNL     1      41.259  -6.053  15.608  1.00  0.00     0.263 C 
HETATM   19  O   UNL     1      41.607  -5.266  16.477  1.00  0.00    -0.265 OA
BRANCH  18  20
HETATM   20  O   UNL     1      40.744  -5.663  14.399  1.00  0.00    -0.316 OA
BRANCH  20  21
HETATM   21  C   UNL     1      39.311  -5.730  14.296  1.00  0.00     0.135 C 
HETATM   22  C   UNL     1      38.708  -4.326  14.305  1.00  0.00     0.060 C 
HETATM   23  C   UNL     1      37.205  -4.382  14.097  1.00  0.00     0.237 C 
HETATM   24  N   UNL     1      36.865  -5.123  12.825  1.00  0.00    -0.075 N 
HETATM   25  C   UNL     1      37.090  -4.315  11.575  1.00  0.00     0.269 C 
HETATM   26  C   UNL     1      37.471  -6.505  12.774  1.00  0.00     0.237 C 
HETATM   27  H   UNL     1      35.846  -5.270  12.858  1.00  0.00     0.279 HD
HETATM   28  C   UNL     1      38.973  -6.448  12.991  1.00  0.00     0.060 C 
ENDBRANCH  20  21
ENDBRANCH  18  20
ENDBRANCH  17  18
ENDBRANCH  14  17
ENDBRANCH   8  11
ENDBRANCH   1   7
BRANCH   5  29
HETATM   29  C   UNL     1      43.464 -12.727   5.635  1.00  0.00    -0.017 A 
HETATM   30  C   UNL     1      43.396 -14.128   5.841  1.00  0.00     0.030 A 
HETATM   31  C   UNL     1      42.821 -14.984   4.891  1.00  0.00     0.033 A 
HETATM   32  C   UNL     1      42.254 -14.448   3.738  1.00  0.00     0.017 A 
HETATM   33  C   UNL     1      42.289 -13.075   3.520  1.00  0.00     0.011 A 
HETATM   34  C   UNL     1      42.932 -12.202   4.423  1.00  0.00    -0.020 A 
BRANCH  31  35
HETATM   35  C   UNL     1      42.883 -16.466   5.011  1.00  0.00     0.256 C 
HETATM   36  O   UNL     1      42.292 -16.993   5.946  1.00  0.00    -0.267 OA
HETATM   37  N   UNL     1      43.627 -17.122   4.049  1.00  0.00    -0.320 N 
HETATM   38  H   UNL     1      44.205 -16.565   3.428  1.00  0.00     0.169 HD
BRANCH  37  39
HETATM   39  C   UNL     1      43.765 -18.524   3.905  1.00  0.00     0.076 A 
HETATM   40  C   UNL     1      44.144 -19.384   4.935  1.00  0.00     0.052 A 
HETATM   41  C   UNL     1      44.232 -20.745   4.668  1.00  0.00     0.118 A 
HETATM   42  N   UNL     1      43.971 -21.298   3.462  1.00  0.00    -0.270 NA
HETATM   43  C   UNL     1      43.602 -20.446   2.479  1.00  0.00     0.160 A 
HETATM   44  C   UNL     1      43.486 -19.079   2.656  1.00  0.00     0.160 A 
HETATM   45  F   UNL     1      43.108 -18.293   1.636  1.00  0.00    -0.202 F 
ENDBRANCH  37  39
ENDBRANCH  31  35
BRANCH  34  46
HETATM   46  C   UNL     1      43.015 -10.728   4.062  1.00  0.00     0.306 C 
BRANCH  46  47
HETATM   47  N   UNL     1      42.019 -10.311   3.074  1.00  0.00     0.082 N 
HETATM   48  H   UNL     1      42.506  -9.982   2.241  1.00  0.00     0.313 HD
HETATM   49  H   UNL     1      41.503  -9.513   3.439  1.00  0.00     0.313 HD
ENDBRANCH  46  47
ENDBRANCH  34  46
ENDBRANCH   5  29
TORSDOF 11
ENDMDL
MODEL 3
REMARK VINA RESULT:     -10.5      1.145      1.434
REMARK  11 active torsions:
REMARK  status: ('A' for Active; 'I' for Inactive)
REMARK    1  A    between atoms: C_6  and  O_9 
REMARK    2  A    between atoms: O_9  and  C_10 
REMARK    3  A    between atoms: C_10  and  C_12 
REMARK    4  A    between atoms: C_12  and  C_13 
REMARK    5  A    between atoms: C_16  and  N_17 
REMARK       I    between atoms: N_17  and  C_18 
REMARK    6  A    between atoms: C_18  and  C_20 
REMARK    7  A    between atoms: C_24  and  C_26 
REMARK    8  A    between atoms: C_28  and  C_34 
REMARK    9  A    between atoms: C_31  and  C_32 
REMARK   10  A    between atoms: C_32  and  N_33 
REMARK       I    between atoms: C_34  and  N_36 
REMARK   11  A    between atoms: N_36  and  C_37 
ROOT
HETATM    1  C   UNL     1      44.687 -10.841   8.680  1.00  0.00     0.033 A 
HETATM    2  C   UNL     1      45.949 -10.440   8.233  1.00  0.00     0.017 A 
HETATM    3  C   UNL     1      46.378 -10.821   6.966  1.00  0.00     0.002 A 
HETATM    4  C   UNL     1      45.539 -11.576   6.139  1.00  0.00     0.012 A 
HETATM    5  C   UNL     1      44.272 -12.012   6.575  1.00  0.00    -0.024 A 
HETATM    6  C   UNL     1      43.886 -11.673   7.883  1.00  0.00     0.029 A 
ENDROOT
BRANCH   1   7
HETATM    7  C   UNL     1      44.115 -10.316   9.950  1.00  0.00     0.256 C 
HETATM    8  N   UNL     1      44.070  -8.933  10.003  1.00  0.00    -0.323 N 
HETATM    9  H   UNL     1      44.417  -8.437   9.192  1.00  0.00     0.169 HD
HETATM   10  O   UNL     1      43.677 -11.107  10.773  1.00  0.00    -0.267 OA
BRANCH   8  11
HETATM   11  C   UNL     1      43.466  -8.124  10.987  1.00  0.00     0.035 A 
HETATM   12  C   UNL     1      43.516  -8.384  12.354  1.00  0.00     0.030 A 
HETATM   13  C   UNL     1      42.852  -7.549  13.261  1.00  0.00     0.010 A 
HETATM   14  C   UNL     1      42.122  -6.440  12.813  1.00  0.00    -0.049 A 
HETATM   15  C   UNL     1      42.090  -6.167  11.441  1.00  0.00     0.010 A 
HETATM   16  C   UNL     1      42.755  -7.003  10.539  1.00  0.00     0.030 A 
BRANCH  14  17
HETATM   17  C   UNL     1      41.407  -5.544  13.793  1.00  0.00     0.149 C 
BRANCH  17  18
HETATM   18  C   UNL     1      39.971  -5.951  14.040  1.00  0.00     0.263 C 
HETATM   19  O   UNL     1      38.999  -5.623  13.373  1.00  0.00    -0.265 OA
BRANCH  18  20
HETATM   20  O   UNL     1      39.900  -6.808  15.107  1.00  0.00    -0.316 OA
BRANCH  20  21
HETATM   21  C   UNL     1      40.642  -6.399  16.269  1.00  0.00     0.135 C 
HETATM   22  C   UNL     1      39.717  -5.732  17.286  1.00  0.00     0.060 C 
HETATM   23  C   UNL     1      40.473  -5.386  18.557  1.00  0.00     0.237 C 
HETATM   24  N   UNL     1      41.141  -6.611  19.136  1.00  0.00    -0.075 N 
HETATM   25  C   UNL     1      40.193  -7.536  19.854  1.00  0.00     0.269 C 
HETATM   26  C   UNL     1      42.040  -7.310  18.145  1.00  0.00     0.237 C 
HETATM   27  H   UNL     1      41.767  -6.259  19.875  1.00  0.00     0.279 HD
HETATM   28  C   UNL     1      41.285  -7.647  16.871  1.00  0.00     0.060 C 
ENDBRANCH  20  21
ENDBRANCH  18  20
ENDBRANCH  17  18
ENDBRANCH  14  17
ENDBRANCH   8  11
ENDBRANCH   1   7
BRANCH   5  29
HETATM   29  C   UNL     1      43.374 -12.761   5.656  1.00  0.00    -0.017 A 
HETATM   30  C   UNL     1      43.289 -14.170   5.783  1.00  0.00     0.030 A 
HETATM   31  C   UNL     1      42.506 -14.941   4.913  1.00  0.00     0.033 A 
HETATM   32  C   UNL     1      41.749 -14.310   3.929  1.00  0.00     0.017 A 
HETATM   33  C   UNL     1      41.799 -12.927   3.795  1.00  0.00     0.011 A 
HETATM   34  C   UNL     1      42.640 -12.138   4.607  1.00  0.00    -0.020 A 
BRANCH  31  35
HETATM   35  C   UNL     1      42.528 -16.429   4.925  1.00  0.00     0.256 C 
HETATM   36  O   UNL     1      41.678 -17.011   5.589  1.00  0.00    -0.267 OA
HETATM   37  N   UNL     1      43.531 -17.027   4.186  1.00  0.00    -0.320 N 
HETATM   38  H   UNL     1      44.271 -16.438   3.819  1.00  0.00     0.169 HD
BRANCH  37  39
HETATM   39  C   UNL     1      43.706 -18.417   3.978  1.00  0.00     0.076 A 
HETATM   40  C   UNL     1      44.125 -19.310   4.963  1.00  0.00     0.052 A 
HETATM   41  C   UNL     1      44.246 -20.655   4.634  1.00  0.00     0.118 A 
HETATM   42  N   UNL     1      43.982 -21.162   3.409  1.00  0.00    -0.270 NA
HETATM   43  C   UNL     1      43.573 -20.278   2.471  1.00  0.00     0.160 A 
HETATM   44  C   UNL     1      43.421 -18.924   2.710  1.00  0.00     0.160 A 
HETATM   45  F   UNL     1      43.005 -18.105   1.732  1.00  0.00    -0.202 F 
ENDBRANCH  37  39
ENDBRANCH  31  35
BRANCH  34  46
HETATM   46  C   UNL     1      42.714 -10.645   4.330  1.00  0.00     0.306 C 
BRANCH  46  47
HETATM   47  N   UNL     1      42.239 -10.274   2.996  1.00  0.00     0.082 N 
HETATM   48  H   UNL     1      42.375  -9.272   2.870  1.00  0.00     0.313 HD
HETATM   49  H   UNL     1      41.235 -10.437   2.944  1.00  0.00     0.313 HD
ENDBRANCH  46  47
ENDBRANCH  34  46
ENDBRANCH   5  29
TORSDOF 11
ENDMDL
MODEL 4
REMARK VINA RESULT:     -10.2      1.350      1.748
REMARK  11 active torsions:
REMARK  status: ('A' for Active; 'I' for Inactive)
REMARK    1  A    between atoms: C_6  and  O_9 
REMARK    2  A    between atoms: O_9  and  C_10 
REMARK    3  A    between atoms: C_10  and  C_12 
REMARK    4  A    between atoms: C_12  and  C_13 
REMARK    5  A    between atoms: C_16  and  N_17 
REMARK       I    between atoms: N_17  and  C_18 
REMARK    6  A    between atoms: C_18  and  C_20 
REMARK    7  A    between atoms: C_24  and  C_26 
REMARK    8  A    between atoms: C_28  and  C_34 
REMARK    9  A    between atoms: C_31  and  C_32 
REMARK   10  A    between atoms: C_32  and  N_33 
REMARK       I    between atoms: C_34  and  N_36 
REMARK   11  A    between atoms: N_36  and  C_37 
ROOT
HETATM    1  C   UNL     1      44.497  -9.615   9.150  1.00  0.00     0.033 A 
HETATM    2  C   UNL     1      45.812  -9.294   8.800  1.00  0.00     0.017 A 
HETATM    3  C   UNL     1      46.429  -9.979   7.759  1.00  0.00     0.002 A 
HETATM    4  C   UNL     1      45.726 -10.962   7.053  1.00  0.00     0.012 A 
HETATM    5  C   UNL     1      44.409 -11.321   7.400  1.00  0.00    -0.024 A 
HETATM    6  C   UNL     1      43.827 -10.662   8.498  1.00  0.00     0.029 A 
ENDROOT
BRANCH   1   7
HETATM    7  C   UNL     1      43.738  -8.796  10.134  1.00  0.00     0.256 C 
HETATM    8  N   UNL     1      43.461  -9.469  11.313  1.00  0.00    -0.323 N 
HETATM    9  H   UNL     1      43.799 -10.420  11.381  1.00  0.00     0.169 HD
HETATM   10  O   UNL     1      43.501  -7.625   9.871  1.00  0.00    -0.267 OA
BRANCH   8  11
HETATM   11  C   UNL     1      42.892  -8.947  12.493  1.00  0.00     0.035 A 
HETATM   12  C   UNL     1      43.392  -7.846  13.183  1.00  0.00     0.030 A 
HETATM   13  C   UNL     1      42.788  -7.419  14.372  1.00  0.00     0.010 A 
HETATM   14  C   UNL     1      41.673  -8.091  14.892  1.00  0.00    -0.049 A 
HETATM   15  C   UNL     1      41.160  -9.184  14.186  1.00  0.00     0.010 A 
HETATM   16  C   UNL     1      41.765  -9.607  12.999  1.00  0.00     0.030 A 
BRANCH  14  17
HETATM   17  C   UNL     1      41.027  -7.629  16.173  1.00  0.00     0.149 C 
BRANCH  17  18
HETATM   18  C   UNL     1      41.165  -6.142  16.414  1.00  0.00     0.263 C 
HETATM   19  O   UNL     1      40.594  -5.252  15.799  1.00  0.00    -0.265 OA
BRANCH  18  20
HETATM   20  O   UNL     1      41.995  -5.912  17.480  1.00  0.00    -0.316 OA
BRANCH  20  21
HETATM   21  C   UNL     1      41.562  -6.486  18.726  1.00  0.00     0.135 C 
HETATM   22  C   UNL     1      42.727  -7.185  19.426  1.00  0.00     0.060 C 
HETATM   23  C   UNL     1      42.303  -7.708  20.786  1.00  0.00     0.237 C 
HETATM   24  N   UNL     1      41.732  -6.597  21.636  1.00  0.00    -0.075 N 
HETATM   25  C   UNL     1      42.778  -5.684  22.222  1.00  0.00     0.269 C 
HETATM   26  C   UNL     1      40.598  -5.867  20.959  1.00  0.00     0.237 C 
HETATM   27  H   UNL     1      41.312  -7.064  22.452  1.00  0.00     0.279 HD
HETATM   28  C   UNL     1      41.020  -5.352  19.594  1.00  0.00     0.060 C 
ENDBRANCH  20  21
ENDBRANCH  18  20
ENDBRANCH  17  18
ENDBRANCH  14  17
ENDBRANCH   8  11
ENDBRANCH   1   7
BRANCH   5  29
HETATM   29  C   UNL     1      43.662 -12.324   6.597  1.00  0.00    -0.017 A 
HETATM   30  C   UNL     1      44.073 -13.679   6.645  1.00  0.00     0.030 A 
HETATM   31  C   UNL     1      43.448 -14.666   5.868  1.00  0.00     0.033 A 
HETATM   32  C   UNL     1      42.363 -14.323   5.066  1.00  0.00     0.017 A 
HETATM   33  C   UNL     1      41.926 -13.003   5.015  1.00  0.00     0.011 A 
HETATM   34  C   UNL     1      42.589 -11.980   5.726  1.00  0.00    -0.020 A 
BRANCH  31  35
HETATM   35  C   UNL     1      43.964 -16.059   5.780  1.00  0.00     0.256 C 
HETATM   36  O   UNL     1      44.916 -16.366   6.489  1.00  0.00    -0.267 OA
HETATM   37  N   UNL     1      43.322 -16.888   4.881  1.00  0.00    -0.320 N 
HETATM   38  H   UNL     1      42.660 -16.472   4.234  1.00  0.00     0.169 HD
BRANCH  37  39
HETATM   39  C   UNL     1      43.576 -18.267   4.681  1.00  0.00     0.076 A 
HETATM   40  C   UNL     1      43.748 -19.190   5.711  1.00  0.00     0.052 A 
HETATM   41  C   UNL     1      43.981 -20.520   5.381  1.00  0.00     0.118 A 
HETATM   42  N   UNL     1      44.052 -20.984   4.114  1.00  0.00    -0.270 NA
HETATM   43  C   UNL     1      43.878 -20.072   3.130  1.00  0.00     0.160 A 
HETATM   44  C   UNL     1      43.639 -18.730   3.366  1.00  0.00     0.160 A 
HETATM   45  F   UNL     1      43.469 -17.882   2.341  1.00  0.00    -0.202 F 
ENDBRANCH  37  39
ENDBRANCH  31  35
BRANCH  34  46
HETATM   46  C   UNL     1      42.113 -10.549   5.538  1.00  0.00     0.306 C 
BRANCH  46  47
HETATM   47  N   UNL     1      40.930 -10.217   6.335  1.00  0.00     0.082 N 
HETATM   48  H   UNL     1      40.184 -10.868   6.095  1.00  0.00     0.313 HD
HETATM   49  H   UNL     1      40.601  -9.291   6.069  1.00  0.00     0.313 HD
ENDBRANCH  46  47
ENDBRANCH  34  46
ENDBRANCH   5  29
TORSDOF 11
ENDMDL
MODEL 5
REMARK VINA RESULT:      -9.9      2.518      3.701
REMARK  11 active torsions:
REMARK  status: ('A' for Active; 'I' for Inactive)
REMARK    1  A    between atoms: C_6  and  O_9 
REMARK    2  A    between atoms: O_9  and  C_10 
REMARK    3  A    between atoms: C_10  and  C_12 
REMARK    4  A    between atoms: C_12  and  C_13 
REMARK    5  A    between atoms: C_16  and  N_17 
REMARK       I    between atoms: N_17  and  C_18 
REMARK    6  A    between atoms: C_18  and  C_20 
REMARK    7  A    between atoms: C_24  and  C_26 
REMARK    8  A    between atoms: C_28  and  C_34 
REMARK    9  A    between atoms: C_31  and  C_32 
REMARK   10  A    between atoms: C_32  and  N_33 
REMARK       I    between atoms: C_34  and  N_36 
REMARK   11  A    between atoms: N_36  and  C_37 
ROOT
HETATM    1  C   UNL     1      44.484  -9.536   9.320  1.00  0.00     0.033 A 
HETATM    2  C   UNL     1      45.770  -9.205   8.884  1.00  0.00     0.017 A 
HETATM    3  C   UNL     1      46.331  -9.901   7.818  1.00  0.00     0.002 A 
HETATM    4  C   UNL     1      45.599 -10.904   7.174  1.00  0.00     0.012 A 
HETATM    5  C   UNL     1      44.310 -11.272   7.608  1.00  0.00    -0.024 A 
HETATM    6  C   UNL     1      43.789 -10.602   8.729  1.00  0.00     0.029 A 
ENDROOT
BRANCH   1   7
HETATM    7  C   UNL     1      43.777  -8.708  10.336  1.00  0.00     0.256 C 
HETATM    8  N   UNL     1      43.538  -9.381  11.523  1.00  0.00    -0.323 N 
HETATM    9  H   UNL     1      43.864 -10.337  11.575  1.00  0.00     0.169 HD
HETATM   10  O   UNL     1      43.547  -7.534  10.085  1.00  0.00    -0.267 OA
BRANCH   8  11
HETATM   11  C   UNL     1      43.024  -8.855  12.726  1.00  0.00     0.035 A 
HETATM   12  C   UNL     1      42.017  -9.455  13.476  1.00  0.00     0.030 A 
HETATM   13  C   UNL     1      41.536  -8.842  14.641  1.00  0.00     0.010 A 
HETATM   14  C   UNL     1      42.055  -7.613  15.070  1.00  0.00    -0.049 A 
HETATM   15  C   UNL     1      43.082  -7.022  14.327  1.00  0.00     0.010 A 
HETATM   16  C   UNL     1      43.559  -7.637  13.166  1.00  0.00     0.030 A 
BRANCH  14  17
HETATM   17  C   UNL     1      41.534  -6.956  16.323  1.00  0.00     0.149 C 
BRANCH  17  18
HETATM   18  C   UNL     1      40.403  -5.985  16.065  1.00  0.00     0.263 C 
HETATM   19  O   UNL     1      40.232  -4.907  16.617  1.00  0.00    -0.265 OA
BRANCH  18  20
HETATM   20  O   UNL     1      39.597  -6.456  15.061  1.00  0.00    -0.316 OA
BRANCH  20  21
HETATM   21  C   UNL     1      39.077  -5.450  14.174  1.00  0.00     0.135 C 
HETATM   22  C   UNL     1      40.110  -5.094  13.106  1.00  0.00     0.060 C 
HETATM   23  C   UNL     1      39.535  -4.107  12.107  1.00  0.00     0.237 C 
HETATM   24  N   UNL     1      38.263  -4.643  11.491  1.00  0.00    -0.075 N 
HETATM   25  C   UNL     1      38.497  -5.696  10.440  1.00  0.00     0.269 C 
HETATM   26  C   UNL     1      37.233  -5.032  12.523  1.00  0.00     0.237 C 
HETATM   27  H   UNL     1      37.853  -3.851  10.976  1.00  0.00     0.279 HD
HETATM   28  C   UNL     1      37.813  -6.012  13.527  1.00  0.00     0.060 C 
ENDBRANCH  20  21
ENDBRANCH  18  20
ENDBRANCH  17  18
ENDBRANCH  14  17
ENDBRANCH   8  11
ENDBRANCH   1   7
BRANCH   5  29
HETATM   29  C   UNL     1      43.528 -12.298   6.870  1.00  0.00    -0.017 A 
HETATM   30  C   UNL     1      44.032 -13.621   6.800  1.00  0.00     0.030 A 
HETATM   31  C   UNL     1      43.374 -14.622   6.072  1.00  0.00     0.033 A 
HETATM   32  C   UNL     1      42.166 -14.331   5.441  1.00  0.00     0.017 A 
HETATM   33  C   UNL     1      41.639 -13.046   5.510  1.00  0.00     0.011 A 
HETATM   34  C   UNL     1      42.324 -12.003   6.170  1.00  0.00    -0.020 A 
BRANCH  31  35
HETATM   35  C   UNL     1      43.965 -15.970   5.851  1.00  0.00     0.256 C 
HETATM   36  O   UNL     1      45.060 -16.206   6.348  1.00  0.00    -0.267 OA
HETATM   37  N   UNL     1      43.219 -16.841   5.081  1.00  0.00    -0.320 N 
HETATM   38  H   UNL     1      42.411 -16.474   4.589  1.00  0.00     0.169 HD
BRANCH  37  39
HETATM   39  C   UNL     1      43.531 -18.195   4.803  1.00  0.00     0.076 A 
HETATM   40  C   UNL     1      43.834 -18.685   3.534  1.00  0.00     0.052 A 
HETATM   41  C   UNL     1      44.135 -20.035   3.396  1.00  0.00     0.118 A 
HETATM   42  N   UNL     1      44.155 -20.914   4.422  1.00  0.00    -0.270 NA
HETATM   43  C   UNL     1      43.863 -20.416   5.644  1.00  0.00     0.160 A 
HETATM   44  C   UNL     1      43.554 -19.087   5.875  1.00  0.00     0.160 A 
HETATM   45  F   UNL     1      43.280 -18.661   7.117  1.00  0.00    -0.202 F 
ENDBRANCH  37  39
ENDBRANCH  31  35
BRANCH  34  46
HETATM   46  C   UNL     1      41.731 -10.605   6.113  1.00  0.00     0.306 C 
BRANCH  46  47
HETATM   47  N   UNL     1      40.605 -10.410   7.028  1.00  0.00     0.082 N 
HETATM   48  H   UNL     1      40.970 -10.136   7.939  1.00  0.00     0.313 HD
HETATM   49  H   UNL     1      40.129 -11.299   7.164  1.00  0.00     0.313 HD
ENDBRANCH  46  47
ENDBRANCH  34  46
ENDBRANCH   5  29
TORSDOF 11
ENDMDL
MODEL 6
REMARK VINA RESULT:      -9.9      1.626      2.295
REMARK  11 active torsions:
REMARK  status: ('A' for Active; 'I' for Inactive)
REMARK    1  A    between atoms: C_6  and  O_9 
REMARK    2  A    between atoms: O_9  and  C_10 
REMARK    3  A    between atoms: C_10  and  C_12 
REMARK    4  A    between atoms: C_12  and  C_13 
REMARK    5  A    between atoms: C_16  and  N_17 
REMARK       I    between atoms: N_17  and  C_18 
REMARK    6  A    between atoms: C_18  and  C_20 
REMARK    7  A    between atoms: C_24  and  C_26 
REMARK    8  A    between atoms: C_28  and  C_34 
REMARK    9  A    between atoms: C_31  and  C_32 
REMARK   10  A    between atoms: C_32  and  N_33 
REMARK       I    between atoms: C_34  and  N_36 
REMARK   11  A    between atoms: N_36  and  C_37 
ROOT
HETATM    1  C   UNL     1      44.122 -10.350   8.420  1.00  0.00     0.033 A 
HETATM    2  C   UNL     1      45.507 -10.248   8.269  1.00  0.00     0.017 A 
HETATM    3  C   UNL     1      46.133 -10.928   7.228  1.00  0.00     0.002 A 
HETATM    4  C   UNL     1      45.374 -11.683   6.328  1.00  0.00     0.012 A 
HETATM    5  C   UNL     1      43.979 -11.820   6.472  1.00  0.00    -0.024 A 
HETATM    6  C   UNL     1      43.376 -11.180   7.568  1.00  0.00     0.029 A 
ENDROOT
BRANCH   1   7
HETATM    7  C   UNL     1      43.389  -9.508   9.404  1.00  0.00     0.256 C 
HETATM    8  N   UNL     1      43.440 -10.002  10.697  1.00  0.00    -0.323 N 
HETATM    9  H   UNL     1      43.961 -10.858  10.834  1.00  0.00     0.169 HD
HETATM   10  O   UNL     1      42.892  -8.455   9.028  1.00  0.00    -0.267 OA
BRANCH   8  11
HETATM   11  C   UNL     1      42.980  -9.383  11.878  1.00  0.00     0.035 A 
HETATM   12  C   UNL     1      43.552  -8.245  12.440  1.00  0.00     0.030 A 
HETATM   13  C   UNL     1      43.056  -7.719  13.640  1.00  0.00     0.010 A 
HETATM   14  C   UNL     1      41.979  -8.328  14.299  1.00  0.00    -0.049 A 
HETATM   15  C   UNL     1      41.392  -9.458  13.721  1.00  0.00     0.010 A 
HETATM   16  C   UNL     1      41.890  -9.980  12.524  1.00  0.00     0.030 A 
BRANCH  14  17
HETATM   17  C   UNL     1      41.449  -7.760  15.591  1.00  0.00     0.149 C 
BRANCH  17  18
HETATM   18  C   UNL     1      40.791  -6.408  15.427  1.00  0.00     0.263 C 
HETATM   19  O   UNL     1      39.698  -6.190  14.925  1.00  0.00    -0.265 OA
BRANCH  18  20
HETATM   20  O   UNL     1      41.575  -5.431  15.984  1.00  0.00    -0.316 OA
BRANCH  20  21
HETATM   21  C   UNL     1      40.942  -4.656  17.018  1.00  0.00     0.135 C 
HETATM   22  C   UNL     1      41.718  -4.781  18.329  1.00  0.00     0.060 C 
HETATM   23  C   UNL     1      41.115  -3.889  19.400  1.00  0.00     0.237 C 
HETATM   24  N   UNL     1      41.047  -2.454  18.929  1.00  0.00    -0.075 N 
HETATM   25  C   UNL     1      42.374  -1.741  18.967  1.00  0.00     0.269 C 
HETATM   26  C   UNL     1      40.312  -2.303  17.620  1.00  0.00     0.237 C 
HETATM   27  H   UNL     1      40.471  -1.963  19.628  1.00  0.00     0.279 HD
HETATM   28  C   UNL     1      40.910  -3.202  16.553  1.00  0.00     0.060 C 
ENDBRANCH  20  21
ENDBRANCH  18  20
ENDBRANCH  17  18
ENDBRANCH  14  17
ENDBRANCH   8  11
ENDBRANCH   1   7
BRANCH   5  29
HETATM   29  C   UNL     1      43.187 -12.577   5.467  1.00  0.00    -0.017 A 
HETATM   30  C   UNL     1      43.118 -13.989   5.575  1.00  0.00     0.030 A 
HETATM   31  C   UNL     1      42.435 -14.767   4.629  1.00  0.00     0.033 A 
HETATM   32  C   UNL     1      41.763 -14.142   3.583  1.00  0.00     0.017 A 
HETATM   33  C   UNL     1      41.798 -12.756   3.464  1.00  0.00     0.011 A 
HETATM   34  C   UNL     1      42.543 -11.959   4.358  1.00  0.00    -0.020 A 
BRANCH  31  35
HETATM   35  C   UNL     1      42.485 -16.254   4.633  1.00  0.00     0.256 C 
HETATM   36  O   UNL     1      41.819 -16.850   5.472  1.00  0.00    -0.267 OA
HETATM   37  N   UNL     1      43.302 -16.836   3.683  1.00  0.00    -0.320 N 
HETATM   38  H   UNL     1      43.929 -16.236   3.158  1.00  0.00     0.169 HD
BRANCH  37  39
HETATM   39  C   UNL     1      43.449 -18.224   3.438  1.00  0.00     0.076 A 
HETATM   40  C   UNL     1      43.070 -18.855   2.255  1.00  0.00     0.052 A 
HETATM   41  C   UNL     1      43.278 -20.224   2.134  1.00  0.00     0.118 A 
HETATM   42  N   UNL     1      43.831 -20.993   3.098  1.00  0.00    -0.270 NA
HETATM   43  C   UNL     1      44.195 -20.359   4.236  1.00  0.00     0.160 A 
HETATM   44  C   UNL     1      44.027 -19.001   4.441  1.00  0.00     0.160 A 
HETATM   45  F   UNL     1      44.418 -18.437   5.595  1.00  0.00    -0.202 F 
ENDBRANCH  37  39
ENDBRANCH  31  35
BRANCH  34  46
HETATM   46  C   UNL     1      42.614 -10.463   4.099  1.00  0.00     0.306 C 
BRANCH  46  47
HETATM   47  N   UNL     1      41.393  -9.747   4.473  1.00  0.00     0.082 N 
HETATM   48  H   UNL     1      41.476  -8.779   4.164  1.00  0.00     0.313 HD
HETATM   49  H   UNL     1      41.321  -9.719   5.488  1.00  0.00     0.313 HD
ENDBRANCH  46  47
ENDBRANCH  34  46
ENDBRANCH   5  29
TORSDOF 11
ENDMDL
MODEL 7
REMARK VINA RESULT:      -9.5      1.878      2.391
REMARK  11 active torsions:
REMARK  status: ('A' for Active; 'I' for Inactive)
REMARK    1  A    between atoms: C_6  and  O_9 
REMARK    2  A    between atoms: O_9  and  C_10 
REMARK    3  A    between atoms: C_10  and  C_12 
REMARK    4  A    between atoms: C_12  and  C_13 
REMARK    5  A    between atoms: C_16  and  N_17 
REMARK       I    between atoms: N_17  and  C_18 
REMARK    6  A    between atoms: C_18  and  C_20 
REMARK    7  A    between atoms: C_24  and  C_26 
REMARK    8  A    between atoms: C_28  and  C_34 
REMARK    9  A    between atoms: C_31  and  C_32 
REMARK   10  A    between atoms: C_32  and  N_33 
REMARK       I    between atoms: C_34  and  N_36 
REMARK   11  A    between atoms: N_36  and  C_37 
ROOT
HETATM    1  C   UNL     1      44.563 -10.355   9.762  1.00  0.00     0.033 A 
HETATM    2  C   UNL     1      45.771  -9.774   9.367  1.00  0.00     0.017 A 
HETATM    3  C   UNL     1      46.110  -9.752   8.018  1.00  0.00     0.002 A 
HETATM    4  C   UNL     1      45.233 -10.283   7.067  1.00  0.00     0.012 A 
HETATM    5  C   UNL     1      44.020 -10.895   7.441  1.00  0.00    -0.024 A 
HETATM    6  C   UNL     1      43.728 -10.966   8.814  1.00  0.00     0.029 A 
ENDROOT
BRANCH   1   7
HETATM    7  C   UNL     1      44.077 -10.247  11.166  1.00  0.00     0.256 C 
HETATM    8  N   UNL     1      43.695  -8.964  11.519  1.00  0.00    -0.323 N 
HETATM    9  H   UNL     1      43.778  -8.254  10.803  1.00  0.00     0.169 HD
HETATM   10  O   UNL     1      43.983 -11.265  11.838  1.00  0.00    -0.267 OA
BRANCH   8  11
HETATM   11  C   UNL     1      43.063  -8.547  12.708  1.00  0.00     0.035 A 
HETATM   12  C   UNL     1      43.473  -7.457  13.472  1.00  0.00     0.030 A 
HETATM   13  C   UNL     1      42.812  -7.136  14.664  1.00  0.00     0.010 A 
HETATM   14  C   UNL     1      41.730  -7.905  15.113  1.00  0.00    -0.049 A 
HETATM   15  C   UNL     1      41.306  -8.986  14.334  1.00  0.00     0.010 A 
HETATM   16  C   UNL     1      41.968  -9.303  13.145  1.00  0.00     0.030 A 
BRANCH  14  17
HETATM   17  C   UNL     1      41.022  -7.557  16.399  1.00  0.00     0.149 C 
BRANCH  17  18
HETATM   18  C   UNL     1      40.137  -6.336  16.286  1.00  0.00     0.263 C 
HETATM   19  O   UNL     1      39.001  -6.303  15.835  1.00  0.00    -0.265 OA
BRANCH  18  20
HETATM   20  O   UNL     1      40.768  -5.244  16.823  1.00  0.00    -0.316 OA
BRANCH  20  21
HETATM   21  C   UNL     1      41.419  -5.476  18.085  1.00  0.00     0.135 C 
HETATM   22  C   UNL     1      42.211  -4.240  18.512  1.00  0.00     0.060 C 
HETATM   23  C   UNL     1      42.820  -4.438  19.889  1.00  0.00     0.237 C 
HETATM   24  N   UNL     1      41.756  -4.792  20.902  1.00  0.00    -0.075 N 
HETATM   25  C   UNL     1      40.928  -3.615  21.347  1.00  0.00     0.269 C 
HETATM   26  C   UNL     1      40.936  -5.992  20.494  1.00  0.00     0.237 C 
HETATM   27  H   UNL     1      42.267  -5.083  21.747  1.00  0.00     0.279 HD
HETATM   28  C   UNL     1      40.335  -5.796  19.113  1.00  0.00     0.060 C 
ENDBRANCH  20  21
ENDBRANCH  18  20
ENDBRANCH  17  18
ENDBRANCH  14  17
ENDBRANCH   8  11
ENDBRANCH   1   7
BRANCH   5  29
HETATM   29  C   UNL     1      43.077 -11.397   6.407  1.00  0.00    -0.017 A 
HETATM   30  C   UNL     1      43.378 -12.611   5.740  1.00  0.00     0.030 A 
HETATM   31  C   UNL     1      42.561 -13.110   4.716  1.00  0.00     0.033 A 
HETATM   32  C   UNL     1      41.395 -12.431   4.375  1.00  0.00     0.017 A 
HETATM   33  C   UNL     1      41.065 -11.247   5.027  1.00  0.00     0.011 A 
HETATM   34  C   UNL     1      41.912 -10.684   6.005  1.00  0.00    -0.020 A 
BRANCH  31  35
HETATM   35  C   UNL     1      42.941 -14.292   3.895  1.00  0.00     0.256 C 
HETATM   36  O   UNL     1      43.366 -14.093   2.763  1.00  0.00    -0.267 OA
HETATM   37  N   UNL     1      42.763 -15.527   4.489  1.00  0.00    -0.320 N 
HETATM   38  H   UNL     1      42.249 -15.568   5.363  1.00  0.00     0.169 HD
BRANCH  37  39
HETATM   39  C   UNL     1      43.127 -16.782   3.943  1.00  0.00     0.076 A 
HETATM   40  C   UNL     1      42.570 -17.324   2.786  1.00  0.00     0.052 A 
HETATM   41  C   UNL     1      43.023 -18.563   2.347  1.00  0.00     0.118 A 
HETATM   42  N   UNL     1      43.979 -19.284   2.973  1.00  0.00    -0.270 NA
HETATM   43  C   UNL     1      44.508 -18.737   4.090  1.00  0.00     0.160 A 
HETATM   44  C   UNL     1      44.120 -17.510   4.598  1.00  0.00     0.160 A 
HETATM   45  F   UNL     1      44.694 -17.025   5.710  1.00  0.00    -0.202 F 
ENDBRANCH  37  39
ENDBRANCH  31  35
BRANCH  34  46
HETATM   46  C   UNL     1      41.531  -9.337   6.598  1.00  0.00     0.306 C 
BRANCH  46  47
HETATM   47  N   UNL     1      41.542  -8.245   5.623  1.00  0.00     0.082 N 
HETATM   48  H   UNL     1      42.416  -7.730   5.722  1.00  0.00     0.313 HD
HETATM   49  H   UNL     1      40.795  -7.591   5.848  1.00  0.00     0.313 HD
ENDBRANCH  46  47
ENDBRANCH  34  46
ENDBRANCH   5  29
TORSDOF 11
ENDMDL
MODEL 8
REMARK VINA RESULT:      -9.4      3.743     14.189
REMARK  11 active torsions:
REMARK  status: ('A' for Active; 'I' for Inactive)
REMARK    1  A    between atoms: C_6  and  O_9 
REMARK    2  A    between atoms: O_9  and  C_10 
REMARK    3  A    between atoms: C_10  and  C_12 
REMARK    4  A    between atoms: C_12  and  C_13 
REMARK    5  A    between atoms: C_16  and  N_17 
REMARK       I    between atoms: N_17  and  C_18 
REMARK    6  A    between atoms: C_18  and  C_20 
REMARK    7  A    between atoms: C_24  and  C_26 
REMARK    8  A    between atoms: C_28  and  C_34 
REMARK    9  A    between atoms: C_31  and  C_32 
REMARK   10  A    between atoms: C_32  and  N_33 
REMARK       I    between atoms: C_34  and  N_36 
REMARK   11  A    between atoms: N_36  and  C_37 
ROOT
HETATM    1  C   UNL     1      43.334  -9.934   8.510  1.00  0.00     0.033 A 
HETATM    2  C   UNL     1      44.656 -10.236   8.849  1.00  0.00     0.017 A 
HETATM    3  C   UNL     1      45.098 -10.005  10.148  1.00  0.00     0.002 A 
HETATM    4  C   UNL     1      44.215  -9.500  11.109  1.00  0.00     0.012 A 
HETATM    5  C   UNL     1      42.885  -9.166  10.787  1.00  0.00    -0.024 A 
HETATM    6  C   UNL     1      42.478  -9.345   9.453  1.00  0.00     0.029 A 
ENDROOT
BRANCH   1   7
HETATM    7  C   UNL     1      42.768 -10.324   7.189  1.00  0.00     0.256 C 
HETATM    8  N   UNL     1      42.810 -11.689   6.954  1.00  0.00    -0.323 N 
HETATM    9  H   UNL     1      43.205 -12.262   7.687  1.00  0.00     0.169 HD
HETATM   10  O   UNL     1      42.262  -9.462   6.485  1.00  0.00    -0.267 OA
BRANCH   8  11
HETATM   11  C   UNL     1      42.235 -12.399   5.880  1.00  0.00     0.035 A 
HETATM   12  C   UNL     1      42.858 -12.598   4.651  1.00  0.00     0.030 A 
HETATM   13  C   UNL     1      42.197 -13.282   3.622  1.00  0.00     0.010 A 
HETATM   14  C   UNL     1      40.899 -13.776   3.808  1.00  0.00    -0.049 A 
HETATM   15  C   UNL     1      40.283 -13.594   5.050  1.00  0.00     0.010 A 
HETATM   16  C   UNL     1      40.946 -12.911   6.074  1.00  0.00     0.030 A 
BRANCH  14  17
HETATM   17  C   UNL     1      40.191 -14.510   2.698  1.00  0.00     0.149 C 
BRANCH  17  18
HETATM   18  C   UNL     1      41.064 -15.526   1.997  1.00  0.00     0.263 C 
HETATM   19  O   UNL     1      41.594 -15.396   0.903  1.00  0.00    -0.265 OA
BRANCH  18  20
HETATM   20  O   UNL     1      41.241 -16.627   2.795  1.00  0.00    -0.316 OA
BRANCH  20  21
HETATM   21  C   UNL     1      42.610 -16.950   3.095  1.00  0.00     0.135 C 
HETATM   22  C   UNL     1      42.837 -16.963   4.606  1.00  0.00     0.060 C 
HETATM   23  C   UNL     1      44.253 -17.400   4.935  1.00  0.00     0.237 C 
HETATM   24  N   UNL     1      44.559 -18.745   4.317  1.00  0.00    -0.075 N 
HETATM   25  C   UNL     1      43.942 -19.905   5.054  1.00  0.00     0.269 C 
HETATM   26  C   UNL     1      44.316 -18.772   2.828  1.00  0.00     0.237 C 
HETATM   27  H   UNL     1      45.574 -18.876   4.433  1.00  0.00     0.279 HD
HETATM   28  C   UNL     1      42.902 -18.326   2.500  1.00  0.00     0.060 C 
ENDBRANCH  20  21
ENDBRANCH  18  20
ENDBRANCH  17  18
ENDBRANCH  14  17
ENDBRANCH   8  11
ENDBRANCH   1   7
BRANCH   5  29
HETATM   29  C   UNL     1      41.950  -8.689  11.839  1.00  0.00    -0.017 A 
HETATM   30  C   UNL     1      42.468  -7.941  12.925  1.00  0.00     0.030 A 
HETATM   31  C   UNL     1      41.650  -7.511  13.979  1.00  0.00     0.033 A 
HETATM   32  C   UNL     1      40.284  -7.776  13.941  1.00  0.00     0.017 A 
HETATM   33  C   UNL     1      39.745  -8.492  12.877  1.00  0.00     0.011 A 
HETATM   34  C   UNL     1      40.561  -9.003  11.845  1.00  0.00    -0.020 A 
BRANCH  31  35
HETATM   35  C   UNL     1      42.198  -6.867  15.204  1.00  0.00     0.256 C 
HETATM   36  O   UNL     1      43.415  -6.762  15.304  1.00  0.00    -0.267 OA
HETATM   37  N   UNL     1      41.269  -6.453  16.139  1.00  0.00    -0.320 N 
HETATM   38  H   UNL     1      40.305  -6.745  16.019  1.00  0.00     0.169 HD
BRANCH  37  39
HETATM   39  C   UNL     1      41.540  -5.746  17.337  1.00  0.00     0.076 A 
HETATM   40  C   UNL     1      41.477  -4.359  17.459  1.00  0.00     0.052 A 
HETATM   41  C   UNL     1      41.755  -3.787  18.695  1.00  0.00     0.118 A 
HETATM   42  N   UNL     1      42.087  -4.493  19.799  1.00  0.00    -0.270 NA
HETATM   43  C   UNL     1      42.138  -5.837  19.658  1.00  0.00     0.160 A 
HETATM   44  C   UNL     1      41.874  -6.491  18.468  1.00  0.00     0.160 A 
HETATM   45  F   UNL     1      41.937  -7.830  18.402  1.00  0.00    -0.202 F 
ENDBRANCH  37  39
ENDBRANCH  31  35
BRANCH  34  46
HETATM   46  C   UNL     1      39.910  -9.861  10.772  1.00  0.00     0.306 C 
BRANCH  46  47
HETATM   47  N   UNL     1      38.748  -9.230  10.145  1.00  0.00     0.082 N 
HETATM   48  H   UNL     1      37.907  -9.549  10.624  1.00  0.00     0.313 HD
HETATM   49  H   UNL     1      38.672  -9.557   9.183  1.00  0.00     0.313 HD
ENDBRANCH  46  47
ENDBRANCH  34  46
ENDBRANCH   5  29
TORSDOF 11
ENDMDL
MODEL 9
REMARK VINA RESULT:      -9.3      2.991      3.685
REMARK  11 active torsions:
REMARK  status: ('A' for Active; 'I' for Inactive)
REMARK    1  A    between atoms: C_6  and  O_9 
REMARK    2  A    between atoms: O_9  and  C_10 
REMARK    3  A    between atoms: C_10  and  C_12 
REMARK    4  A    between atoms: C_12  and  C_13 
REMARK    5  A    between atoms: C_16  and  N_17 
REMARK       I    between atoms: N_17  and  C_18 
REMARK    6  A    between atoms: C_18  and  C_20 
REMARK    7  A    between atoms: C_24  and  C_26 
REMARK    8  A    between atoms: C_28  and  C_34 
REMARK    9  A    between atoms: C_31  and  C_32 
REMARK   10  A    between atoms: C_32  and  N_33 
REMARK       I    between atoms: C_34  and  N_36 
REMARK   11  A    between atoms: N_36  and  C_37 
ROOT
HETATM    1  C   UNL     1      44.085  -9.957   7.947  1.00  0.00     0.033 A 
HETATM    2  C   UNL     1      45.470 -10.141   7.980  1.00  0.00     0.017 A 
HETATM    3  C   UNL     1      46.051 -11.107   7.164  1.00  0.00     0.002 A 
HETATM    4  C   UNL     1      45.254 -11.865   6.300  1.00  0.00     0.012 A 
HETATM    5  C   UNL     1      43.853 -11.715   6.264  1.00  0.00    -0.024 A 
HETATM    6  C   UNL     1      43.280 -10.781   7.144  1.00  0.00     0.029 A 
ENDROOT
BRANCH   1   7
HETATM    7  C   UNL     1      43.440  -8.824   8.666  1.00  0.00     0.256 C 
HETATM    8  N   UNL     1      42.545  -9.231   9.642  1.00  0.00    -0.323 N 
HETATM    9  H   UNL     1      42.430 -10.228   9.764  1.00  0.00     0.169 HD
HETATM   10  O   UNL     1      43.793  -7.682   8.408  1.00  0.00    -0.267 OA
BRANCH   8  11
HETATM   11  C   UNL     1      41.878  -8.429  10.592  1.00  0.00     0.035 A 
HETATM   12  C   UNL     1      42.254  -8.322  11.928  1.00  0.00     0.030 A 
HETATM   13  C   UNL     1      41.510  -7.533  12.814  1.00  0.00     0.010 A 
HETATM   14  C   UNL     1      40.373  -6.840  12.376  1.00  0.00    -0.049 A 
HETATM   15  C   UNL     1      40.010  -6.931  11.029  1.00  0.00     0.010 A 
HETATM   16  C   UNL     1      40.755  -7.720  10.147  1.00  0.00     0.030 A 
BRANCH  14  17
HETATM   17  C   UNL     1      39.574  -5.993  13.333  1.00  0.00     0.149 C 
BRANCH  17  18
HETATM   18  C   UNL     1      38.203  -6.557  13.633  1.00  0.00     0.263 C 
HETATM   19  O   UNL     1      37.728  -7.588  13.178  1.00  0.00    -0.265 OA
BRANCH  18  20
HETATM   20  O   UNL     1      37.560  -5.772  14.555  1.00  0.00    -0.316 OA
BRANCH  20  21
HETATM   21  C   UNL     1      37.719  -4.355  14.366  1.00  0.00     0.135 C 
HETATM   22  C   UNL     1      36.781  -3.854  13.268  1.00  0.00     0.060 C 
HETATM   23  C   UNL     1      36.869  -2.345  13.130  1.00  0.00     0.237 C 
HETATM   24  N   UNL     1      36.589  -1.666  14.451  1.00  0.00    -0.075 N 
HETATM   25  C   UNL     1      35.128  -1.630  14.815  1.00  0.00     0.269 C 
HETATM   26  C   UNL     1      37.481  -2.162  15.563  1.00  0.00     0.237 C 
HETATM   27  H   UNL     1      36.845  -0.678  14.311  1.00  0.00     0.279 HD
HETATM   28  C   UNL     1      37.398  -3.672  15.694  1.00  0.00     0.060 C 
ENDBRANCH  20  21
ENDBRANCH  18  20
ENDBRANCH  17  18
ENDBRANCH  14  17
ENDBRANCH   8  11
ENDBRANCH   1   7
BRANCH   5  29
HETATM   29  C   UNL     1      43.035 -12.489   5.295  1.00  0.00    -0.017 A 
HETATM   30  C   UNL     1      42.976 -13.899   5.423  1.00  0.00     0.030 A 
HETATM   31  C   UNL     1      42.269 -14.693   4.509  1.00  0.00     0.033 A 
HETATM   32  C   UNL     1      41.562 -14.085   3.475  1.00  0.00     0.017 A 
HETATM   33  C   UNL     1      41.586 -12.701   3.337  1.00  0.00     0.011 A 
HETATM   34  C   UNL     1      42.354 -11.888   4.198  1.00  0.00    -0.020 A 
BRANCH  31  35
HETATM   35  C   UNL     1      42.327 -16.180   4.530  1.00  0.00     0.256 C 
HETATM   36  O   UNL     1      41.581 -16.774   5.300  1.00  0.00    -0.267 OA
HETATM   37  N   UNL     1      43.242 -16.764   3.675  1.00  0.00    -0.320 N 
HETATM   38  H   UNL     1      43.916 -16.164   3.213  1.00  0.00     0.169 HD
BRANCH  37  39
HETATM   39  C   UNL     1      43.421 -18.152   3.459  1.00  0.00     0.076 A 
HETATM   40  C   UNL     1      43.059 -18.816   2.288  1.00  0.00     0.052 A 
HETATM   41  C   UNL     1      43.299 -20.182   2.195  1.00  0.00     0.118 A 
HETATM   42  N   UNL     1      43.868 -20.918   3.175  1.00  0.00    -0.270 NA
HETATM   43  C   UNL     1      44.216 -20.253   4.300  1.00  0.00     0.160 A 
HETATM   44  C   UNL     1      44.017 -18.896   4.478  1.00  0.00     0.160 A 
HETATM   45  F   UNL     1      44.392 -18.300   5.620  1.00  0.00    -0.202 F 
ENDBRANCH  37  39
ENDBRANCH  31  35
BRANCH  34  46
HETATM   46  C   UNL     1      42.409 -10.396   3.918  1.00  0.00     0.306 C 
BRANCH  46  47
HETATM   47  N   UNL     1      41.811 -10.019   2.636  1.00  0.00     0.082 N 
HETATM   48  H   UNL     1      42.216  -9.133   2.337  1.00  0.00     0.313 HD
HETATM   49  H   UNL     1      40.816  -9.849   2.771  1.00  0.00     0.313 HD
ENDBRANCH  46  47
ENDBRANCH  34  46
ENDBRANCH   5  29
TORSDOF 11
ENDMDL
MODEL 10
REMARK VINA RESULT:      -9.2      3.711     13.445
REMARK  11 active torsions:
REMARK  status: ('A' for Active; 'I' for Inactive)
REMARK    1  A    between atoms: C_6  and  O_9 
REMARK    2  A    between atoms: O_9  and  C_10 
REMARK    3  A    between atoms: C_10  and  C_12 
REMARK    4  A    between atoms: C_12  and  C_13 
REMARK    5  A    between atoms: C_16  and  N_17 
REMARK       I    between atoms: N_17  and  C_18 
REMARK    6  A    between atoms: C_18  and  C_20 
REMARK    7  A    between atoms: C_24  and  C_26 
REMARK    8  A    between atoms: C_28  and  C_34 
REMARK    9  A    between atoms: C_31  and  C_32 
REMARK   10  A    between atoms: C_32  and  N_33 
REMARK       I    between atoms: C_34  and  N_36 
REMARK   11  A    between atoms: N_36  and  C_37 
ROOT
HETATM    1  C   UNL     1      41.565  -7.962   5.745  1.00  0.00     0.033 A 
HETATM    2  C   UNL     1      41.491  -6.579   5.560  1.00  0.00     0.017 A 
HETATM    3  C   UNL     1      41.775  -5.730   6.624  1.00  0.00     0.002 A 
HETATM    4  C   UNL     1      42.159  -6.261   7.861  1.00  0.00     0.012 A 
HETATM    5  C   UNL     1      42.219  -7.651   8.080  1.00  0.00    -0.024 A 
HETATM    6  C   UNL     1      41.863  -8.491   7.011  1.00  0.00     0.029 A 
ENDROOT
BRANCH   1   7
HETATM    7  C   UNL     1      41.442  -8.902   4.598  1.00  0.00     0.256 C 
HETATM    8  N   UNL     1      42.086 -10.110   4.805  1.00  0.00    -0.323 N 
HETATM    9  H   UNL     1      42.556 -10.226   5.693  1.00  0.00     0.169 HD
HETATM   10  O   UNL     1      40.749  -8.581   3.643  1.00  0.00    -0.267 OA
BRANCH   8  11
HETATM   11  C   UNL     1      42.047 -11.262   3.991  1.00  0.00     0.035 A 
HETATM   12  C   UNL     1      40.875 -11.869   3.548  1.00  0.00     0.030 A 
HETATM   13  C   UNL     1      40.928 -13.036   2.775  1.00  0.00     0.010 A 
HETATM   14  C   UNL     1      42.157 -13.616   2.436  1.00  0.00    -0.049 A 
HETATM   15  C   UNL     1      43.334 -12.993   2.863  1.00  0.00     0.010 A 
HETATM   16  C   UNL     1      43.278 -11.828   3.634  1.00  0.00     0.030 A 
BRANCH  14  17
HETATM   17  C   UNL     1      42.209 -14.873   1.605  1.00  0.00     0.149 C 
BRANCH  17  18
HETATM   18  C   UNL     1      41.026 -15.788   1.825  1.00  0.00     0.263 C 
HETATM   19  O   UNL     1      40.026 -15.862   1.125  1.00  0.00    -0.265 OA
BRANCH  18  20
HETATM   20  O   UNL     1      41.246 -16.592   2.913  1.00  0.00    -0.316 OA
BRANCH  20  21
HETATM   21  C   UNL     1      42.623 -16.935   3.149  1.00  0.00     0.135 C 
HETATM   22  C   UNL     1      42.937 -16.885   4.644  1.00  0.00     0.060 C 
HETATM   23  C   UNL     1      44.360 -17.342   4.912  1.00  0.00     0.237 C 
HETATM   24  N   UNL     1      44.600 -18.720   4.340  1.00  0.00    -0.075 N 
HETATM   25  C   UNL     1      44.002 -19.830   5.164  1.00  0.00     0.269 C 
HETATM   26  C   UNL     1      44.271 -18.808   2.870  1.00  0.00     0.237 C 
HETATM   27  H   UNL     1      45.617 -18.870   4.404  1.00  0.00     0.279 HD
HETATM   28  C   UNL     1      42.850 -18.343   2.603  1.00  0.00     0.060 C 
ENDBRANCH  20  21
ENDBRANCH  18  20
ENDBRANCH  17  18
ENDBRANCH  14  17
ENDBRANCH   8  11
ENDBRANCH   1   7
BRANCH   5  29
HETATM   29  C   UNL     1      42.688  -8.191   9.384  1.00  0.00    -0.017 A 
HETATM   30  C   UNL     1      41.784  -8.220  10.475  1.00  0.00     0.030 A 
HETATM   31  C   UNL     1      42.179  -8.663  11.746  1.00  0.00     0.033 A 
HETATM   32  C   UNL     1      43.474  -9.136  11.936  1.00  0.00     0.017 A 
HETATM   33  C   UNL     1      44.376  -9.137  10.877  1.00  0.00     0.011 A 
HETATM   34  C   UNL     1      44.025  -8.623   9.610  1.00  0.00    -0.020 A 
BRANCH  31  35
HETATM   35  C   UNL     1      41.298  -8.551  12.940  1.00  0.00     0.256 C 
HETATM   36  O   UNL     1      40.375  -9.349  13.051  1.00  0.00    -0.267 OA
HETATM   37  N   UNL     1      41.597  -7.530  13.822  1.00  0.00    -0.320 N 
HETATM   38  H   UNL     1      42.279  -6.835  13.535  1.00  0.00     0.169 HD
BRANCH  37  39
HETATM   39  C   UNL     1      40.960  -7.276  15.061  1.00  0.00     0.076 A 
HETATM   40  C   UNL     1      41.340  -7.852  16.271  1.00  0.00     0.052 A 
HETATM   41  C   UNL     1      40.639  -7.511  17.421  1.00  0.00     0.118 A 
HETATM   42  N   UNL     1      39.600  -6.647  17.445  1.00  0.00    -0.270 NA
HETATM   43  C   UNL     1      39.250  -6.096  16.261  1.00  0.00     0.160 A 
HETATM   44  C   UNL     1      39.894  -6.376  15.068  1.00  0.00     0.160 A 
HETATM   45  F   UNL     1      39.496  -5.787  13.930  1.00  0.00    -0.202 F 
ENDBRANCH  37  39
ENDBRANCH  31  35
BRANCH  34  46
HETATM   46  C   UNL     1      45.098  -8.566   8.536  1.00  0.00     0.306 C 
BRANCH  46  47
HETATM   47  N   UNL     1      45.371  -9.863   7.913  1.00  0.00     0.082 N 
HETATM   48  H   UNL     1      45.404  -9.738   6.902  1.00  0.00     0.313 HD
HETATM   49  H   UNL     1      44.592 -10.491   8.100  1.00  0.00     0.313 HD
ENDBRANCH  46  47
ENDBRANCH  34  46
ENDBRANCH   5  29
TORSDOF 11
ENDMDL
