MODEL 1
REMARK VINA RESULT:      -9.8      0.000      0.000
REMARK  7 active torsions:
REMARK  status: ('A' for Active; 'I' for Inactive)
REMARK    1  A    between atoms: C_2  and  C_3 
REMARK    2  A    between atoms: C_5  and  N_6 
REMARK    3  A    between atoms: C_8  and  C_9 
REMARK    4  A    between atoms: C_15  and  N_16 
REMARK       I    between atoms: N_16  and  C_17 
REMARK    5  A    between atoms: C_17  and  C_18 
REMARK    6  A    between atoms: C_18  and  O_19 
REMARK    7  A    between atoms: O_19  and  C_20 
ROOT
HETATM    1  N   UNL     1      42.922 -13.281   6.038  1.00  0.00    -0.044 N 
HETATM    2  N   UNL     1      43.665 -12.965   7.145  1.00  0.00    -0.148 NA
HETATM    3  C   UNL     1      43.724 -11.629   7.129  1.00  0.00     0.115 C 
HETATM    4  C   UNL     1      42.969 -11.070   6.075  1.00  0.00     0.087 C 
HETATM    5  C   UNL     1      42.367 -12.142   5.461  1.00  0.00     0.152 C 
ENDROOT
BRANCH   5   6
HETATM    6  N   UNL     1      41.427 -12.015   4.448  1.00  0.00    -0.309 N 
HETATM    7  C   UNL     1      40.035 -12.280   4.699  1.00  0.00     0.247 C 
HETATM    8  O   UNL     1      39.632 -12.347   5.851  1.00  0.00    -0.271 OA
HETATM    9  H   UNL     1      41.683 -11.621   3.548  1.00  0.00     0.170 HD
BRANCH   7  10
HETATM   10  C   UNL     1      39.177 -12.454   3.464  1.00  0.00     0.278 C 
BRANCH  10  11
HETATM   11  O   UNL     1      39.902 -12.040   2.308  1.00  0.00    -0.342 OA
BRANCH  11  12
HETATM   12  C   UNL     1      39.757 -12.860   1.217  1.00  0.00     0.070 A 
HETATM   13  C   UNL     1      38.968 -12.352   0.183  1.00  0.00     0.049 A 
HETATM   14  C   UNL     1      38.732 -13.099  -0.986  1.00  0.00    -0.023 A 
HETATM   15  C   UNL     1      39.320 -14.377  -1.119  1.00  0.00    -0.026 A 
HETATM   16  C   UNL     1      37.922 -12.610  -2.024  1.00  0.00     0.012 A 
HETATM   17  C   UNL     1      40.128 -14.869  -0.085  1.00  0.00     0.015 A 
HETATM   18  C   UNL     1      39.086 -15.129  -2.281  1.00  0.00     0.012 A 
HETATM   19  C   UNL     1      40.348 -14.117   1.074  1.00  0.00     0.037 A 
HETATM   20  C   UNL     1      38.277 -14.628  -3.301  1.00  0.00     0.001 A 
HETATM   21  C   UNL     1      37.695 -13.370  -3.173  1.00  0.00     0.001 A 
ENDBRANCH  11  12
ENDBRANCH  10  11
ENDBRANCH   7  10
ENDBRANCH   5   6
BRANCH   1  22
HETATM   22  C   UNL     1      42.952 -14.606   5.557  1.00  0.00     0.732 A 
HETATM   23  N   UNL     1      42.824 -14.930   4.307  1.00  0.00    -0.067 NA
HETATM   24  C   UNL     1      42.910 -16.280   4.016  1.00  0.00     0.062 A 
HETATM   25  C   UNL     1      43.156 -17.224   4.940  1.00  0.00     0.103 A 
HETATM   26  C   UNL     1      43.330 -16.822   6.343  1.00  0.00     0.261 A 
HETATM   27  N   UNL     1      43.191 -15.493   6.574  1.00  0.00    -0.152 N 
HETATM   28  O   UNL     1      43.588 -17.637   7.218  1.00  0.00    -0.268 OA
HETATM   29  H   UNL     1      43.323 -15.150   7.521  1.00  0.00     0.187 HD
BRANCH  24  30
HETATM   30  C   UNL     1      42.713 -16.680   2.559  1.00  0.00     0.030 C 
HETATM   31  C   UNL     1      43.005 -18.164   2.328  1.00  0.00     0.016 C 
HETATM   32  C   UNL     1      43.560 -15.804   1.635  1.00  0.00     0.016 C 
ENDBRANCH  24  30
ENDBRANCH   1  22
BRANCH   3  33
HETATM   33  C   UNL     1      44.496 -10.847   8.137  1.00  0.00     0.105 A 
HETATM   34  O   UNL     1      44.314 -10.940   9.490  1.00  0.00    -0.320 OA
HETATM   35  C   UNL     1      45.193 -10.085  10.074  1.00  0.00     0.142 A 
HETATM   36  C   UNL     1      45.942  -9.438   9.121  1.00  0.00     0.027 A 
HETATM   37  C   UNL     1      45.495  -9.928   7.871  1.00  0.00     0.041 A 
ENDBRANCH   3  33
TORSDOF 7
ENDMDL
MODEL 2
REMARK VINA RESULT:      -9.7      2.055      8.677
REMARK  7 active torsions:
REMARK  status: ('A' for Active; 'I' for Inactive)
REMARK    1  A    between atoms: C_2  and  C_3 
REMARK    2  A    between atoms: C_5  and  N_6 
REMARK    3  A    between atoms: C_8  and  C_9 
REMARK    4  A    between atoms: C_15  and  N_16 
REMARK       I    between atoms: N_16  and  C_17 
REMARK    5  A    between atoms: C_17  and  C_18 
REMARK    6  A    between atoms: C_18  and  O_19 
REMARK    7  A    between atoms: O_19  and  C_20 
ROOT
HETATM    1  N   UNL     1      41.494 -14.574   1.643  1.00  0.00    -0.044 N 
HETATM    2  N   UNL     1      40.717 -14.956   0.580  1.00  0.00    -0.148 NA
HETATM    3  C   UNL     1      40.244 -13.805   0.091  1.00  0.00     0.115 C 
HETATM    4  C   UNL     1      40.760 -12.679   0.769  1.00  0.00     0.087 C 
HETATM    5  C   UNL     1      41.651 -13.191   1.682  1.00  0.00     0.152 C 
ENDROOT
BRANCH   5   6
HETATM    6  N   UNL     1      42.478 -12.403   2.469  1.00  0.00    -0.309 N 
HETATM    7  C   UNL     1      42.027 -11.905   3.743  1.00  0.00     0.247 C 
HETATM    8  O   UNL     1      41.032 -12.392   4.262  1.00  0.00    -0.271 OA
HETATM    9  H   UNL     1      43.451 -12.260   2.219  1.00  0.00     0.170 HD
BRANCH   7  10
HETATM   10  C   UNL     1      42.861 -10.789   4.333  1.00  0.00     0.278 C 
BRANCH  10  11
HETATM   11  O   UNL     1      44.136 -11.292   4.725  1.00  0.00    -0.342 OA
BRANCH  11  12
HETATM   12  C   UNL     1      44.504 -10.982   6.011  1.00  0.00     0.070 A 
HETATM   13  C   UNL     1      43.493 -10.448   6.813  1.00  0.00     0.049 A 
HETATM   14  C   UNL     1      43.743 -10.078   8.147  1.00  0.00    -0.023 A 
HETATM   15  C   UNL     1      45.035 -10.269   8.685  1.00  0.00    -0.026 A 
HETATM   16  C   UNL     1      42.742  -9.519   8.958  1.00  0.00     0.012 A 
HETATM   17  C   UNL     1      46.037 -10.825   7.879  1.00  0.00     0.015 A 
HETATM   18  C   UNL     1      45.293  -9.898  10.015  1.00  0.00     0.012 A 
HETATM   19  C   UNL     1      45.775 -11.182   6.552  1.00  0.00     0.037 A 
HETATM   20  C   UNL     1      44.287  -9.342  10.806  1.00  0.00     0.001 A 
HETATM   21  C   UNL     1      43.013  -9.153  10.278  1.00  0.00     0.001 A 
ENDBRANCH  11  12
ENDBRANCH  10  11
ENDBRANCH   7  10
ENDBRANCH   5   6
BRANCH   1  22
HETATM   22  C   UNL     1      41.867 -15.546   2.594  1.00  0.00     0.732 A 
HETATM   23  N   UNL     1      42.716 -16.499   2.365  1.00  0.00    -0.067 NA
HETATM   24  C   UNL     1      42.984 -17.345   3.427  1.00  0.00     0.062 A 
HETATM   25  C   UNL     1      42.449 -17.192   4.650  1.00  0.00     0.103 A 
HETATM   26  C   UNL     1      41.516 -16.081   4.888  1.00  0.00     0.261 A 
HETATM   27  N   UNL     1      41.258 -15.314   3.799  1.00  0.00    -0.152 N 
HETATM   28  O   UNL     1      41.027 -15.877   5.990  1.00  0.00    -0.268 OA
HETATM   29  H   UNL     1      40.638 -14.516   3.906  1.00  0.00     0.187 HD
BRANCH  24  30
HETATM   30  C   UNL     1      43.942 -18.498   3.159  1.00  0.00     0.030 C 
HETATM   31  C   UNL     1      43.354 -19.517   2.181  1.00  0.00     0.016 C 
HETATM   32  C   UNL     1      44.362 -19.172   4.466  1.00  0.00     0.016 C 
ENDBRANCH  24  30
ENDBRANCH   1  22
BRANCH   3  33
HETATM   33  C   UNL     1      39.291 -13.751  -1.056  1.00  0.00     0.105 A 
HETATM   34  O   UNL     1      38.270 -12.848  -1.167  1.00  0.00    -0.320 OA
HETATM   35  C   UNL     1      37.629 -13.107  -2.336  1.00  0.00     0.142 A 
HETATM   36  C   UNL     1      38.218 -14.166  -2.985  1.00  0.00     0.027 A 
HETATM   37  C   UNL     1      39.291 -14.583  -2.160  1.00  0.00     0.041 A 
ENDBRANCH   3  33
TORSDOF 7
ENDMDL
MODEL 3
REMARK VINA RESULT:      -9.5      2.080      8.867
REMARK  7 active torsions:
REMARK  status: ('A' for Active; 'I' for Inactive)
REMARK    1  A    between atoms: C_2  and  C_3 
REMARK    2  A    between atoms: C_5  and  N_6 
REMARK    3  A    between atoms: C_8  and  C_9 
REMARK    4  A    between atoms: C_15  and  N_16 
REMARK       I    between atoms: N_16  and  C_17 
REMARK    5  A    between atoms: C_17  and  C_18 
REMARK    6  A    between atoms: C_18  and  O_19 
REMARK    7  A    between atoms: O_19  and  C_20 
ROOT
HETATM    1  N   UNL     1      41.501 -14.372   1.912  1.00  0.00    -0.044 N 
HETATM    2  N   UNL     1      41.140 -14.733   0.639  1.00  0.00    -0.148 NA
HETATM    3  C   UNL     1      40.214 -13.832   0.295  1.00  0.00     0.115 C 
HETATM    4  C   UNL     1      40.023 -12.848   1.290  1.00  0.00     0.087 C 
HETATM    5  C   UNL     1      40.943 -13.147   2.266  1.00  0.00     0.152 C 
ENDROOT
BRANCH   5   6
HETATM    6  N   UNL     1      41.176 -12.340   3.371  1.00  0.00    -0.309 N 
HETATM    7  C   UNL     1      42.239 -11.369   3.362  1.00  0.00     0.247 C 
HETATM    8  O   UNL     1      42.761 -11.056   2.302  1.00  0.00    -0.271 OA
HETATM    9  H   UNL     1      40.532 -12.336   4.156  1.00  0.00     0.170 HD
BRANCH   7  10
HETATM   10  C   UNL     1      42.617 -10.813   4.718  1.00  0.00     0.278 C 
BRANCH  10  11
HETATM   11  O   UNL     1      43.972 -11.140   5.017  1.00  0.00    -0.342 OA
BRANCH  11  12
HETATM   12  C   UNL     1      44.363 -10.846   6.299  1.00  0.00     0.070 A 
HETATM   13  C   UNL     1      43.364 -10.333   7.130  1.00  0.00     0.049 A 
HETATM   14  C   UNL     1      43.639  -9.980   8.464  1.00  0.00    -0.023 A 
HETATM   15  C   UNL     1      44.943 -10.167   8.973  1.00  0.00    -0.026 A 
HETATM   16  C   UNL     1      42.650  -9.441   9.304  1.00  0.00     0.012 A 
HETATM   17  C   UNL     1      45.933 -10.702   8.138  1.00  0.00     0.015 A 
HETATM   18  C   UNL     1      45.225  -9.813  10.303  1.00  0.00     0.012 A 
HETATM   19  C   UNL     1      45.646 -11.042   6.812  1.00  0.00     0.037 A 
HETATM   20  C   UNL     1      44.231  -9.278  11.122  1.00  0.00     0.001 A 
HETATM   21  C   UNL     1      42.945  -9.092  10.623  1.00  0.00     0.001 A 
ENDBRANCH  11  12
ENDBRANCH  10  11
ENDBRANCH   7  10
ENDBRANCH   5   6
BRANCH   1  22
HETATM   22  C   UNL     1      42.200 -15.304   2.707  1.00  0.00     0.732 A 
HETATM   23  N   UNL     1      42.655 -15.049   3.895  1.00  0.00    -0.067 NA
HETATM   24  C   UNL     1      43.291 -16.094   4.541  1.00  0.00     0.062 A 
HETATM   25  C   UNL     1      43.409 -17.326   4.018  1.00  0.00     0.103 A 
HETATM   26  C   UNL     1      42.853 -17.594   2.684  1.00  0.00     0.261 A 
HETATM   27  N   UNL     1      42.282 -16.520   2.083  1.00  0.00    -0.152 N 
HETATM   28  O   UNL     1      42.904 -18.705   2.177  1.00  0.00    -0.268 OA
HETATM   29  H   UNL     1      41.859 -16.646   1.168  1.00  0.00     0.187 HD
BRANCH  24  30
HETATM   30  C   UNL     1      43.874 -15.797   5.916  1.00  0.00     0.030 C 
HETATM   31  C   UNL     1      43.517 -16.880   6.936  1.00  0.00     0.016 C 
HETATM   32  C   UNL     1      43.435 -14.416   6.406  1.00  0.00     0.016 C 
ENDBRANCH  24  30
ENDBRANCH   1  22
BRANCH   3  33
HETATM   33  C   UNL     1      39.494 -13.878  -1.011  1.00  0.00     0.105 A 
HETATM   34  O   UNL     1      39.046 -12.775  -1.684  1.00  0.00    -0.320 OA
HETATM   35  C   UNL     1      38.448 -13.213  -2.822  1.00  0.00     0.142 A 
HETATM   36  C   UNL     1      38.501 -14.584  -2.898  1.00  0.00     0.027 A 
HETATM   37  C   UNL     1      39.175 -15.016  -1.730  1.00  0.00     0.041 A 
ENDBRANCH   3  33
TORSDOF 7
ENDMDL
MODEL 4
REMARK VINA RESULT:      -9.1      2.254      8.888
REMARK  7 active torsions:
REMARK  status: ('A' for Active; 'I' for Inactive)
REMARK    1  A    between atoms: C_2  and  C_3 
REMARK    2  A    between atoms: C_5  and  N_6 
REMARK    3  A    between atoms: C_8  and  C_9 
REMARK    4  A    between atoms: C_15  and  N_16 
REMARK       I    between atoms: N_16  and  C_17 
REMARK    5  A    between atoms: C_17  and  C_18 
REMARK    6  A    between atoms: C_18  and  O_19 
REMARK    7  A    between atoms: O_19  and  C_20 
ROOT
HETATM    1  N   UNL     1      41.891 -15.032   2.264  1.00  0.00    -0.044 N 
HETATM    2  N   UNL     1      41.932 -16.388   2.068  1.00  0.00    -0.148 NA
HETATM    3  C   UNL     1      42.838 -16.819   2.952  1.00  0.00     0.115 C 
HETATM    4  C   UNL     1      43.330 -15.778   3.770  1.00  0.00     0.087 C 
HETATM    5  C   UNL     1      42.621 -14.663   3.391  1.00  0.00     0.152 C 
ENDROOT
BRANCH   5   6
HETATM    6  N   UNL     1      42.708 -13.442   4.044  1.00  0.00    -0.309 N 
HETATM    7  C   UNL     1      41.634 -12.978   4.883  1.00  0.00     0.247 C 
HETATM    8  O   UNL     1      40.769 -13.763   5.245  1.00  0.00    -0.271 OA
HETATM    9  H   UNL     1      43.573 -12.911   4.039  1.00  0.00     0.170 HD
BRANCH   7  10
HETATM   10  C   UNL     1      41.687 -11.510   5.246  1.00  0.00     0.278 C 
BRANCH  10  11
HETATM   11  O   UNL     1      43.028 -11.034   5.153  1.00  0.00    -0.342 OA
BRANCH  11  12
HETATM   12  C   UNL     1      43.642 -10.812   6.360  1.00  0.00     0.070 A 
HETATM   13  C   UNL     1      42.866 -10.154   7.318  1.00  0.00     0.049 A 
HETATM   14  C   UNL     1      43.383  -9.856   8.592  1.00  0.00    -0.023 A 
HETATM   15  C   UNL     1      44.703 -10.246   8.910  1.00  0.00    -0.026 A 
HETATM   16  C   UNL     1      42.622  -9.175   9.556  1.00  0.00     0.012 A 
HETATM   17  C   UNL     1      45.465 -10.924   7.950  1.00  0.00     0.015 A 
HETATM   18  C   UNL     1      45.226  -9.948  10.178  1.00  0.00     0.012 A 
HETATM   19  C   UNL     1      44.940 -11.208   6.685  1.00  0.00     0.037 A 
HETATM   20  C   UNL     1      44.456  -9.270  11.123  1.00  0.00     0.001 A 
HETATM   21  C   UNL     1      43.156  -8.883  10.813  1.00  0.00     0.001 A 
ENDBRANCH  11  12
ENDBRANCH  10  11
ENDBRANCH   7  10
ENDBRANCH   5   6
BRANCH   1  22
HETATM   22  C   UNL     1      41.301 -14.222   1.273  1.00  0.00     0.732 A 
HETATM   23  N   UNL     1      41.546 -12.957   1.126  1.00  0.00    -0.067 NA
HETATM   24  C   UNL     1      40.897 -12.328   0.078  1.00  0.00     0.062 A 
HETATM   25  C   UNL     1      40.089 -12.967  -0.784  1.00  0.00     0.103 A 
HETATM   26  C   UNL     1      39.857 -14.409  -0.612  1.00  0.00     0.261 A 
HETATM   27  N   UNL     1      40.484 -14.960   0.457  1.00  0.00    -0.152 N 
HETATM   28  O   UNL     1      39.158 -15.044  -1.388  1.00  0.00    -0.268 OA
HETATM   29  H   UNL     1      40.381 -15.958   0.616  1.00  0.00     0.187 HD
BRANCH  24  30
HETATM   30  C   UNL     1      41.138 -10.832  -0.077  1.00  0.00     0.030 C 
HETATM   31  C   UNL     1      39.967 -10.004   0.458  1.00  0.00     0.016 C 
HETATM   32  C   UNL     1      41.440 -10.477  -1.534  1.00  0.00     0.016 C 
ENDBRANCH  24  30
ENDBRANCH   1  22
BRANCH   3  33
HETATM   33  C   UNL     1      43.249 -18.250   3.049  1.00  0.00     0.105 A 
HETATM   34  O   UNL     1      43.851 -18.806   4.145  1.00  0.00    -0.320 OA
HETATM   35  C   UNL     1      44.069 -20.117   3.862  1.00  0.00     0.142 A 
HETATM   36  C   UNL     1      43.620 -20.419   2.599  1.00  0.00     0.027 A 
HETATM   37  C   UNL     1      43.090 -19.215   2.073  1.00  0.00     0.041 A 
ENDBRANCH   3  33
TORSDOF 7
ENDMDL
MODEL 5
REMARK VINA RESULT:      -9.0      3.218      9.465
REMARK  7 active torsions:
REMARK  status: ('A' for Active; 'I' for Inactive)
REMARK    1  A    between atoms: C_2  and  C_3 
REMARK    2  A    between atoms: C_5  and  N_6 
REMARK    3  A    between atoms: C_8  and  C_9 
REMARK    4  A    between atoms: C_15  and  N_16 
REMARK       I    between atoms: N_16  and  C_17 
REMARK    5  A    between atoms: C_17  and  C_18 
REMARK    6  A    between atoms: C_18  and  O_19 
REMARK    7  A    between atoms: O_19  and  C_20 
ROOT
HETATM    1  N   UNL     1      42.119 -13.897   5.840  1.00  0.00    -0.044 N 
HETATM    2  N   UNL     1      42.000 -15.181   5.374  1.00  0.00    -0.148 NA
HETATM    3  C   UNL     1      43.170 -15.750   5.682  1.00  0.00     0.115 C 
HETATM    4  C   UNL     1      44.017 -14.882   6.406  1.00  0.00     0.087 C 
HETATM    5  C   UNL     1      43.276 -13.741   6.599  1.00  0.00     0.152 C 
ENDROOT
BRANCH   5   6
HETATM    6  N   UNL     1      43.697 -12.679   7.386  1.00  0.00    -0.309 N 
HETATM    7  C   UNL     1      44.557 -11.658   6.845  1.00  0.00     0.247 C 
HETATM    8  O   UNL     1      44.697 -11.568   5.634  1.00  0.00    -0.271 OA
HETATM    9  H   UNL     1      43.314 -12.537   8.315  1.00  0.00     0.170 HD
BRANCH   7  10
HETATM   10  C   UNL     1      45.224 -10.767   7.870  1.00  0.00     0.278 C 
BRANCH  10  11
HETATM   11  O   UNL     1      44.865 -11.185   9.185  1.00  0.00    -0.342 OA
BRANCH  11  12
HETATM   12  C   UNL     1      44.261 -10.218   9.949  1.00  0.00     0.070 A 
HETATM   13  C   UNL     1      44.067  -8.987   9.318  1.00  0.00     0.049 A 
HETATM   14  C   UNL     1      43.469  -7.909   9.997  1.00  0.00    -0.023 A 
HETATM   15  C   UNL     1      43.043  -8.085  11.332  1.00  0.00    -0.026 A 
HETATM   16  C   UNL     1      43.289  -6.659   9.383  1.00  0.00     0.012 A 
HETATM   17  C   UNL     1      43.223  -9.330  11.949  1.00  0.00     0.015 A 
HETATM   18  C   UNL     1      42.449  -7.013  12.016  1.00  0.00     0.012 A 
HETATM   19  C   UNL     1      43.826 -10.391  11.264  1.00  0.00     0.037 A 
HETATM   20  C   UNL     1      42.279  -5.777  11.391  1.00  0.00     0.001 A 
HETATM   21  C   UNL     1      42.698  -5.601  10.076  1.00  0.00     0.001 A 
ENDBRANCH  11  12
ENDBRANCH  10  11
ENDBRANCH   7  10
ENDBRANCH   5   6
BRANCH   1  22
HETATM   22  C   UNL     1      41.209 -12.923   5.380  1.00  0.00     0.732 A 
HETATM   23  N   UNL     1      41.164 -11.704   5.821  1.00  0.00    -0.067 NA
HETATM   24  C   UNL     1      40.225 -10.877   5.231  1.00  0.00     0.062 A 
HETATM   25  C   UNL     1      39.421 -11.265   4.227  1.00  0.00     0.103 A 
HETATM   26  C   UNL     1      39.519 -12.644   3.726  1.00  0.00     0.261 A 
HETATM   27  N   UNL     1      40.425 -13.419   4.372  1.00  0.00    -0.152 N 
HETATM   28  O   UNL     1      38.834 -13.038   2.793  1.00  0.00    -0.268 OA
HETATM   29  H   UNL     1      40.556 -14.375   4.056  1.00  0.00     0.187 HD
BRANCH  24  30
HETATM   30  C   UNL     1      40.127  -9.456   5.772  1.00  0.00     0.030 C 
HETATM   31  C   UNL     1      40.652  -9.351   7.206  1.00  0.00     0.016 C 
HETATM   32  C   UNL     1      38.693  -8.933   5.673  1.00  0.00     0.016 C 
ENDBRANCH  24  30
ENDBRANCH   1  22
BRANCH   3  33
HETATM   33  C   UNL     1      43.506 -17.153   5.303  1.00  0.00     0.105 A 
HETATM   34  O   UNL     1      43.862 -17.547   4.042  1.00  0.00    -0.320 OA
HETATM   35  C   UNL     1      44.092 -18.885   4.089  1.00  0.00     0.142 A 
HETATM   36  C   UNL     1      43.889 -19.366   5.360  1.00  0.00     0.027 A 
HETATM   37  C   UNL     1      43.510 -18.250   6.145  1.00  0.00     0.041 A 
ENDBRANCH   3  33
TORSDOF 7
ENDMDL
MODEL 6
REMARK VINA RESULT:      -9.0      2.559      9.634
REMARK  7 active torsions:
REMARK  status: ('A' for Active; 'I' for Inactive)
REMARK    1  A    between atoms: C_2  and  C_3 
REMARK    2  A    between atoms: C_5  and  N_6 
REMARK    3  A    between atoms: C_8  and  C_9 
REMARK    4  A    between atoms: C_15  and  N_16 
REMARK       I    between atoms: N_16  and  C_17 
REMARK    5  A    between atoms: C_17  and  C_18 
REMARK    6  A    between atoms: C_18  and  O_19 
REMARK    7  A    between atoms: O_19  and  C_20 
ROOT
HETATM    1  N   UNL     1      42.017 -13.959   5.869  1.00  0.00    -0.044 N 
HETATM    2  N   UNL     1      41.916 -15.221   5.344  1.00  0.00    -0.148 NA
HETATM    3  C   UNL     1      43.094 -15.788   5.629  1.00  0.00     0.115 C 
HETATM    4  C   UNL     1      43.927 -14.944   6.395  1.00  0.00     0.087 C 
HETATM    5  C   UNL     1      43.170 -13.822   6.638  1.00  0.00     0.152 C 
ENDROOT
BRANCH   5   6
HETATM    6  N   UNL     1      43.574 -12.792   7.474  1.00  0.00    -0.309 N 
HETATM    7  C   UNL     1      44.397 -11.720   6.976  1.00  0.00     0.247 C 
HETATM    8  O   UNL     1      44.514 -11.561   5.769  1.00  0.00    -0.271 OA
HETATM    9  H   UNL     1      43.204 -12.711   8.415  1.00  0.00     0.170 HD
BRANCH   7  10
HETATM   10  C   UNL     1      45.056 -10.866   8.036  1.00  0.00     0.278 C 
BRANCH  10  11
HETATM   11  O   UNL     1      44.531 -11.194   9.320  1.00  0.00    -0.342 OA
BRANCH  11  12
HETATM   12  C   UNL     1      44.041 -10.126  10.030  1.00  0.00     0.070 A 
HETATM   13  C   UNL     1      43.560 -10.422  11.307  1.00  0.00     0.049 A 
HETATM   14  C   UNL     1      43.021  -9.417  12.131  1.00  0.00    -0.023 A 
HETATM   15  C   UNL     1      42.985  -8.086  11.662  1.00  0.00    -0.026 A 
HETATM   16  C   UNL     1      42.512  -9.705  13.409  1.00  0.00     0.012 A 
HETATM   17  C   UNL     1      43.490  -7.795  10.388  1.00  0.00     0.015 A 
HETATM   18  C   UNL     1      42.445  -7.079  12.479  1.00  0.00     0.012 A 
HETATM   19  C   UNL     1      44.017  -8.806   9.577  1.00  0.00     0.037 A 
HETATM   20  C   UNL     1      41.942  -7.383  13.744  1.00  0.00     0.001 A 
HETATM   21  C   UNL     1      41.976  -8.694  14.209  1.00  0.00     0.001 A 
ENDBRANCH  11  12
ENDBRANCH  10  11
ENDBRANCH   7  10
ENDBRANCH   5   6
BRANCH   1  22
HETATM   22  C   UNL     1      41.095 -12.977   5.452  1.00  0.00     0.732 A 
HETATM   23  N   UNL     1      40.933 -12.608   4.219  1.00  0.00    -0.067 NA
HETATM   24  C   UNL     1      39.960 -11.651   3.991  1.00  0.00     0.062 A 
HETATM   25  C   UNL     1      39.178 -11.145   4.959  1.00  0.00     0.103 A 
HETATM   26  C   UNL     1      39.361 -11.609   6.343  1.00  0.00     0.261 A 
HETATM   27  N   UNL     1      40.360 -12.512   6.509  1.00  0.00    -0.152 N 
HETATM   28  O   UNL     1      38.654 -11.205   7.255  1.00  0.00    -0.268 OA
HETATM   29  H   UNL     1      40.521 -12.888   7.439  1.00  0.00     0.187 HD
BRANCH  24  30
HETATM   30  C   UNL     1      39.792 -11.172   2.555  1.00  0.00     0.030 C 
HETATM   31  C   UNL     1      38.326 -10.909   2.207  1.00  0.00     0.016 C 
HETATM   32  C   UNL     1      40.420 -12.163   1.574  1.00  0.00     0.016 C 
ENDBRANCH  24  30
ENDBRANCH   1  22
BRANCH   3  33
HETATM   33  C   UNL     1      43.449 -17.168   5.187  1.00  0.00     0.105 A 
HETATM   34  O   UNL     1      43.649 -18.222   6.036  1.00  0.00    -0.320 OA
HETATM   35  C   UNL     1      43.951 -19.303   5.271  1.00  0.00     0.142 A 
HETATM   36  C   UNL     1      43.950 -18.967   3.939  1.00  0.00     0.027 A 
HETATM   37  C   UNL     1      43.627 -17.589   3.882  1.00  0.00     0.041 A 
ENDBRANCH   3  33
TORSDOF 7
ENDMDL
MODEL 7
REMARK VINA RESULT:      -8.9      3.813      9.603
REMARK  7 active torsions:
REMARK  status: ('A' for Active; 'I' for Inactive)
REMARK    1  A    between atoms: C_2  and  C_3 
REMARK    2  A    between atoms: C_5  and  N_6 
REMARK    3  A    between atoms: C_8  and  C_9 
REMARK    4  A    between atoms: C_15  and  N_16 
REMARK       I    between atoms: N_16  and  C_17 
REMARK    5  A    between atoms: C_17  and  C_18 
REMARK    6  A    between atoms: C_18  and  O_19 
REMARK    7  A    between atoms: O_19  and  C_20 
ROOT
HETATM    1  N   UNL     1      42.801 -11.965   6.181  1.00  0.00    -0.044 N 
HETATM    2  N   UNL     1      43.476 -12.845   5.376  1.00  0.00    -0.148 NA
HETATM    3  C   UNL     1      42.537 -13.710   4.978  1.00  0.00     0.115 C 
HETATM    4  C   UNL     1      41.251 -13.363   5.448  1.00  0.00     0.087 C 
HETATM    5  C   UNL     1      41.426 -12.175   6.118  1.00  0.00     0.152 C 
ENDROOT
BRANCH   5   6
HETATM    6  N   UNL     1      40.378 -11.421   6.626  1.00  0.00    -0.309 N 
HETATM    7  C   UNL     1      40.039 -10.147   6.047  1.00  0.00     0.247 C 
HETATM    8  O   UNL     1      40.481  -9.848   4.947  1.00  0.00    -0.271 OA
HETATM    9  H   UNL     1      39.759 -11.803   7.334  1.00  0.00     0.170 HD
BRANCH   7  10
HETATM   10  C   UNL     1      39.134  -9.275   6.890  1.00  0.00     0.278 C 
BRANCH  10  11
HETATM   11  O   UNL     1      38.909  -9.890   8.157  1.00  0.00    -0.342 OA
BRANCH  11  12
HETATM   12  C   UNL     1      39.316  -9.146   9.235  1.00  0.00     0.070 A 
HETATM   13  C   UNL     1      39.708  -9.878  10.358  1.00  0.00     0.049 A 
HETATM   14  C   UNL     1      40.135  -9.233  11.534  1.00  0.00    -0.023 A 
HETATM   15  C   UNL     1      40.184  -7.822  11.568  1.00  0.00    -0.026 A 
HETATM   16  C   UNL     1      40.509  -9.957  12.678  1.00  0.00     0.012 A 
HETATM   17  C   UNL     1      39.810  -7.097  10.429  1.00  0.00     0.015 A 
HETATM   18  C   UNL     1      40.606  -7.173  12.739  1.00  0.00     0.012 A 
HETATM   19  C   UNL     1      39.381  -7.752   9.270  1.00  0.00     0.037 A 
HETATM   20  C   UNL     1      40.973  -7.908  13.867  1.00  0.00     0.001 A 
HETATM   21  C   UNL     1      40.924  -9.298  13.837  1.00  0.00     0.001 A 
ENDBRANCH  11  12
ENDBRANCH  10  11
ENDBRANCH   7  10
ENDBRANCH   5   6
BRANCH   1  22
HETATM   22  C   UNL     1      43.542 -11.130   7.043  1.00  0.00     0.732 A 
HETATM   23  N   UNL     1      43.014 -10.371   7.953  1.00  0.00    -0.067 NA
HETATM   24  C   UNL     1      43.899  -9.642   8.727  1.00  0.00     0.062 A 
HETATM   25  C   UNL     1      45.234  -9.725   8.604  1.00  0.00     0.103 A 
HETATM   26  C   UNL     1      45.804 -10.620   7.586  1.00  0.00     0.261 A 
HETATM   27  N   UNL     1      44.887 -11.273   6.829  1.00  0.00    -0.152 N 
HETATM   28  O   UNL     1      47.012 -10.757   7.455  1.00  0.00    -0.268 OA
HETATM   29  H   UNL     1      45.219 -11.924   6.123  1.00  0.00     0.187 HD
BRANCH  24  30
HETATM   30  C   UNL     1      43.291  -8.709   9.767  1.00  0.00     0.030 C 
HETATM   31  C   UNL     1      43.482  -7.237   9.397  1.00  0.00     0.016 C 
HETATM   32  C   UNL     1      43.856  -9.003  11.158  1.00  0.00     0.016 C 
ENDBRANCH  24  30
ENDBRANCH   1  22
BRANCH   3  33
HETATM   33  C   UNL     1      42.843 -14.890   4.119  1.00  0.00     0.105 A 
HETATM   34  O   UNL     1      43.219 -14.810   2.806  1.00  0.00    -0.320 OA
HETATM   35  C   UNL     1      43.411 -16.080   2.364  1.00  0.00     0.142 A 
HETATM   36  C   UNL     1      43.165 -16.983   3.371  1.00  0.00     0.027 A 
HETATM   37  C   UNL     1      42.798 -16.217   4.504  1.00  0.00     0.041 A 
ENDBRANCH   3  33
TORSDOF 7
ENDMDL
MODEL 8
REMARK VINA RESULT:      -8.9      3.982      7.118
REMARK  7 active torsions:
REMARK  status: ('A' for Active; 'I' for Inactive)
REMARK    1  A    between atoms: C_2  and  C_3 
REMARK    2  A    between atoms: C_5  and  N_6 
REMARK    3  A    between atoms: C_8  and  C_9 
REMARK    4  A    between atoms: C_15  and  N_16 
REMARK       I    between atoms: N_16  and  C_17 
REMARK    5  A    between atoms: C_17  and  C_18 
REMARK    6  A    between atoms: C_18  and  O_19 
REMARK    7  A    between atoms: O_19  and  C_20 
ROOT
HETATM    1  N   UNL     1      40.948  -9.456   7.514  1.00  0.00    -0.044 N 
HETATM    2  N   UNL     1      40.233  -8.334   7.845  1.00  0.00    -0.148 NA
HETATM    3  C   UNL     1      39.445  -8.125   6.785  1.00  0.00     0.115 C 
HETATM    4  C   UNL     1      39.581  -9.133   5.805  1.00  0.00     0.087 C 
HETATM    5  C   UNL     1      40.461 -10.039   6.347  1.00  0.00     0.152 C 
ENDROOT
BRANCH   5   6
HETATM    6  N   UNL     1      40.769 -11.255   5.755  1.00  0.00    -0.309 N 
HETATM    7  C   UNL     1      39.930 -12.407   5.961  1.00  0.00     0.247 C 
HETATM    8  O   UNL     1      38.807 -12.260   6.423  1.00  0.00    -0.271 OA
HETATM    9  H   UNL     1      41.519 -11.327   5.075  1.00  0.00     0.170 HD
BRANCH   7  10
HETATM   10  C   UNL     1      40.545 -13.733   5.569  1.00  0.00     0.278 C 
BRANCH  10  11
HETATM   11  O   UNL     1      41.966 -13.624   5.559  1.00  0.00    -0.342 OA
BRANCH  11  12
HETATM   12  C   UNL     1      42.629 -14.803   5.326  1.00  0.00     0.070 A 
HETATM   13  C   UNL     1      42.288 -15.463   4.144  1.00  0.00     0.049 A 
HETATM   14  C   UNL     1      42.887 -16.687   3.795  1.00  0.00    -0.023 A 
HETATM   15  C   UNL     1      43.864 -17.245   4.649  1.00  0.00    -0.026 A 
HETATM   16  C   UNL     1      42.536 -17.372   2.620  1.00  0.00     0.012 A 
HETATM   17  C   UNL     1      44.216 -16.565   5.822  1.00  0.00     0.015 A 
HETATM   18  C   UNL     1      44.463 -18.468   4.308  1.00  0.00     0.012 A 
HETATM   19  C   UNL     1      43.606 -15.352   6.159  1.00  0.00     0.037 A 
HETATM   20  C   UNL     1      44.101 -19.136   3.138  1.00  0.00     0.001 A 
HETATM   21  C   UNL     1      43.138 -18.589   2.295  1.00  0.00     0.001 A 
ENDBRANCH  11  12
ENDBRANCH  10  11
ENDBRANCH   7  10
ENDBRANCH   5   6
BRANCH   1  22
HETATM   22  C   UNL     1      42.112  -9.758   8.250  1.00  0.00     0.732 A 
HETATM   23  N   UNL     1      43.257 -10.048   7.714  1.00  0.00    -0.067 NA
HETATM   24  C   UNL     1      44.298 -10.288   8.593  1.00  0.00     0.062 A 
HETATM   25  C   UNL     1      44.179 -10.191   9.928  1.00  0.00     0.103 A 
HETATM   26  C   UNL     1      42.876  -9.827  10.505  1.00  0.00     0.261 A 
HETATM   27  N   UNL     1      41.885  -9.649   9.596  1.00  0.00    -0.152 N 
HETATM   28  O   UNL     1      42.723  -9.693  11.710  1.00  0.00    -0.268 OA
HETATM   29  H   UNL     1      40.966  -9.373   9.932  1.00  0.00     0.187 HD
BRANCH  24  30
HETATM   30  C   UNL     1      45.637 -10.677   7.979  1.00  0.00     0.030 C 
HETATM   31  C   UNL     1      46.588  -9.483   7.875  1.00  0.00     0.016 C 
HETATM   32  C   UNL     1      45.439 -11.341   6.616  1.00  0.00     0.016 C 
ENDBRANCH  24  30
ENDBRANCH   1  22
BRANCH   3  33
HETATM   33  C   UNL     1      38.524  -6.956   6.687  1.00  0.00     0.105 A 
HETATM   34  O   UNL     1      37.186  -7.049   6.420  1.00  0.00    -0.320 OA
HETATM   35  C   UNL     1      36.687  -5.786   6.413  1.00  0.00     0.142 A 
HETATM   36  C   UNL     1      37.682  -4.873   6.671  1.00  0.00     0.027 A 
HETATM   37  C   UNL     1      38.868  -5.626   6.847  1.00  0.00     0.041 A 
ENDBRANCH   3  33
TORSDOF 7
ENDMDL
MODEL 9
REMARK VINA RESULT:      -8.7      2.369      6.637
REMARK  7 active torsions:
REMARK  status: ('A' for Active; 'I' for Inactive)
REMARK    1  A    between atoms: C_2  and  C_3 
REMARK    2  A    between atoms: C_5  and  N_6 
REMARK    3  A    between atoms: C_8  and  C_9 
REMARK    4  A    between atoms: C_15  and  N_16 
REMARK       I    between atoms: N_16  and  C_17 
REMARK    5  A    between atoms: C_17  and  C_18 
REMARK    6  A    between atoms: C_18  and  O_19 
REMARK    7  A    between atoms: O_19  and  C_20 
ROOT
HETATM    1  N   UNL     1      42.753 -15.347   3.732  1.00  0.00    -0.044 N 
HETATM    2  N   UNL     1      43.318 -16.432   4.350  1.00  0.00    -0.148 NA
HETATM    3  C   UNL     1      43.183 -17.422   3.460  1.00  0.00     0.115 C 
HETATM    4  C   UNL     1      42.611 -16.980   2.247  1.00  0.00     0.087 C 
HETATM    5  C   UNL     1      42.453 -15.623   2.401  1.00  0.00     0.152 C 
ENDROOT
BRANCH   5   6
HETATM    6  N   UNL     1      42.038 -14.780   1.381  1.00  0.00    -0.309 N 
HETATM    7  C   UNL     1      40.637 -14.583   1.114  1.00  0.00     0.247 C 
HETATM    8  O   UNL     1      39.810 -14.930   1.945  1.00  0.00    -0.271 OA
HETATM    9  H   UNL     1      42.705 -14.198   0.883  1.00  0.00     0.170 HD
BRANCH   7  10
HETATM   10  C   UNL     1      40.317 -13.940  -0.218  1.00  0.00     0.278 C 
BRANCH  10  11
HETATM   11  O   UNL     1      40.672 -12.559  -0.188  1.00  0.00    -0.342 OA
BRANCH  11  12
HETATM   12  C   UNL     1      40.060 -11.832   0.802  1.00  0.00     0.070 A 
HETATM   13  C   UNL     1      40.914 -11.075   1.608  1.00  0.00     0.049 A 
HETATM   14  C   UNL     1      40.414 -10.294   2.666  1.00  0.00    -0.023 A 
HETATM   15  C   UNL     1      39.021 -10.264   2.902  1.00  0.00    -0.026 A 
HETATM   16  C   UNL     1      41.263  -9.548   3.498  1.00  0.00     0.012 A 
HETATM   17  C   UNL     1      38.171 -11.009   2.075  1.00  0.00     0.015 A 
HETATM   18  C   UNL     1      38.515  -9.490   3.959  1.00  0.00     0.012 A 
HETATM   19  C   UNL     1      38.684 -11.786   1.031  1.00  0.00     0.037 A 
HETATM   20  C   UNL     1      39.374  -8.755   4.776  1.00  0.00     0.001 A 
HETATM   21  C   UNL     1      40.746  -8.784   4.547  1.00  0.00     0.001 A 
ENDBRANCH  11  12
ENDBRANCH  10  11
ENDBRANCH   7  10
ENDBRANCH   5   6
BRANCH   1  22
HETATM   22  C   UNL     1      42.413 -14.224   4.514  1.00  0.00     0.732 A 
HETATM   23  N   UNL     1      43.258 -13.310   4.881  1.00  0.00    -0.067 NA
HETATM   24  C   UNL     1      42.740 -12.263   5.622  1.00  0.00     0.062 A 
HETATM   25  C   UNL     1      41.436 -12.142   5.923  1.00  0.00     0.103 A 
HETATM   26  C   UNL     1      40.497 -13.177   5.464  1.00  0.00     0.261 A 
HETATM   27  N   UNL     1      41.071 -14.200   4.783  1.00  0.00    -0.152 N 
HETATM   28  O   UNL     1      39.297 -13.098   5.683  1.00  0.00    -0.268 OA
HETATM   29  H   UNL     1      40.470 -14.934   4.419  1.00  0.00     0.187 HD
BRANCH  24  30
HETATM   30  C   UNL     1      43.728 -11.208   6.101  1.00  0.00     0.030 C 
HETATM   31  C   UNL     1      44.991 -11.834   6.696  1.00  0.00     0.016 C 
HETATM   32  C   UNL     1      43.066 -10.255   7.097  1.00  0.00     0.016 C 
ENDBRANCH  24  30
ENDBRANCH   1  22
BRANCH   3  33
HETATM   33  C   UNL     1      43.616 -18.821   3.742  1.00  0.00     0.105 A 
HETATM   34  O   UNL     1      44.064 -19.259   4.958  1.00  0.00    -0.320 OA
HETATM   35  C   UNL     1      44.360 -20.578   4.827  1.00  0.00     0.142 A 
HETATM   36  C   UNL     1      44.111 -21.003   3.544  1.00  0.00     0.027 A 
HETATM   37  C   UNL     1      43.631 -19.870   2.842  1.00  0.00     0.041 A 
ENDBRANCH   3  33
TORSDOF 7
ENDMDL
MODEL 10
REMARK VINA RESULT:      -8.7     16.346     18.712
REMARK  7 active torsions:
REMARK  status: ('A' for Active; 'I' for Inactive)
REMARK    1  A    between atoms: C_2  and  C_3 
REMARK    2  A    between atoms: C_5  and  N_6 
REMARK    3  A    between atoms: C_8  and  C_9 
REMARK    4  A    between atoms: C_15  and  N_16 
REMARK       I    between atoms: N_16  and  C_17 
REMARK    5  A    between atoms: C_17  and  C_18 
REMARK    6  A    between atoms: C_18  and  O_19 
REMARK    7  A    between atoms: O_19  and  C_20 
ROOT
HETATM    1  N   UNL     1      50.338 -30.867   2.432  1.00  0.00    -0.044 N 
HETATM    2  N   UNL     1      51.103 -31.659   3.249  1.00  0.00    -0.148 NA
HETATM    3  C   UNL     1      51.048 -31.049   4.439  1.00  0.00     0.115 C 
HETATM    4  C   UNL     1      50.200 -29.920   4.426  1.00  0.00     0.087 C 
HETATM    5  C   UNL     1      49.663 -29.892   3.161  1.00  0.00     0.152 C 
ENDROOT
BRANCH   5   6
HETATM    6  N   UNL     1      48.670 -29.005   2.770  1.00  0.00    -0.309 N 
HETATM    7  C   UNL     1      47.294 -29.423   2.706  1.00  0.00     0.247 C 
HETATM    8  O   UNL     1      46.953 -30.462   3.252  1.00  0.00    -0.271 OA
HETATM    9  H   UNL     1      48.876 -28.020   2.637  1.00  0.00     0.170 HD
BRANCH   7  10
HETATM   10  C   UNL     1      46.373 -28.497   1.941  1.00  0.00     0.278 C 
BRANCH  10  11
HETATM   11  O   UNL     1      45.098 -29.112   1.771  1.00  0.00    -0.342 OA
BRANCH  11  12
HETATM   12  C   UNL     1      44.842 -29.558   0.499  1.00  0.00     0.070 A 
HETATM   13  C   UNL     1      45.101 -28.642  -0.523  1.00  0.00     0.049 A 
HETATM   14  C   UNL     1      44.869 -28.972  -1.871  1.00  0.00    -0.023 A 
HETATM   15  C   UNL     1      44.383 -30.259  -2.192  1.00  0.00    -0.026 A 
HETATM   16  C   UNL     1      45.103 -28.053  -2.907  1.00  0.00     0.012 A 
HETATM   17  C   UNL     1      44.147 -31.178  -1.162  1.00  0.00     0.015 A 
HETATM   18  C   UNL     1      44.146 -30.594  -3.536  1.00  0.00     0.012 A 
HETATM   19  C   UNL     1      44.376 -30.833   0.174  1.00  0.00     0.037 A 
HETATM   20  C   UNL     1      44.383 -29.668  -4.552  1.00  0.00     0.001 A 
HETATM   21  C   UNL     1      44.861 -28.399  -4.238  1.00  0.00     0.001 A 
ENDBRANCH  11  12
ENDBRANCH  10  11
ENDBRANCH   7  10
ENDBRANCH   5   6
BRANCH   1  22
HETATM   22  C   UNL     1      50.459 -31.021   1.035  1.00  0.00     0.732 A 
HETATM   23  N   UNL     1      49.655 -30.481   0.172  1.00  0.00    -0.067 NA
HETATM   24  C   UNL     1      49.944 -30.715  -1.160  1.00  0.00     0.062 A 
HETATM   25  C   UNL     1      51.012 -31.418  -1.574  1.00  0.00     0.103 A 
HETATM   26  C   UNL     1      51.925 -31.989  -0.572  1.00  0.00     0.261 A 
HETATM   27  N   UNL     1      51.564 -31.764   0.716  1.00  0.00    -0.152 N 
HETATM   28  O   UNL     1      52.928 -32.608  -0.896  1.00  0.00    -0.268 OA
HETATM   29  H   UNL     1      52.167 -32.114   1.455  1.00  0.00     0.187 HD
BRANCH  24  30
HETATM   30  C   UNL     1      48.982 -30.128  -2.184  1.00  0.00     0.030 C 
HETATM   31  C   UNL     1      48.415 -28.780  -1.731  1.00  0.00     0.016 C 
HETATM   32  C   UNL     1      47.859 -31.116  -2.505  1.00  0.00     0.016 C 
ENDBRANCH  24  30
ENDBRANCH   1  22
BRANCH   3  33
HETATM   33  C   UNL     1      51.796 -31.543   5.630  1.00  0.00     0.105 A 
HETATM   34  O   UNL     1      52.593 -30.760   6.419  1.00  0.00    -0.320 OA
HETATM   35  C   UNL     1      53.099 -31.555   7.397  1.00  0.00     0.142 A 
HETATM   36  C   UNL     1      52.643 -32.844   7.254  1.00  0.00     0.027 A 
HETATM   37  C   UNL     1      51.803 -32.838   6.114  1.00  0.00     0.041 A 
ENDBRANCH   3  33
TORSDOF 7
ENDMDL
