MODEL 1
REMARK VINA RESULT:      -9.7      0.000      0.000
REMARK  6 active torsions:
REMARK  status: ('A' for Active; 'I' for Inactive)
REMARK    1  A    between atoms: C_4  and  O_5 
REMARK    2  A    between atoms: O_5  and  C_6 
REMARK    3  A    between atoms: C_6  and  C_7 
REMARK       I    between atoms: C_7  and  N_8 
REMARK    4  A    between atoms: N_8  and  C_9 
REMARK    5  A    between atoms: C_16  and  C_17 
REMARK       I    between atoms: C_17  and  N_18 
REMARK    6  A    between atoms: C_23  and  C_24 
ROOT
HETATM    1  C   UNL     1      41.906 -15.425   1.769  1.00  0.00     0.246 C 
HETATM    2  N   UNL     1      41.945 -14.295   0.969  1.00  0.00    -0.325 N 
HETATM    3  O   UNL     1      40.941 -16.161   1.947  1.00  0.00    -0.271 OA
HETATM    4  H   UNL     1      42.867 -13.891   0.832  1.00  0.00     0.169 HD
ENDROOT
BRANCH   2   5
HETATM    5  C   UNL     1      40.859 -13.667   0.321  1.00  0.00     0.035 A 
HETATM    6  C   UNL     1      40.192 -14.221  -0.781  1.00  0.00     0.046 A 
HETATM    7  C   UNL     1      39.080 -13.554  -1.339  1.00  0.00     0.030 A 
HETATM    8  C   UNL     1      38.671 -12.350  -0.778  1.00  0.00     0.063 A 
HETATM    9  C   UNL     1      38.167 -13.795  -2.410  1.00  0.00     0.156 A 
HETATM   10  N   UNL     1      37.590 -11.957  -1.515  1.00  0.00    -0.277 N 
HETATM   11  C   UNL     1      39.313 -11.765   0.316  1.00  0.00     0.034 A 
HETATM   12  H   UNL     1      37.031 -11.121  -1.389  1.00  0.00     0.189 HD
HETATM   13  N   UNL     1      37.255 -12.799  -2.508  1.00  0.00    -0.168 NA
HETATM   14  C   UNL     1      40.412 -12.450   0.853  1.00  0.00     0.032 A 
BRANCH   9  15
HETATM   15  C   UNL     1      38.145 -14.944  -3.326  1.00  0.00     0.270 C 
HETATM   16  N   UNL     1      38.215 -16.159  -2.699  1.00  0.00    -0.365 N 
HETATM   17  H   UNL     1      38.277 -16.182  -1.689  1.00  0.00     0.159 HD
HETATM   18  H   UNL     1      38.208 -17.004  -3.249  1.00  0.00     0.159 HD
HETATM   19  O   UNL     1      38.075 -14.866  -4.547  1.00  0.00    -0.266 OA
ENDBRANCH   9  15
ENDBRANCH   2   5
BRANCH   1  20
HETATM   20  C   UNL     1      43.197 -15.641   2.557  1.00  0.00     0.278 C 
BRANCH  20  21
HETATM   21  O   UNL     1      42.956 -16.183   3.857  1.00  0.00    -0.342 OA
BRANCH  21  22
HETATM   22  C   UNL     1      43.322 -17.507   3.945  1.00  0.00     0.076 A 
HETATM   23  C   UNL     1      43.333 -18.329   2.807  1.00  0.00     0.044 A 
HETATM   24  C   UNL     1      43.722 -19.670   2.888  1.00  0.00    -0.059 A 
HETATM   25  C   UNL     1      43.762 -20.538   1.666  1.00  0.00     0.048 C 
HETATM   26  C   UNL     1      44.065 -20.197   4.133  1.00  0.00     0.007 A 
HETATM   27  C   UNL     1      44.020 -19.395   5.275  1.00  0.00     0.011 A 
HETATM   28  C   UNL     1      43.643 -18.039   5.206  1.00  0.00    -0.021 A 
BRANCH  28  29
HETATM   29  C   UNL     1      43.642 -17.237   6.499  1.00  0.00     0.013 C 
HETATM   30  C   UNL     1      44.783 -16.219   6.546  1.00  0.00     0.015 C 
HETATM   31  C   UNL     1      42.291 -16.584   6.795  1.00  0.00     0.015 C 
ENDBRANCH  28  29
ENDBRANCH  21  22
ENDBRANCH  20  21
ENDBRANCH   1  20
TORSDOF 6
ENDMDL
MODEL 2
REMARK VINA RESULT:      -9.4      1.902      2.872
REMARK  6 active torsions:
REMARK  status: ('A' for Active; 'I' for Inactive)
REMARK    1  A    between atoms: C_4  and  O_5 
REMARK    2  A    between atoms: O_5  and  C_6 
REMARK    3  A    between atoms: C_6  and  C_7 
REMARK       I    between atoms: C_7  and  N_8 
REMARK    4  A    between atoms: N_8  and  C_9 
REMARK    5  A    between atoms: C_16  and  C_17 
REMARK       I    between atoms: C_17  and  N_18 
REMARK    6  A    between atoms: C_23  and  C_24 
ROOT
HETATM    1  C   UNL     1      40.852 -15.244   1.053  1.00  0.00     0.246 C 
HETATM    2  N   UNL     1      40.984 -14.455  -0.078  1.00  0.00    -0.325 N 
HETATM    3  O   UNL     1      39.803 -15.665   1.531  1.00  0.00    -0.271 OA
HETATM    4  H   UNL     1      41.936 -14.320  -0.405  1.00  0.00     0.169 HD
ENDROOT
BRANCH   2   5
HETATM    5  C   UNL     1      39.951 -13.844  -0.822  1.00  0.00     0.035 A 
HETATM    6  C   UNL     1      39.214 -12.743  -0.360  1.00  0.00     0.046 A 
HETATM    7  C   UNL     1      38.233 -12.156  -1.187  1.00  0.00     0.030 A 
HETATM    8  C   UNL     1      38.015 -12.692  -2.450  1.00  0.00     0.063 A 
HETATM    9  C   UNL     1      37.322 -11.061  -1.086  1.00  0.00     0.156 A 
HETATM   10  N   UNL     1      37.029 -11.924  -3.004  1.00  0.00    -0.277 N 
HETATM   11  C   UNL     1      38.724 -13.791  -2.943  1.00  0.00     0.034 A 
HETATM   12  H   UNL     1      36.616 -12.024  -3.924  1.00  0.00     0.189 HD
HETATM   13  N   UNL     1      36.585 -10.932  -2.213  1.00  0.00    -0.168 NA
HETATM   14  C   UNL     1      39.696 -14.351  -2.102  1.00  0.00     0.032 A 
BRANCH   9  15
HETATM   15  C   UNL     1      37.149 -10.144   0.050  1.00  0.00     0.270 C 
HETATM   16  N   UNL     1      36.561 -10.717   1.146  1.00  0.00    -0.365 N 
HETATM   17  H   UNL     1      36.296 -11.694   1.100  1.00  0.00     0.159 HD
HETATM   18  H   UNL     1      36.401 -10.162   1.972  1.00  0.00     0.159 HD
HETATM   19  O   UNL     1      37.482  -8.964   0.056  1.00  0.00    -0.266 OA
ENDBRANCH   9  15
ENDBRANCH   2   5
BRANCH   1  20
HETATM   20  C   UNL     1      42.177 -15.473   1.777  1.00  0.00     0.278 C 
BRANCH  20  21
HETATM   21  O   UNL     1      41.992 -15.948   3.112  1.00  0.00    -0.342 OA
BRANCH  21  22
HETATM   22  C   UNL     1      42.701 -17.102   3.357  1.00  0.00     0.076 A 
HETATM   23  C   UNL     1      42.756 -18.129   2.402  1.00  0.00     0.044 A 
HETATM   24  C   UNL     1      43.490 -19.296   2.639  1.00  0.00    -0.059 A 
HETATM   25  C   UNL     1      43.573 -20.380   1.605  1.00  0.00     0.048 C 
HETATM   26  C   UNL     1      44.140 -19.446   3.863  1.00  0.00     0.007 A 
HETATM   27  C   UNL     1      44.057 -18.444   4.833  1.00  0.00     0.011 A 
HETATM   28  C   UNL     1      43.333 -17.257   4.603  1.00  0.00    -0.021 A 
BRANCH  28  29
HETATM   29  C   UNL     1      43.316 -16.212   5.709  1.00  0.00     0.013 C 
HETATM   30  C   UNL     1      42.078 -16.336   6.599  1.00  0.00     0.015 C 
HETATM   31  C   UNL     1      44.604 -16.196   6.533  1.00  0.00     0.015 C 
ENDBRANCH  28  29
ENDBRANCH  21  22
ENDBRANCH  20  21
ENDBRANCH   1  20
TORSDOF 6
ENDMDL
MODEL 3
REMARK VINA RESULT:      -9.4      5.633      8.794
REMARK  6 active torsions:
REMARK  status: ('A' for Active; 'I' for Inactive)
REMARK    1  A    between atoms: C_4  and  O_5 
REMARK    2  A    between atoms: O_5  and  C_6 
REMARK    3  A    between atoms: C_6  and  C_7 
REMARK       I    between atoms: C_7  and  N_8 
REMARK    4  A    between atoms: N_8  and  C_9 
REMARK    5  A    between atoms: C_16  and  C_17 
REMARK       I    between atoms: C_17  and  N_18 
REMARK    6  A    between atoms: C_23  and  C_24 
ROOT
HETATM    1  C   UNL     1      41.517 -12.960   5.746  1.00  0.00     0.246 C 
HETATM    2  N   UNL     1      42.447 -12.934   6.773  1.00  0.00    -0.325 N 
HETATM    3  O   UNL     1      41.522 -12.260   4.738  1.00  0.00    -0.271 OA
HETATM    4  H   UNL     1      42.359 -13.680   7.456  1.00  0.00     0.169 HD
ENDROOT
BRANCH   2   5
HETATM    5  C   UNL     1      43.495 -12.006   6.956  1.00  0.00     0.035 A 
HETATM    6  C   UNL     1      43.325 -10.763   7.584  1.00  0.00     0.046 A 
HETATM    7  C   UNL     1      44.437  -9.914   7.776  1.00  0.00     0.030 A 
HETATM    8  C   UNL     1      45.683 -10.333   7.329  1.00  0.00     0.063 A 
HETATM    9  C   UNL     1      44.663  -8.632   8.361  1.00  0.00     0.156 A 
HETATM   10  N   UNL     1      46.542  -9.321   7.655  1.00  0.00    -0.277 N 
HETATM   11  C   UNL     1      45.891 -11.561   6.695  1.00  0.00     0.034 A 
HETATM   12  H   UNL     1      47.541  -9.283   7.482  1.00  0.00     0.189 HD
HETATM   13  N   UNL     1      45.966  -8.278   8.277  1.00  0.00    -0.168 NA
HETATM   14  C   UNL     1      44.771 -12.386   6.521  1.00  0.00     0.032 A 
BRANCH   9  15
HETATM   15  C   UNL     1      43.672  -7.751   8.997  1.00  0.00     0.270 C 
HETATM   16  N   UNL     1      43.264  -8.171  10.234  1.00  0.00    -0.365 N 
HETATM   17  H   UNL     1      43.654  -9.026  10.611  1.00  0.00     0.159 HD
HETATM   18  H   UNL     1      42.584  -7.629  10.745  1.00  0.00     0.159 HD
HETATM   19  O   UNL     1      43.223  -6.725   8.498  1.00  0.00    -0.266 OA
ENDBRANCH   9  15
ENDBRANCH   2   5
BRANCH   1  20
HETATM   20  C   UNL     1      40.344 -13.897   6.028  1.00  0.00     0.278 C 
BRANCH  20  21
HETATM   21  O   UNL     1      40.755 -15.259   6.156  1.00  0.00    -0.342 OA
BRANCH  21  22
HETATM   22  C   UNL     1      41.166 -15.795   4.957  1.00  0.00     0.076 A 
HETATM   23  C   UNL     1      40.437 -15.567   3.780  1.00  0.00     0.044 A 
HETATM   24  C   UNL     1      40.861 -16.094   2.555  1.00  0.00    -0.059 A 
HETATM   25  C   UNL     1      40.097 -15.824   1.292  1.00  0.00     0.048 C 
HETATM   26  C   UNL     1      42.006 -16.889   2.524  1.00  0.00     0.007 A 
HETATM   27  C   UNL     1      42.714 -17.151   3.698  1.00  0.00     0.011 A 
HETATM   28  C   UNL     1      42.307 -16.616   4.937  1.00  0.00    -0.021 A 
BRANCH  28  29
HETATM   29  C   UNL     1      43.153 -16.937   6.160  1.00  0.00     0.013 C 
HETATM   30  C   UNL     1      43.426 -18.437   6.294  1.00  0.00     0.015 C 
HETATM   31  C   UNL     1      44.444 -16.121   6.223  1.00  0.00     0.015 C 
ENDBRANCH  28  29
ENDBRANCH  21  22
ENDBRANCH  20  21
ENDBRANCH   1  20
TORSDOF 6
ENDMDL
MODEL 4
REMARK VINA RESULT:      -9.3      2.416      3.322
REMARK  6 active torsions:
REMARK  status: ('A' for Active; 'I' for Inactive)
REMARK    1  A    between atoms: C_4  and  O_5 
REMARK    2  A    between atoms: O_5  and  C_6 
REMARK    3  A    between atoms: C_6  and  C_7 
REMARK       I    between atoms: C_7  and  N_8 
REMARK    4  A    between atoms: N_8  and  C_9 
REMARK    5  A    between atoms: C_16  and  C_17 
REMARK       I    between atoms: C_17  and  N_18 
REMARK    6  A    between atoms: C_23  and  C_24 
ROOT
HETATM    1  C   UNL     1      40.146 -14.955   2.136  1.00  0.00     0.246 C 
HETATM    2  N   UNL     1      40.470 -15.050   0.792  1.00  0.00    -0.325 N 
HETATM    3  O   UNL     1      39.492 -14.063   2.668  1.00  0.00    -0.271 OA
HETATM    4  H   UNL     1      40.897 -15.927   0.510  1.00  0.00     0.169 HD
ENDROOT
BRANCH   2   5
HETATM    5  C   UNL     1      40.257 -14.079  -0.210  1.00  0.00     0.035 A 
HETATM    6  C   UNL     1      40.787 -12.782  -0.154  1.00  0.00     0.046 A 
HETATM    7  C   UNL     1      40.571 -11.887  -1.225  1.00  0.00     0.030 A 
HETATM    8  C   UNL     1      39.828 -12.317  -2.317  1.00  0.00     0.063 A 
HETATM    9  C   UNL     1      40.944 -10.544  -1.534  1.00  0.00     0.156 A 
HETATM   10  N   UNL     1      39.797 -11.253  -3.175  1.00  0.00    -0.277 N 
HETATM   11  C   UNL     1      39.280 -13.599  -2.407  1.00  0.00     0.034 A 
HETATM   12  H   UNL     1      39.343 -11.206  -4.080  1.00  0.00     0.189 HD
HETATM   13  N   UNL     1      40.457 -10.165  -2.739  1.00  0.00    -0.168 NA
HETATM   14  C   UNL     1      39.513 -14.469  -1.332  1.00  0.00     0.032 A 
BRANCH   9  15
HETATM   15  C   UNL     1      41.749  -9.627  -0.714  1.00  0.00     0.270 C 
HETATM   16  N   UNL     1      41.146  -9.247   0.454  1.00  0.00    -0.365 N 
HETATM   17  H   UNL     1      40.223  -9.606   0.665  1.00  0.00     0.159 HD
HETATM   18  H   UNL     1      41.625  -8.617   1.080  1.00  0.00     0.159 HD
HETATM   19  O   UNL     1      42.863  -9.213  -1.014  1.00  0.00    -0.266 OA
ENDBRANCH   9  15
ENDBRANCH   2   5
BRANCH   1  20
HETATM   20  C   UNL     1      40.799 -16.044   2.985  1.00  0.00     0.278 C 
BRANCH  20  21
HETATM   21  O   UNL     1      42.219 -15.906   3.047  1.00  0.00    -0.342 OA
BRANCH  21  22
HETATM   22  C   UNL     1      42.846 -17.097   3.337  1.00  0.00     0.076 A 
HETATM   23  C   UNL     1      42.886 -18.137   2.395  1.00  0.00     0.044 A 
HETATM   24  C   UNL     1      43.538 -19.342   2.677  1.00  0.00    -0.059 A 
HETATM   25  C   UNL     1      43.606 -20.441   1.658  1.00  0.00     0.048 C 
HETATM   26  C   UNL     1      44.120 -19.515   3.933  1.00  0.00     0.007 A 
HETATM   27  C   UNL     1      44.051 -18.498   4.888  1.00  0.00     0.011 A 
HETATM   28  C   UNL     1      43.409 -17.274   4.613  1.00  0.00    -0.021 A 
BRANCH  28  29
HETATM   29  C   UNL     1      43.401 -16.216   5.707  1.00  0.00     0.013 C 
HETATM   30  C   UNL     1      42.166 -16.323   6.603  1.00  0.00     0.015 C 
HETATM   31  C   UNL     1      44.692 -16.198   6.527  1.00  0.00     0.015 C 
ENDBRANCH  28  29
ENDBRANCH  21  22
ENDBRANCH  20  21
ENDBRANCH   1  20
TORSDOF 6
ENDMDL
MODEL 5
REMARK VINA RESULT:      -9.3      5.323      9.059
REMARK  6 active torsions:
REMARK  status: ('A' for Active; 'I' for Inactive)
REMARK    1  A    between atoms: C_4  and  O_5 
REMARK    2  A    between atoms: O_5  and  C_6 
REMARK    3  A    between atoms: C_6  and  C_7 
REMARK       I    between atoms: C_7  and  N_8 
REMARK    4  A    between atoms: N_8  and  C_9 
REMARK    5  A    between atoms: C_16  and  C_17 
REMARK       I    between atoms: C_17  and  N_18 
REMARK    6  A    between atoms: C_23  and  C_24 
ROOT
HETATM    1  C   UNL     1      42.974 -14.741   6.639  1.00  0.00     0.246 C 
HETATM    2  N   UNL     1      43.276 -13.479   6.153  1.00  0.00    -0.325 N 
HETATM    3  O   UNL     1      43.123 -15.134   7.792  1.00  0.00    -0.271 OA
HETATM    4  H   UNL     1      42.956 -13.290   5.208  1.00  0.00     0.169 HD
ENDROOT
BRANCH   2   5
HETATM    5  C   UNL     1      43.954 -12.441   6.829  1.00  0.00     0.035 A 
HETATM    6  C   UNL     1      43.584 -11.977   8.100  1.00  0.00     0.046 A 
HETATM    7  C   UNL     1      44.347 -10.971   8.731  1.00  0.00     0.030 A 
HETATM    8  C   UNL     1      45.455 -10.457   8.069  1.00  0.00     0.063 A 
HETATM    9  C   UNL     1      44.303 -10.274   9.977  1.00  0.00     0.156 A 
HETATM   10  N   UNL     1      45.982  -9.523   8.917  1.00  0.00    -0.277 N 
HETATM   11  C   UNL     1      45.852 -10.890   6.801  1.00  0.00     0.034 A 
HETATM   12  H   UNL     1      46.802  -8.947   8.763  1.00  0.00     0.189 HD
HETATM   13  N   UNL     1      45.316  -9.382  10.076  1.00  0.00    -0.168 NA
HETATM   14  C   UNL     1      45.079 -11.893   6.199  1.00  0.00     0.032 A 
BRANCH   9  15
HETATM   15  C   UNL     1      43.326 -10.445  11.063  1.00  0.00     0.270 C 
HETATM   16  N   UNL     1      43.659 -11.421  11.963  1.00  0.00    -0.365 N 
HETATM   17  H   UNL     1      44.518 -11.940  11.824  1.00  0.00     0.159 HD
HETATM   18  H   UNL     1      43.046 -11.610  12.742  1.00  0.00     0.159 HD
HETATM   19  O   UNL     1      42.294  -9.796  11.187  1.00  0.00    -0.266 OA
ENDBRANCH   9  15
ENDBRANCH   2   5
BRANCH   1  20
HETATM   20  C   UNL     1      42.524 -15.708   5.546  1.00  0.00     0.278 C 
BRANCH  20  21
HETATM   21  O   UNL     1      43.510 -15.873   4.526  1.00  0.00    -0.342 OA
BRANCH  21  22
HETATM   22  C   UNL     1      43.545 -17.159   4.037  1.00  0.00     0.076 A 
HETATM   23  C   UNL     1      44.012 -18.218   4.832  1.00  0.00     0.044 A 
HETATM   24  C   UNL     1      44.032 -19.530   4.348  1.00  0.00    -0.059 A 
HETATM   25  C   UNL     1      44.502 -20.665   5.209  1.00  0.00     0.048 C 
HETATM   26  C   UNL     1      43.617 -19.771   3.038  1.00  0.00     0.007 A 
HETATM   27  C   UNL     1      43.187 -18.716   2.230  1.00  0.00     0.011 A 
HETATM   28  C   UNL     1      43.149 -17.392   2.709  1.00  0.00    -0.021 A 
BRANCH  28  29
HETATM   29  C   UNL     1      42.647 -16.310   1.763  1.00  0.00     0.013 C 
HETATM   30  C   UNL     1      41.189 -15.937   2.036  1.00  0.00     0.015 C 
HETATM   31  C   UNL     1      43.549 -15.076   1.738  1.00  0.00     0.015 C 
ENDBRANCH  28  29
ENDBRANCH  21  22
ENDBRANCH  20  21
ENDBRANCH   1  20
TORSDOF 6
ENDMDL
MODEL 6
REMARK VINA RESULT:      -9.2      4.538      6.649
REMARK  6 active torsions:
REMARK  status: ('A' for Active; 'I' for Inactive)
REMARK    1  A    between atoms: C_4  and  O_5 
REMARK    2  A    between atoms: O_5  and  C_6 
REMARK    3  A    between atoms: C_6  and  C_7 
REMARK       I    between atoms: C_7  and  N_8 
REMARK    4  A    between atoms: N_8  and  C_9 
REMARK    5  A    between atoms: C_16  and  C_17 
REMARK       I    between atoms: C_17  and  N_18 
REMARK    6  A    between atoms: C_23  and  C_24 
ROOT
HETATM    1  C   UNL     1      40.834 -15.496   6.346  1.00  0.00     0.246 C 
HETATM    2  N   UNL     1      41.139 -14.434   5.510  1.00  0.00    -0.325 N 
HETATM    3  O   UNL     1      39.804 -15.640   6.998  1.00  0.00    -0.271 OA
HETATM    4  H   UNL     1      41.974 -14.553   4.944  1.00  0.00     0.169 HD
ENDROOT
BRANCH   2   5
HETATM    5  C   UNL     1      40.414 -13.233   5.352  1.00  0.00     0.035 A 
HETATM    6  C   UNL     1      40.234 -12.299   6.382  1.00  0.00     0.046 A 
HETATM    7  C   UNL     1      39.540 -11.096   6.128  1.00  0.00     0.030 A 
HETATM    8  C   UNL     1      39.044 -10.867   4.850  1.00  0.00     0.063 A 
HETATM    9  C   UNL     1      39.179  -9.937   6.880  1.00  0.00     0.156 A 
HETATM   10  N   UNL     1      38.440  -9.643   4.912  1.00  0.00    -0.277 N 
HETATM   11  C   UNL     1      39.199 -11.775   3.800  1.00  0.00     0.034 A 
HETATM   12  H   UNL     1      37.969  -9.151   4.160  1.00  0.00     0.189 HD
HETATM   13  N   UNL     1      38.498  -9.051   6.117  1.00  0.00    -0.168 NA
HETATM   14  C   UNL     1      39.896 -12.960   4.079  1.00  0.00     0.032 A 
BRANCH   9  15
HETATM   15  C   UNL     1      39.472  -9.661   8.295  1.00  0.00     0.270 C 
HETATM   16  N   UNL     1      40.805  -9.704   8.607  1.00  0.00    -0.365 N 
HETATM   17  H   UNL     1      41.470  -9.916   7.873  1.00  0.00     0.159 HD
HETATM   18  H   UNL     1      41.100  -9.528   9.555  1.00  0.00     0.159 HD
HETATM   19  O   UNL     1      38.630  -9.415   9.150  1.00  0.00    -0.266 OA
ENDBRANCH   9  15
ENDBRANCH   2   5
BRANCH   1  20
HETATM   20  C   UNL     1      41.990 -16.483   6.501  1.00  0.00     0.278 C 
BRANCH  20  21
HETATM   21  O   UNL     1      43.036 -16.248   5.559  1.00  0.00    -0.342 OA
BRANCH  21  22
HETATM   22  C   UNL     1      43.296 -17.353   4.781  1.00  0.00     0.076 A 
HETATM   23  C   UNL     1      43.794 -18.535   5.352  1.00  0.00     0.044 A 
HETATM   24  C   UNL     1      44.041 -19.667   4.570  1.00  0.00    -0.059 A 
HETATM   25  C   UNL     1      44.544 -20.938   5.187  1.00  0.00     0.048 C 
HETATM   26  C   UNL     1      43.823 -19.596   3.194  1.00  0.00     0.007 A 
HETATM   27  C   UNL     1      43.364 -18.411   2.614  1.00  0.00     0.011 A 
HETATM   28  C   UNL     1      43.097 -17.267   3.392  1.00  0.00    -0.021 A 
BRANCH  28  29
HETATM   29  C   UNL     1      42.580 -16.028   2.676  1.00  0.00     0.013 C 
HETATM   30  C   UNL     1      43.438 -15.662   1.464  1.00  0.00     0.015 C 
HETATM   31  C   UNL     1      41.099 -16.128   2.308  1.00  0.00     0.015 C 
ENDBRANCH  28  29
ENDBRANCH  21  22
ENDBRANCH  20  21
ENDBRANCH   1  20
TORSDOF 6
ENDMDL
MODEL 7
REMARK VINA RESULT:      -9.1      5.386      8.072
REMARK  6 active torsions:
REMARK  status: ('A' for Active; 'I' for Inactive)
REMARK    1  A    between atoms: C_4  and  O_5 
REMARK    2  A    between atoms: O_5  and  C_6 
REMARK    3  A    between atoms: C_6  and  C_7 
REMARK       I    between atoms: C_7  and  N_8 
REMARK    4  A    between atoms: N_8  and  C_9 
REMARK    5  A    between atoms: C_16  and  C_17 
REMARK       I    between atoms: C_17  and  N_18 
REMARK    6  A    between atoms: C_23  and  C_24 
ROOT
HETATM    1  C   UNL     1      43.056 -15.510   6.829  1.00  0.00     0.246 C 
HETATM    2  N   UNL     1      43.573 -14.367   6.239  1.00  0.00    -0.325 N 
HETATM    3  O   UNL     1      42.102 -15.567   7.597  1.00  0.00    -0.271 OA
HETATM    4  H   UNL     1      44.274 -14.528   5.523  1.00  0.00     0.169 HD
ENDROOT
BRANCH   2   5
HETATM    5  C   UNL     1      43.219 -13.028   6.512  1.00  0.00     0.035 A 
HETATM    6  C   UNL     1      44.047 -12.137   7.211  1.00  0.00     0.046 A 
HETATM    7  C   UNL     1      43.642 -10.798   7.396  1.00  0.00     0.030 A 
HETATM    8  C   UNL     1      42.418 -10.391   6.880  1.00  0.00     0.063 A 
HETATM    9  C   UNL     1      44.191  -9.633   8.013  1.00  0.00     0.156 A 
HETATM   10  N   UNL     1      42.309  -9.069   7.208  1.00  0.00    -0.277 N 
HETATM   11  C   UNL     1      41.563 -11.250   6.184  1.00  0.00     0.034 A 
HETATM   12  H   UNL     1      41.542  -8.443   6.990  1.00  0.00     0.189 HD
HETATM   13  N   UNL     1      43.356  -8.575   7.891  1.00  0.00    -0.168 NA
HETATM   14  C   UNL     1      41.992 -12.574   6.010  1.00  0.00     0.032 A 
BRANCH   9  15
HETATM   15  C   UNL     1      45.483  -9.510   8.704  1.00  0.00     0.270 C 
HETATM   16  N   UNL     1      45.422  -9.755  10.050  1.00  0.00    -0.365 N 
HETATM   17  H   UNL     1      44.527  -9.993  10.461  1.00  0.00     0.159 HD
HETATM   18  H   UNL     1      46.261  -9.693  10.606  1.00  0.00     0.159 HD
HETATM   19  O   UNL     1      46.542  -9.214   8.163  1.00  0.00    -0.266 OA
ENDBRANCH   9  15
ENDBRANCH   2   5
BRANCH   1  20
HETATM   20  C   UNL     1      43.882 -16.759   6.530  1.00  0.00     0.278 C 
BRANCH  20  21
HETATM   21  O   UNL     1      44.589 -16.661   5.293  1.00  0.00    -0.342 OA
BRANCH  21  22
HETATM   22  C   UNL     1      44.097 -17.525   4.341  1.00  0.00     0.076 A 
HETATM   23  C   UNL     1      44.349 -18.904   4.421  1.00  0.00     0.044 A 
HETATM   24  C   UNL     1      43.836 -19.789   3.468  1.00  0.00    -0.059 A 
HETATM   25  C   UNL     1      44.081 -21.265   3.572  1.00  0.00     0.048 C 
HETATM   26  C   UNL     1      43.096 -19.276   2.403  1.00  0.00     0.007 A 
HETATM   27  C   UNL     1      42.873 -17.902   2.296  1.00  0.00     0.011 A 
HETATM   28  C   UNL     1      43.373 -17.000   3.257  1.00  0.00    -0.021 A 
BRANCH  28  29
HETATM   29  C   UNL     1      43.062 -15.522   3.070  1.00  0.00     0.013 C 
HETATM   30  C   UNL     1      43.499 -15.010   1.696  1.00  0.00     0.015 C 
HETATM   31  C   UNL     1      41.601 -15.179   3.362  1.00  0.00     0.015 C 
ENDBRANCH  28  29
ENDBRANCH  21  22
ENDBRANCH  20  21
ENDBRANCH   1  20
TORSDOF 6
ENDMDL
MODEL 8
REMARK VINA RESULT:      -8.9      4.363      7.065
REMARK  6 active torsions:
REMARK  status: ('A' for Active; 'I' for Inactive)
REMARK    1  A    between atoms: C_4  and  O_5 
REMARK    2  A    between atoms: O_5  and  C_6 
REMARK    3  A    between atoms: C_6  and  C_7 
REMARK       I    between atoms: C_7  and  N_8 
REMARK    4  A    between atoms: N_8  and  C_9 
REMARK    5  A    between atoms: C_16  and  C_17 
REMARK       I    between atoms: C_17  and  N_18 
REMARK    6  A    between atoms: C_23  and  C_24 
ROOT
HETATM    1  C   UNL     1      41.338 -14.307   3.517  1.00  0.00     0.246 C 
HETATM    2  N   UNL     1      42.255 -13.276   3.643  1.00  0.00    -0.325 N 
HETATM    3  O   UNL     1      40.253 -14.392   4.083  1.00  0.00    -0.271 OA
HETATM    4  H   UNL     1      43.034 -13.307   2.992  1.00  0.00     0.169 HD
ENDROOT
BRANCH   2   5
HETATM    5  C   UNL     1      42.210 -12.198   4.552  1.00  0.00     0.035 A 
HETATM    6  C   UNL     1      43.220 -11.937   5.491  1.00  0.00     0.046 A 
HETATM    7  C   UNL     1      43.126 -10.805   6.330  1.00  0.00     0.030 A 
HETATM    8  C   UNL     1      42.022  -9.971   6.207  1.00  0.00     0.063 A 
HETATM    9  C   UNL     1      43.923 -10.218   7.358  1.00  0.00     0.156 A 
HETATM   10  N   UNL     1      42.212  -8.981   7.129  1.00  0.00    -0.277 N 
HETATM   11  C   UNL     1      40.994 -10.200   5.288  1.00  0.00     0.034 A 
HETATM   12  H   UNL     1      41.604  -8.193   7.319  1.00  0.00     0.189 HD
HETATM   13  N   UNL     1      43.345  -9.094   7.843  1.00  0.00    -0.168 NA
HETATM   14  C   UNL     1      41.115 -11.329   4.464  1.00  0.00     0.032 A 
BRANCH   9  15
HETATM   15  C   UNL     1      45.212 -10.699   7.876  1.00  0.00     0.270 C 
HETATM   16  N   UNL     1      46.219 -10.705   6.949  1.00  0.00    -0.365 N 
HETATM   17  H   UNL     1      46.015 -10.393   6.007  1.00  0.00     0.159 HD
HETATM   18  H   UNL     1      47.139 -11.021   7.215  1.00  0.00     0.159 HD
HETATM   19  O   UNL     1      45.410 -11.073   9.026  1.00  0.00    -0.266 OA
ENDBRANCH   9  15
ENDBRANCH   2   5
BRANCH   1  20
HETATM   20  C   UNL     1      41.854 -15.462   2.660  1.00  0.00     0.278 C 
BRANCH  20  21
HETATM   21  O   UNL     1      43.245 -15.711   2.865  1.00  0.00    -0.342 OA
BRANCH  21  22
HETATM   22  C   UNL     1      43.489 -17.003   3.272  1.00  0.00     0.076 A 
HETATM   23  C   UNL     1      43.476 -18.063   2.351  1.00  0.00     0.044 A 
HETATM   24  C   UNL     1      43.742 -19.375   2.756  1.00  0.00    -0.059 A 
HETATM   25  C   UNL     1      43.758 -20.501   1.765  1.00  0.00     0.048 C 
HETATM   26  C   UNL     1      43.984 -19.627   4.106  1.00  0.00     0.007 A 
HETATM   27  C   UNL     1      43.961 -18.583   5.033  1.00  0.00     0.011 A 
HETATM   28  C   UNL     1      43.708 -17.254   4.638  1.00  0.00    -0.021 A 
BRANCH  28  29
HETATM   29  C   UNL     1      43.723 -16.179   5.714  1.00  0.00     0.013 C 
HETATM   30  C   UNL     1      42.417 -16.141   6.509  1.00  0.00     0.015 C 
HETATM   31  C   UNL     1      44.941 -16.275   6.634  1.00  0.00     0.015 C 
ENDBRANCH  28  29
ENDBRANCH  21  22
ENDBRANCH  20  21
ENDBRANCH   1  20
TORSDOF 6
ENDMDL
MODEL 9
REMARK VINA RESULT:      -8.7      4.893      6.740
REMARK  6 active torsions:
REMARK  status: ('A' for Active; 'I' for Inactive)
REMARK    1  A    between atoms: C_4  and  O_5 
REMARK    2  A    between atoms: O_5  and  C_6 
REMARK    3  A    between atoms: C_6  and  C_7 
REMARK       I    between atoms: C_7  and  N_8 
REMARK    4  A    between atoms: N_8  and  C_9 
REMARK    5  A    between atoms: C_16  and  C_17 
REMARK       I    between atoms: C_17  and  N_18 
REMARK    6  A    between atoms: C_23  and  C_24 
ROOT
HETATM    1  C   UNL     1      43.238 -15.591   6.936  1.00  0.00     0.246 C 
HETATM    2  N   UNL     1      43.427 -14.534   6.060  1.00  0.00    -0.325 N 
HETATM    3  O   UNL     1      42.672 -15.546   8.023  1.00  0.00    -0.271 OA
HETATM    4  H   UNL     1      43.792 -14.787   5.147  1.00  0.00     0.169 HD
ENDROOT
BRANCH   2   5
HETATM    5  C   UNL     1      43.154 -13.169   6.295  1.00  0.00     0.035 A 
HETATM    6  C   UNL     1      41.884 -12.596   6.129  1.00  0.00     0.046 A 
HETATM    7  C   UNL     1      41.682 -11.233   6.437  1.00  0.00     0.030 A 
HETATM    8  C   UNL     1      42.758 -10.484   6.897  1.00  0.00     0.063 A 
HETATM    9  C   UNL     1      40.580 -10.326   6.415  1.00  0.00     0.156 A 
HETATM   10  N   UNL     1      42.260  -9.229   7.109  1.00  0.00    -0.277 N 
HETATM   11  C   UNL     1      44.038 -11.018   7.070  1.00  0.00     0.034 A 
HETATM   12  H   UNL     1      42.764  -8.418   7.449  1.00  0.00     0.189 HD
HETATM   13  N   UNL     1      40.953  -9.093   6.830  1.00  0.00    -0.168 NA
HETATM   14  C   UNL     1      44.210 -12.375   6.761  1.00  0.00     0.032 A 
BRANCH   9  15
HETATM   15  C   UNL     1      39.194 -10.611   6.015  1.00  0.00     0.270 C 
HETATM   16  N   UNL     1      38.785  -9.934   4.897  1.00  0.00    -0.365 N 
HETATM   17  H   UNL     1      39.439  -9.308   4.441  1.00  0.00     0.159 HD
HETATM   18  H   UNL     1      37.848 -10.067   4.550  1.00  0.00     0.159 HD
HETATM   19  O   UNL     1      38.437 -11.375   6.603  1.00  0.00    -0.266 OA
ENDBRANCH   9  15
ENDBRANCH   2   5
BRANCH   1  20
HETATM   20  C   UNL     1      43.929 -16.875   6.478  1.00  0.00     0.278 C 
BRANCH  20  21
HETATM   21  O   UNL     1      44.572 -16.724   5.212  1.00  0.00    -0.342 OA
BRANCH  21  22
HETATM   22  C   UNL     1      44.083 -17.601   4.271  1.00  0.00     0.076 A 
HETATM   23  C   UNL     1      44.345 -18.977   4.364  1.00  0.00     0.044 A 
HETATM   24  C   UNL     1      43.834 -19.875   3.421  1.00  0.00    -0.059 A 
HETATM   25  C   UNL     1      44.090 -21.348   3.539  1.00  0.00     0.048 C 
HETATM   26  C   UNL     1      43.087 -19.378   2.354  1.00  0.00     0.007 A 
HETATM   27  C   UNL     1      42.854 -18.006   2.234  1.00  0.00     0.011 A 
HETATM   28  C   UNL     1      43.351 -17.091   3.185  1.00  0.00    -0.021 A 
BRANCH  28  29
HETATM   29  C   UNL     1      43.030 -15.617   2.985  1.00  0.00     0.013 C 
HETATM   30  C   UNL     1      43.494 -15.106   1.619  1.00  0.00     0.015 C 
HETATM   31  C   UNL     1      41.558 -15.288   3.239  1.00  0.00     0.015 C 
ENDBRANCH  28  29
ENDBRANCH  21  22
ENDBRANCH  20  21
ENDBRANCH   1  20
TORSDOF 6
ENDMDL
MODEL 10
REMARK VINA RESULT:      -8.7      1.860      2.333
REMARK  6 active torsions:
REMARK  status: ('A' for Active; 'I' for Inactive)
REMARK    1  A    between atoms: C_4  and  O_5 
REMARK    2  A    between atoms: O_5  and  C_6 
REMARK    3  A    between atoms: C_6  and  C_7 
REMARK       I    between atoms: C_7  and  N_8 
REMARK    4  A    between atoms: N_8  and  C_9 
REMARK    5  A    between atoms: C_16  and  C_17 
REMARK       I    between atoms: C_17  and  N_18 
REMARK    6  A    between atoms: C_23  and  C_24 
ROOT
HETATM    1  C   UNL     1      40.856 -15.090   1.214  1.00  0.00     0.246 C 
HETATM    2  N   UNL     1      40.909 -13.707   1.151  1.00  0.00    -0.325 N 
HETATM    3  O   UNL     1      39.853 -15.788   1.100  1.00  0.00    -0.271 OA
HETATM    4  H   UNL     1      41.843 -13.309   1.126  1.00  0.00     0.169 HD
ENDROOT
BRANCH   2   5
HETATM    5  C   UNL     1      39.820 -12.810   1.102  1.00  0.00     0.035 A 
HETATM    6  C   UNL     1      39.226 -12.381  -0.094  1.00  0.00     0.046 A 
HETATM    7  C   UNL     1      38.105 -11.523  -0.056  1.00  0.00     0.030 A 
HETATM    8  C   UNL     1      37.616 -11.118   1.179  1.00  0.00     0.063 A 
HETATM    9  C   UNL     1      37.249 -10.906  -1.017  1.00  0.00     0.156 A 
HETATM   10  N   UNL     1      36.546 -10.314   0.898  1.00  0.00    -0.277 N 
HETATM   11  C   UNL     1      38.183 -11.519   2.392  1.00  0.00     0.034 A 
HETATM   12  H   UNL     1      35.942  -9.841   1.560  1.00  0.00     0.189 HD
HETATM   13  N   UNL     1      36.293 -10.161  -0.413  1.00  0.00    -0.168 NA
HETATM   14  C   UNL     1      39.292 -12.374   2.324  1.00  0.00     0.032 A 
BRANCH   9  15
HETATM   15  C   UNL     1      37.321 -11.015  -2.481  1.00  0.00     0.270 C 
HETATM   16  N   UNL     1      36.978 -12.249  -2.966  1.00  0.00    -0.365 N 
HETATM   17  H   UNL     1      36.710 -12.972  -2.309  1.00  0.00     0.159 HD
HETATM   18  H   UNL     1      36.999 -12.416  -3.960  1.00  0.00     0.159 HD
HETATM   19  O   UNL     1      37.657 -10.110  -3.237  1.00  0.00    -0.266 OA
ENDBRANCH   9  15
ENDBRANCH   2   5
BRANCH   1  20
HETATM   20  C   UNL     1      42.199 -15.722   1.573  1.00  0.00     0.278 C 
BRANCH  20  21
HETATM   21  O   UNL     1      42.358 -15.897   2.981  1.00  0.00    -0.342 OA
BRANCH  21  22
HETATM   22  C   UNL     1      42.935 -17.107   3.295  1.00  0.00     0.076 A 
HETATM   23  C   UNL     1      42.973 -18.150   2.356  1.00  0.00     0.044 A 
HETATM   24  C   UNL     1      43.574 -19.375   2.663  1.00  0.00    -0.059 A 
HETATM   25  C   UNL     1      43.642 -20.478   1.648  1.00  0.00     0.048 C 
HETATM   26  C   UNL     1      44.105 -19.564   3.938  1.00  0.00     0.007 A 
HETATM   27  C   UNL     1      44.036 -18.544   4.889  1.00  0.00     0.011 A 
HETATM   28  C   UNL     1      43.446 -17.300   4.590  1.00  0.00    -0.021 A 
BRANCH  28  29
HETATM   29  C   UNL     1      43.434 -16.240   5.682  1.00  0.00     0.013 C 
HETATM   30  C   UNL     1      42.175 -16.316   6.546  1.00  0.00     0.015 C 
HETATM   31  C   UNL     1      44.704 -16.249   6.534  1.00  0.00     0.015 C 
ENDBRANCH  28  29
ENDBRANCH  21  22
ENDBRANCH  20  21
ENDBRANCH   1  20
TORSDOF 6
ENDMDL
