MODEL 1
REMARK VINA RESULT:      -8.4      0.000      0.000
REMARK  6 active torsions:
REMARK  status: ('A' for Active; 'I' for Inactive)
REMARK    1  A    between atoms: C_2  and  O_3 
REMARK    2  A    between atoms: O_3  and  C_4 
REMARK    3  A    between atoms: C_4  and  C_5 
REMARK    4  A    between atoms: C_6  and  O_7 
REMARK    5  A    between atoms: C_12  and  O_13 
REMARK    6  A    between atoms: C_17  and  C_18 
ROOT
HETATM    1  C   UNL     1      42.288 -15.706   5.664  1.00  0.00     0.133 C 
HETATM    2  C   UNL     1      40.764 -15.391   5.511  1.00  0.00     0.073 C 
HETATM    3  C   UNL     1      40.049 -15.235   6.863  1.00  0.00     0.047 C 
HETATM    4  C   UNL     1      40.448 -14.166   4.605  1.00  0.00     0.097 C 
HETATM    5  C   UNL     1      41.358 -14.154   3.433  1.00  0.00     0.042 A 
HETATM    6  C   UNL     1      42.550 -14.833   3.292  1.00  0.00     0.030 A 
HETATM    7  C   UNL     1      42.982 -14.460   2.010  1.00  0.00     0.190 A 
HETATM    8  N   UNL     1      42.161 -13.618   1.393  1.00  0.00    -0.149 NA
HETATM    9  N   UNL     1      41.160 -13.458   2.276  1.00  0.00    -0.279 N 
HETATM   10  H   UNL     1      40.383 -12.859   2.018  1.00  0.00     0.189 HD
HETATM   11  C   UNL     1      43.134 -15.695   4.358  1.00  0.00     0.074 C 
ENDROOT
BRANCH  11  12
HETATM   12  C   UNL     1      43.348 -17.087   3.775  1.00  0.00    -0.048 A 
HETATM   13  C   UNL     1      44.213 -17.971   4.451  1.00  0.00     0.011 A 
HETATM   14  C   UNL     1      44.424 -19.268   3.980  1.00  0.00     0.043 A 
HETATM   15  C   UNL     1      43.765 -19.696   2.836  1.00  0.00     0.116 A 
HETATM   16  F   UNL     1      43.964 -20.942   2.388  1.00  0.00    -0.206 F 
HETATM   17  C   UNL     1      42.900 -18.851   2.155  1.00  0.00     0.043 A 
HETATM   18  C   UNL     1      42.689 -17.553   2.623  1.00  0.00     0.011 A 
ENDBRANCH  11  12
BRANCH   1  19
HETATM   19  C   UNL     1      43.017 -14.827   6.658  1.00  0.00     0.267 C 
HETATM   20  O   UNL     1      43.060 -15.084   7.855  1.00  0.00    -0.265 OA
BRANCH  19  21
HETATM   21  O   UNL     1      43.664 -13.790   6.070  1.00  0.00    -0.316 OA
BRANCH  21  22
HETATM   22  C   UNL     1      43.546 -12.507   6.718  1.00  0.00     0.123 C 
HETATM   23  C   UNL     1      42.695 -11.569   5.868  1.00  0.00     0.040 C 
HETATM   24  C   UNL     1      44.957 -11.955   6.872  1.00  0.00     0.040 C 
ENDBRANCH  21  22
ENDBRANCH  19  21
ENDBRANCH   1  19
BRANCH   2  25
HETATM   25  O   UNL     1      40.127 -16.533   4.890  1.00  0.00    -0.389 OA
HETATM   26  H   UNL     1      39.409 -16.846   5.470  1.00  0.00     0.210 HD
ENDBRANCH   2  25
BRANCH   7  27
HETATM   27  O   UNL     1      44.070 -14.835   1.335  1.00  0.00    -0.343 OA
HETATM   28  H   UNL     1      44.848 -14.394   1.706  1.00  0.00     0.219 HD
ENDBRANCH   7  27
TORSDOF 6
ENDMDL
MODEL 2
REMARK VINA RESULT:      -7.5      2.873      5.207
REMARK  6 active torsions:
REMARK  status: ('A' for Active; 'I' for Inactive)
REMARK    1  A    between atoms: C_2  and  O_3 
REMARK    2  A    between atoms: O_3  and  C_4 
REMARK    3  A    between atoms: C_4  and  C_5 
REMARK    4  A    between atoms: C_6  and  O_7 
REMARK    5  A    between atoms: C_12  and  O_13 
REMARK    6  A    between atoms: C_17  and  C_18 
ROOT
HETATM    1  C   UNL     1      41.268 -13.798   2.260  1.00  0.00     0.133 C 
HETATM    2  C   UNL     1      41.889 -12.508   2.892  1.00  0.00     0.073 C 
HETATM    3  C   UNL     1      42.082 -11.377   1.869  1.00  0.00     0.047 C 
HETATM    4  C   UNL     1      41.122 -11.968   4.133  1.00  0.00     0.097 C 
HETATM    5  C   UNL     1      40.668 -13.099   4.980  1.00  0.00     0.042 A 
HETATM    6  C   UNL     1      40.555 -14.424   4.616  1.00  0.00     0.030 A 
HETATM    7  C   UNL     1      40.083 -15.039   5.787  1.00  0.00     0.190 A 
HETATM    8  N   UNL     1      39.901 -14.197   6.797  1.00  0.00    -0.149 NA
HETATM    9  N   UNL     1      40.285 -13.014   6.287  1.00  0.00    -0.279 N 
HETATM   10  H   UNL     1      40.253 -12.198   6.890  1.00  0.00     0.189 HD
HETATM   11  C   UNL     1      40.859 -14.928   3.248  1.00  0.00     0.074 C 
ENDROOT
BRANCH  11  12
HETATM   12  C   UNL     1      41.915 -16.021   3.372  1.00  0.00    -0.048 A 
HETATM   13  C   UNL     1      41.953 -17.029   2.388  1.00  0.00     0.011 A 
HETATM   14  C   UNL     1      42.916 -18.039   2.433  1.00  0.00     0.043 A 
HETATM   15  C   UNL     1      43.855 -18.043   3.456  1.00  0.00     0.116 A 
HETATM   16  F   UNL     1      44.782 -19.009   3.496  1.00  0.00    -0.206 F 
HETATM   17  C   UNL     1      43.849 -17.057   4.432  1.00  0.00     0.043 A 
HETATM   18  C   UNL     1      42.884 -16.047   4.390  1.00  0.00     0.011 A 
ENDBRANCH  11  12
BRANCH   1  19
HETATM   19  C   UNL     1      40.068 -13.548   1.369  1.00  0.00     0.267 C 
HETATM   20  O   UNL     1      39.138 -12.828   1.707  1.00  0.00    -0.265 OA
BRANCH  19  21
HETATM   21  O   UNL     1      40.182 -14.141   0.155  1.00  0.00    -0.316 OA
BRANCH  21  22
HETATM   22  C   UNL     1      39.566 -13.456  -0.955  1.00  0.00     0.123 C 
HETATM   23  C   UNL     1      39.095 -14.466  -1.997  1.00  0.00     0.040 C 
HETATM   24  C   UNL     1      40.622 -12.531  -1.548  1.00  0.00     0.040 C 
ENDBRANCH  21  22
ENDBRANCH  19  21
ENDBRANCH   1  19
BRANCH   2  25
HETATM   25  O   UNL     1      43.227 -12.827   3.343  1.00  0.00    -0.389 OA
HETATM   26  H   UNL     1      43.834 -12.776   2.583  1.00  0.00     0.210 HD
ENDBRANCH   2  25
BRANCH   7  27
HETATM   27  O   UNL     1      39.814 -16.324   6.025  1.00  0.00    -0.343 OA
HETATM   28  H   UNL     1      38.967 -16.395   6.488  1.00  0.00     0.219 HD
ENDBRANCH   7  27
TORSDOF 6
ENDMDL
MODEL 3
REMARK VINA RESULT:      -7.4      2.810      3.500
REMARK  6 active torsions:
REMARK  status: ('A' for Active; 'I' for Inactive)
REMARK    1  A    between atoms: C_2  and  O_3 
REMARK    2  A    between atoms: O_3  and  C_4 
REMARK    3  A    between atoms: C_4  and  C_5 
REMARK    4  A    between atoms: C_6  and  O_7 
REMARK    5  A    between atoms: C_12  and  O_13 
REMARK    6  A    between atoms: C_17  and  C_18 
ROOT
HETATM    1  C   UNL     1      41.813 -12.310   5.644  1.00  0.00     0.133 C 
HETATM    2  C   UNL     1      40.299 -12.032   5.925  1.00  0.00     0.073 C 
HETATM    3  C   UNL     1      40.068 -10.735   6.716  1.00  0.00     0.047 C 
HETATM    4  C   UNL     1      39.398 -12.041   4.656  1.00  0.00     0.097 C 
HETATM    5  C   UNL     1      39.825 -13.127   3.739  1.00  0.00     0.042 A 
HETATM    6  C   UNL     1      41.029 -13.798   3.741  1.00  0.00     0.030 A 
HETATM    7  C   UNL     1      40.894 -14.701   2.674  1.00  0.00     0.190 A 
HETATM    8  N   UNL     1      39.729 -14.613   2.044  1.00  0.00    -0.149 NA
HETATM    9  N   UNL     1      39.079 -13.654   2.725  1.00  0.00    -0.279 N 
HETATM   10  H   UNL     1      38.136 -13.415   2.437  1.00  0.00     0.189 HD
HETATM   11  C   UNL     1      42.136 -13.496   4.690  1.00  0.00     0.074 C 
ENDROOT
BRANCH  11  12
HETATM   12  C   UNL     1      42.485 -14.780   5.433  1.00  0.00    -0.048 A 
HETATM   13  C   UNL     1      43.824 -14.989   5.818  1.00  0.00     0.011 A 
HETATM   14  C   UNL     1      44.196 -16.133   6.527  1.00  0.00     0.043 A 
HETATM   15  C   UNL     1      43.232 -17.072   6.865  1.00  0.00     0.116 A 
HETATM   16  F   UNL     1      43.589 -18.166   7.550  1.00  0.00    -0.206 F 
HETATM   17  C   UNL     1      41.903 -16.888   6.510  1.00  0.00     0.043 A 
HETATM   18  C   UNL     1      41.530 -15.745   5.799  1.00  0.00     0.011 A 
ENDBRANCH  11  12
BRANCH   1  19
HETATM   19  C   UNL     1      42.588 -11.116   5.127  1.00  0.00     0.267 C 
HETATM   20  O   UNL     1      42.452 -10.689   3.987  1.00  0.00    -0.265 OA
BRANCH  19  21
HETATM   21  O   UNL     1      43.371 -10.545   6.075  1.00  0.00    -0.316 OA
BRANCH  21  22
HETATM   22  C   UNL     1      44.066 -11.445   6.962  1.00  0.00     0.123 C 
HETATM   23  C   UNL     1      44.041 -10.898   8.386  1.00  0.00     0.040 C 
HETATM   24  C   UNL     1      45.499 -11.550   6.456  1.00  0.00     0.040 C 
ENDBRANCH  21  22
ENDBRANCH  19  21
ENDBRANCH   1  19
BRANCH   2  25
HETATM   25  O   UNL     1      39.801 -13.082   6.788  1.00  0.00    -0.389 OA
HETATM   26  H   UNL     1      40.269 -13.910   6.578  1.00  0.00     0.210 HD
ENDBRANCH   2  25
BRANCH   7  27
HETATM   27  O   UNL     1      41.747 -15.624   2.226  1.00  0.00    -0.343 OA
HETATM   28  H   UNL     1      41.458 -16.500   2.521  1.00  0.00     0.219 HD
ENDBRANCH   7  27
TORSDOF 6
ENDMDL
MODEL 4
REMARK VINA RESULT:      -7.1      2.782      4.840
REMARK  6 active torsions:
REMARK  status: ('A' for Active; 'I' for Inactive)
REMARK    1  A    between atoms: C_2  and  O_3 
REMARK    2  A    between atoms: O_3  and  C_4 
REMARK    3  A    between atoms: C_4  and  C_5 
REMARK    4  A    between atoms: C_6  and  O_7 
REMARK    5  A    between atoms: C_12  and  O_13 
REMARK    6  A    between atoms: C_17  and  C_18 
ROOT
HETATM    1  C   UNL     1      41.448 -13.493   2.501  1.00  0.00     0.133 C 
HETATM    2  C   UNL     1      42.130 -12.351   3.325  1.00  0.00     0.073 C 
HETATM    3  C   UNL     1      42.435 -11.106   2.477  1.00  0.00     0.047 C 
HETATM    4  C   UNL     1      41.356 -11.935   4.609  1.00  0.00     0.097 C 
HETATM    5  C   UNL     1      40.797 -13.138   5.276  1.00  0.00     0.042 A 
HETATM    6  C   UNL     1      40.609 -14.388   4.726  1.00  0.00     0.030 A 
HETATM    7  C   UNL     1      40.056 -15.124   5.785  1.00  0.00     0.190 A 
HETATM    8  N   UNL     1      39.893 -14.420   6.898  1.00  0.00    -0.149 NA
HETATM    9  N   UNL     1      40.372 -13.207   6.571  1.00  0.00    -0.279 N 
HETATM   10  H   UNL     1      40.373 -12.483   7.282  1.00  0.00     0.189 HD
HETATM   11  C   UNL     1      40.930 -14.718   3.309  1.00  0.00     0.074 C 
ENDROOT
BRANCH  11  12
HETATM   12  C   UNL     1      41.905 -15.889   3.306  1.00  0.00    -0.048 A 
HETATM   13  C   UNL     1      41.819 -16.831   2.261  1.00  0.00     0.011 A 
HETATM   14  C   UNL     1      42.704 -17.907   2.190  1.00  0.00     0.043 A 
HETATM   15  C   UNL     1      43.690 -18.046   3.158  1.00  0.00     0.116 A 
HETATM   16  F   UNL     1      44.543 -19.076   3.086  1.00  0.00    -0.206 F 
HETATM   17  C   UNL     1      43.807 -17.129   4.192  1.00  0.00     0.043 A 
HETATM   18  C   UNL     1      42.920 -16.052   4.266  1.00  0.00     0.011 A 
ENDBRANCH  11  12
BRANCH   1  19
HETATM   19  C   UNL     1      40.301 -13.039   1.622  1.00  0.00     0.267 C 
HETATM   20  O   UNL     1      40.326 -13.148   0.403  1.00  0.00    -0.265 OA
BRANCH  19  21
HETATM   21  O   UNL     1      39.243 -12.580   2.333  1.00  0.00    -0.316 OA
BRANCH  21  22
HETATM   22  C   UNL     1      38.736 -11.280   1.966  1.00  0.00     0.123 C 
HETATM   23  C   UNL     1      38.591 -10.406   3.208  1.00  0.00     0.040 C 
HETATM   24  C   UNL     1      37.380 -11.501   1.308  1.00  0.00     0.040 C 
ENDBRANCH  21  22
ENDBRANCH  19  21
ENDBRANCH   1  19
BRANCH   2  25
HETATM   25  O   UNL     1      43.426 -12.823   3.763  1.00  0.00    -0.389 OA
HETATM   26  H   UNL     1      43.308 -13.363   4.565  1.00  0.00     0.210 HD
ENDBRANCH   2  25
BRANCH   7  27
HETATM   27  O   UNL     1      39.693 -16.407   5.833  1.00  0.00    -0.343 OA
HETATM   28  H   UNL     1      38.743 -16.467   6.008  1.00  0.00     0.219 HD
ENDBRANCH   7  27
TORSDOF 6
ENDMDL
MODEL 5
REMARK VINA RESULT:      -7.1      3.238      5.371
REMARK  6 active torsions:
REMARK  status: ('A' for Active; 'I' for Inactive)
REMARK    1  A    between atoms: C_2  and  O_3 
REMARK    2  A    between atoms: O_3  and  C_4 
REMARK    3  A    between atoms: C_4  and  C_5 
REMARK    4  A    between atoms: C_6  and  O_7 
REMARK    5  A    between atoms: C_12  and  O_13 
REMARK    6  A    between atoms: C_17  and  C_18 
ROOT
HETATM    1  C   UNL     1      41.696 -15.073   4.428  1.00  0.00     0.133 C 
HETATM    2  C   UNL     1      41.124 -14.767   5.852  1.00  0.00     0.073 C 
HETATM    3  C   UNL     1      40.827 -16.039   6.661  1.00  0.00     0.047 C 
HETATM    4  C   UNL     1      41.997 -13.797   6.700  1.00  0.00     0.097 C 
HETATM    5  C   UNL     1      42.538 -12.717   5.838  1.00  0.00     0.042 A 
HETATM    6  C   UNL     1      42.629 -12.711   4.463  1.00  0.00     0.030 A 
HETATM    7  C   UNL     1      43.212 -11.464   4.186  1.00  0.00     0.190 A 
HETATM    8  N   UNL     1      43.479 -10.746   5.270  1.00  0.00    -0.149 NA
HETATM    9  N   UNL     1      43.039 -11.525   6.274  1.00  0.00    -0.279 N 
HETATM   10  H   UNL     1      43.119 -11.175   7.223  1.00  0.00     0.189 HD
HETATM   11  C   UNL     1      42.204 -13.853   3.607  1.00  0.00     0.074 C 
ENDROOT
BRANCH  11  12
HETATM   12  C   UNL     1      41.174 -13.337   2.608  1.00  0.00    -0.048 A 
HETATM   13  C   UNL     1      41.429 -13.512   1.233  1.00  0.00     0.011 A 
HETATM   14  C   UNL     1      40.509 -13.086   0.274  1.00  0.00     0.043 A 
HETATM   15  C   UNL     1      39.322 -12.492   0.680  1.00  0.00     0.116 A 
HETATM   16  F   UNL     1      38.438 -12.089  -0.240  1.00  0.00    -0.206 F 
HETATM   17  C   UNL     1      39.039 -12.317   2.028  1.00  0.00     0.043 A 
HETATM   18  C   UNL     1      39.960 -12.741   2.989  1.00  0.00     0.011 A 
ENDBRANCH  11  12
BRANCH   1  19
HETATM   19  C   UNL     1      42.805 -16.104   4.403  1.00  0.00     0.267 C 
HETATM   20  O   UNL     1      43.840 -15.970   5.044  1.00  0.00    -0.265 OA
BRANCH  19  21
HETATM   21  O   UNL     1      42.492 -17.197   3.665  1.00  0.00    -0.316 OA
BRANCH  21  22
HETATM   22  C   UNL     1      43.435 -17.574   2.641  1.00  0.00     0.123 C 
HETATM   23  C   UNL     1      43.344 -16.608   1.465  1.00  0.00     0.040 C 
HETATM   24  C   UNL     1      43.072 -18.987   2.201  1.00  0.00     0.040 C 
ENDBRANCH  21  22
ENDBRANCH  19  21
ENDBRANCH   1  19
BRANCH   2  25
HETATM   25  O   UNL     1      39.837 -14.125   5.693  1.00  0.00    -0.389 OA
HETATM   26  H   UNL     1      39.157 -14.673   6.126  1.00  0.00     0.210 HD
ENDBRANCH   2  25
BRANCH   7  27
HETATM   27  O   UNL     1      43.514 -10.907   3.012  1.00  0.00    -0.343 OA
HETATM   28  H   UNL     1      44.170 -11.453   2.555  1.00  0.00     0.219 HD
ENDBRANCH   7  27
TORSDOF 6
ENDMDL
MODEL 6
REMARK VINA RESULT:      -6.9      3.953      6.298
REMARK  6 active torsions:
REMARK  status: ('A' for Active; 'I' for Inactive)
REMARK    1  A    between atoms: C_2  and  O_3 
REMARK    2  A    between atoms: O_3  and  C_4 
REMARK    3  A    between atoms: C_4  and  C_5 
REMARK    4  A    between atoms: C_6  and  O_7 
REMARK    5  A    between atoms: C_12  and  O_13 
REMARK    6  A    between atoms: C_17  and  C_18 
ROOT
HETATM    1  C   UNL     1      40.506 -14.228   4.458  1.00  0.00     0.133 C 
HETATM    2  C   UNL     1      40.822 -14.361   5.984  1.00  0.00     0.073 C 
HETATM    3  C   UNL     1      40.351 -15.698   6.576  1.00  0.00     0.047 C 
HETATM    4  C   UNL     1      42.314 -14.120   6.355  1.00  0.00     0.097 C 
HETATM    5  C   UNL     1      42.862 -13.000   5.550  1.00  0.00     0.042 A 
HETATM    6  C   UNL     1      42.341 -12.473   4.387  1.00  0.00     0.030 A 
HETATM    7  C   UNL     1      43.251 -11.455   4.060  1.00  0.00     0.190 A 
HETATM    8  N   UNL     1      44.260 -11.345   4.917  1.00  0.00    -0.149 NA
HETATM    9  N   UNL     1      43.992 -12.290   5.835  1.00  0.00    -0.279 N 
HETATM   10  H   UNL     1      44.626 -12.390   6.621  1.00  0.00     0.189 HD
HETATM   11  C   UNL     1      41.112 -12.994   3.728  1.00  0.00     0.074 C 
ENDROOT
BRANCH  11  12
HETATM   12  C   UNL     1      40.124 -11.841   3.590  1.00  0.00    -0.048 A 
HETATM   13  C   UNL     1      39.987 -10.944   4.668  1.00  0.00     0.011 A 
HETATM   14  C   UNL     1      39.121  -9.853   4.588  1.00  0.00     0.043 A 
HETATM   15  C   UNL     1      38.391  -9.643   3.425  1.00  0.00     0.116 A 
HETATM   16  F   UNL     1      37.564  -8.593   3.347  1.00  0.00    -0.206 F 
HETATM   17  C   UNL     1      38.514 -10.504   2.343  1.00  0.00     0.043 A 
HETATM   18  C   UNL     1      39.379 -11.597   2.423  1.00  0.00     0.011 A 
ENDBRANCH  11  12
BRANCH   1  19
HETATM   19  C   UNL     1      40.874 -15.443   3.630  1.00  0.00     0.267 C 
HETATM   20  O   UNL     1      40.032 -16.131   3.065  1.00  0.00    -0.265 OA
BRANCH  19  21
HETATM   21  O   UNL     1      42.213 -15.626   3.529  1.00  0.00    -0.316 OA
BRANCH  21  22
HETATM   22  C   UNL     1      42.690 -16.979   3.677  1.00  0.00     0.123 C 
HETATM   23  C   UNL     1      43.805 -17.029   4.717  1.00  0.00     0.040 C 
HETATM   24  C   UNL     1      43.211 -17.417   2.314  1.00  0.00     0.040 C 
ENDBRANCH  21  22
ENDBRANCH  19  21
ENDBRANCH   1  19
BRANCH   2  25
HETATM   25  O   UNL     1      40.057 -13.357   6.692  1.00  0.00    -0.389 OA
HETATM   26  H   UNL     1      39.762 -12.681   6.055  1.00  0.00     0.210 HD
ENDBRANCH   2  25
BRANCH   7  27
HETATM   27  O   UNL     1      43.237 -10.593   3.042  1.00  0.00    -0.343 OA
HETATM   28  H   UNL     1      43.713 -10.974   2.290  1.00  0.00     0.219 HD
ENDBRANCH   7  27
TORSDOF 6
ENDMDL
MODEL 7
REMARK VINA RESULT:      -6.9      3.435      6.092
REMARK  6 active torsions:
REMARK  status: ('A' for Active; 'I' for Inactive)
REMARK    1  A    between atoms: C_2  and  O_3 
REMARK    2  A    between atoms: O_3  and  C_4 
REMARK    3  A    between atoms: C_4  and  C_5 
REMARK    4  A    between atoms: C_6  and  O_7 
REMARK    5  A    between atoms: C_12  and  O_13 
REMARK    6  A    between atoms: C_17  and  C_18 
ROOT
HETATM    1  C   UNL     1      41.270 -13.428   3.217  1.00  0.00     0.133 C 
HETATM    2  C   UNL     1      41.049 -12.322   2.132  1.00  0.00     0.073 C 
HETATM    3  C   UNL     1      41.248 -12.844   0.701  1.00  0.00     0.047 C 
HETATM    4  C   UNL     1      39.684 -11.583   2.237  1.00  0.00     0.097 C 
HETATM    5  C   UNL     1      39.345 -11.342   3.662  1.00  0.00     0.042 A 
HETATM    6  C   UNL     1      39.882 -11.969   4.766  1.00  0.00     0.030 A 
HETATM    7  C   UNL     1      39.205 -11.366   5.838  1.00  0.00     0.190 A 
HETATM    8  N   UNL     1      38.316 -10.454   5.463  1.00  0.00    -0.149 NA
HETATM    9  N   UNL     1      38.431 -10.440   4.123  1.00  0.00    -0.279 N 
HETATM   10  H   UNL     1      37.853  -9.793   3.598  1.00  0.00     0.189 HD
HETATM   11  C   UNL     1      40.907 -13.046   4.682  1.00  0.00     0.074 C 
ENDROOT
BRANCH  11  12
HETATM   12  C   UNL     1      42.117 -12.612   5.501  1.00  0.00    -0.048 A 
HETATM   13  C   UNL     1      42.851 -13.601   6.187  1.00  0.00     0.011 A 
HETATM   14  C   UNL     1      43.985 -13.267   6.928  1.00  0.00     0.043 A 
HETATM   15  C   UNL     1      44.401 -11.943   6.982  1.00  0.00     0.116 A 
HETATM   16  F   UNL     1      45.492 -11.624   7.690  1.00  0.00    -0.206 F 
HETATM   17  C   UNL     1      43.705 -10.950   6.308  1.00  0.00     0.043 A 
HETATM   18  C   UNL     1      42.569 -11.283   5.567  1.00  0.00     0.011 A 
ENDBRANCH  11  12
BRANCH   1  19
HETATM   19  C   UNL     1      40.574 -14.742   2.928  1.00  0.00     0.267 C 
HETATM   20  O   UNL     1      39.436 -14.797   2.478  1.00  0.00    -0.265 OA
BRANCH  19  21
HETATM   21  O   UNL     1      41.368 -15.818   3.149  1.00  0.00    -0.316 OA
BRANCH  21  22
HETATM   22  C   UNL     1      42.785 -15.620   2.964  1.00  0.00     0.123 C 
HETATM   23  C   UNL     1      43.191 -16.033   1.553  1.00  0.00     0.040 C 
HETATM   24  C   UNL     1      43.493 -16.486   3.998  1.00  0.00     0.040 C 
ENDBRANCH  21  22
ENDBRANCH  19  21
ENDBRANCH   1  19
BRANCH   2  25
HETATM   25  O   UNL     1      42.074 -11.314   2.301  1.00  0.00    -0.389 OA
HETATM   26  H   UNL     1      41.965 -10.638   1.608  1.00  0.00     0.210 HD
ENDBRANCH   2  25
BRANCH   7  27
HETATM   27  O   UNL     1      39.337 -11.565   7.150  1.00  0.00    -0.343 OA
HETATM   28  H   UNL     1      38.530 -11.971   7.498  1.00  0.00     0.219 HD
ENDBRANCH   7  27
TORSDOF 6
ENDMDL
MODEL 8
REMARK VINA RESULT:      -6.9      8.849     10.864
REMARK  6 active torsions:
REMARK  status: ('A' for Active; 'I' for Inactive)
REMARK    1  A    between atoms: C_2  and  O_3 
REMARK    2  A    between atoms: O_3  and  C_4 
REMARK    3  A    between atoms: C_4  and  C_5 
REMARK    4  A    between atoms: C_6  and  O_7 
REMARK    5  A    between atoms: C_12  and  O_13 
REMARK    6  A    between atoms: C_17  and  C_18 
ROOT
HETATM    1  C   UNL     1      42.122  -7.451  12.606  1.00  0.00     0.133 C 
HETATM    2  C   UNL     1      41.682  -8.567  13.610  1.00  0.00     0.073 C 
HETATM    3  C   UNL     1      41.755  -8.111  15.076  1.00  0.00     0.047 C 
HETATM    4  C   UNL     1      40.281  -9.177  13.319  1.00  0.00     0.097 C 
HETATM    5  C   UNL     1      40.093  -9.340  11.856  1.00  0.00     0.042 A 
HETATM    6  C   UNL     1      40.807  -8.729  10.848  1.00  0.00     0.030 A 
HETATM    7  C   UNL     1      40.212  -9.233   9.681  1.00  0.00     0.190 A 
HETATM    8  N   UNL     1      39.211 -10.074   9.913  1.00  0.00    -0.149 NA
HETATM    9  N   UNL     1      39.166 -10.141  11.255  1.00  0.00    -0.279 N 
HETATM   10  H   UNL     1      38.477 -10.751  11.683  1.00  0.00     0.189 HD
HETATM   11  C   UNL     1      41.903  -7.750  11.095  1.00  0.00     0.074 C 
ENDROOT
BRANCH  11  12
HETATM   12  C   UNL     1      43.160  -8.264  10.402  1.00  0.00    -0.048 A 
HETATM   13  C   UNL     1      43.583  -7.622   9.220  1.00  0.00     0.011 A 
HETATM   14  C   UNL     1      44.742  -8.031   8.559  1.00  0.00     0.043 A 
HETATM   15  C   UNL     1      45.494  -9.076   9.078  1.00  0.00     0.116 A 
HETATM   16  F   UNL     1      46.609  -9.463   8.445  1.00  0.00    -0.206 F 
HETATM   17  C   UNL     1      45.108  -9.719  10.245  1.00  0.00     0.043 A 
HETATM   18  C   UNL     1      43.947  -9.314  10.907  1.00  0.00     0.011 A 
ENDBRANCH  11  12
BRANCH   1  19
HETATM   19  C   UNL     1      41.512  -6.089  12.869  1.00  0.00     0.267 C 
HETATM   20  O   UNL     1      40.306  -5.927  13.011  1.00  0.00    -0.265 OA
BRANCH  19  21
HETATM   21  O   UNL     1      42.442  -5.112  13.002  1.00  0.00    -0.316 OA
BRANCH  21  22
HETATM   22  C   UNL     1      42.252  -3.931  12.196  1.00  0.00     0.123 C 
HETATM   23  C   UNL     1      42.745  -4.183  10.775  1.00  0.00     0.040 C 
HETATM   24  C   UNL     1      43.056  -2.814  12.849  1.00  0.00     0.040 C 
ENDBRANCH  21  22
ENDBRANCH  19  21
ENDBRANCH   1  19
BRANCH   2  25
HETATM   25  O   UNL     1      42.631  -9.656  13.517  1.00  0.00    -0.389 OA
HETATM   26  H   UNL     1      42.142 -10.499  13.529  1.00  0.00     0.210 HD
ENDBRANCH   2  25
BRANCH   7  27
HETATM   27  O   UNL     1      40.515  -9.004   8.402  1.00  0.00    -0.343 OA
HETATM   28  H   UNL     1      39.743  -9.196   7.849  1.00  0.00     0.219 HD
ENDBRANCH   7  27
TORSDOF 6
ENDMDL
MODEL 9
REMARK VINA RESULT:      -6.9      4.528      6.424
REMARK  6 active torsions:
REMARK  status: ('A' for Active; 'I' for Inactive)
REMARK    1  A    between atoms: C_2  and  O_3 
REMARK    2  A    between atoms: O_3  and  C_4 
REMARK    3  A    between atoms: C_4  and  C_5 
REMARK    4  A    between atoms: C_6  and  O_7 
REMARK    5  A    between atoms: C_12  and  O_13 
REMARK    6  A    between atoms: C_17  and  C_18 
ROOT
HETATM    1  C   UNL     1      40.773 -13.757   1.640  1.00  0.00     0.133 C 
HETATM    2  C   UNL     1      40.270 -12.913   2.857  1.00  0.00     0.073 C 
HETATM    3  C   UNL     1      40.260 -13.710   4.171  1.00  0.00     0.047 C 
HETATM    4  C   UNL     1      41.027 -11.569   3.064  1.00  0.00     0.097 C 
HETATM    5  C   UNL     1      41.305 -10.937   1.751  1.00  0.00     0.042 A 
HETATM    6  C   UNL     1      41.286 -11.540   0.511  1.00  0.00     0.030 A 
HETATM    7  C   UNL     1      41.622 -10.492  -0.361  1.00  0.00     0.190 A 
HETATM    8  N   UNL     1      41.845  -9.337   0.254  1.00  0.00    -0.149 NA
HETATM    9  N   UNL     1      41.626  -9.626   1.548  1.00  0.00    -0.279 N 
HETATM   10  H   UNL     1      41.718  -8.880   2.230  1.00  0.00     0.189 HD
HETATM   11  C   UNL     1      40.998 -12.987   0.306  1.00  0.00     0.074 C 
ENDROOT
BRANCH  11  12
HETATM   12  C   UNL     1      39.821 -13.103  -0.654  1.00  0.00    -0.048 A 
HETATM   13  C   UNL     1      39.795 -14.186  -1.556  1.00  0.00     0.011 A 
HETATM   14  C   UNL     1      38.728 -14.360  -2.438  1.00  0.00     0.043 A 
HETATM   15  C   UNL     1      37.673 -13.459  -2.421  1.00  0.00     0.116 A 
HETATM   16  F   UNL     1      36.647 -13.629  -3.264  1.00  0.00    -0.206 F 
HETATM   17  C   UNL     1      37.665 -12.389  -1.537  1.00  0.00     0.043 A 
HETATM   18  C   UNL     1      38.733 -12.212  -0.655  1.00  0.00     0.011 A 
ENDBRANCH  11  12
BRANCH   1  19
HETATM   19  C   UNL     1      42.038 -14.549   1.901  1.00  0.00     0.267 C 
HETATM   20  O   UNL     1      43.140 -14.020   1.970  1.00  0.00    -0.265 OA
BRANCH  19  21
HETATM   21  O   UNL     1      41.800 -15.865   2.119  1.00  0.00    -0.316 OA
BRANCH  21  22
HETATM   22  C   UNL     1      42.826 -16.596   2.822  1.00  0.00     0.123 C 
HETATM   23  C   UNL     1      42.949 -18.004   2.250  1.00  0.00     0.040 C 
HETATM   24  C   UNL     1      42.408 -16.650   4.286  1.00  0.00     0.040 C 
ENDBRANCH  21  22
ENDBRANCH  19  21
ENDBRANCH   1  19
BRANCH   2  25
HETATM   25  O   UNL     1      38.883 -12.570   2.626  1.00  0.00    -0.389 OA
HETATM   26  H   UNL     1      38.440 -13.327   2.201  1.00  0.00     0.210 HD
ENDBRANCH   2  25
BRANCH   7  27
HETATM   27  O   UNL     1      41.731 -10.491  -1.690  1.00  0.00    -0.343 OA
HETATM   28  H   UNL     1      42.560 -10.923  -1.946  1.00  0.00     0.219 HD
ENDBRANCH   7  27
TORSDOF 6
ENDMDL
MODEL 10
REMARK VINA RESULT:      -6.6     14.568     17.215
REMARK  6 active torsions:
REMARK  status: ('A' for Active; 'I' for Inactive)
REMARK    1  A    between atoms: C_2  and  O_3 
REMARK    2  A    between atoms: O_3  and  C_4 
REMARK    3  A    between atoms: C_4  and  C_5 
REMARK    4  A    between atoms: C_6  and  O_7 
REMARK    5  A    between atoms: C_12  and  O_13 
REMARK    6  A    between atoms: C_17  and  C_18 
ROOT
HETATM    1  C   UNL     1      46.212 -29.984  -2.531  1.00  0.00     0.133 C 
HETATM    2  C   UNL     1      45.947 -28.450  -2.379  1.00  0.00     0.073 C 
HETATM    3  C   UNL     1      45.156 -27.862  -3.558  1.00  0.00     0.047 C 
HETATM    4  C   UNL     1      45.269 -28.046  -1.038  1.00  0.00     0.097 C 
HETATM    5  C   UNL     1      45.835 -28.844   0.078  1.00  0.00     0.042 A 
HETATM    6  C   UNL     1      46.547 -30.021  -0.014  1.00  0.00     0.030 A 
HETATM    7  C   UNL     1      46.826 -30.332   1.327  1.00  0.00     0.190 A 
HETATM    8  N   UNL     1      46.336 -29.453   2.192  1.00  0.00    -0.149 NA
HETATM    9  N   UNL     1      45.748 -28.536   1.405  1.00  0.00    -0.279 N 
HETATM   10  H   UNL     1      45.308 -27.735   1.845  1.00  0.00     0.189 HD
HETATM   11  C   UNL     1      46.838 -30.707  -1.303  1.00  0.00     0.074 C 
ENDROOT
BRANCH  11  12
HETATM   12  C   UNL     1      48.349 -30.874  -1.418  1.00  0.00    -0.048 A 
HETATM   13  C   UNL     1      48.848 -31.980  -2.135  1.00  0.00     0.011 A 
HETATM   14  C   UNL     1      50.221 -32.169  -2.299  1.00  0.00     0.043 A 
HETATM   15  C   UNL     1      51.107 -31.249  -1.756  1.00  0.00     0.116 A 
HETATM   16  F   UNL     1      52.424 -31.428  -1.917  1.00  0.00    -0.206 F 
HETATM   17  C   UNL     1      50.645 -30.144  -1.055  1.00  0.00     0.043 A 
HETATM   18  C   UNL     1      49.272 -29.955  -0.888  1.00  0.00     0.011 A 
ENDBRANCH  11  12
BRANCH   1  19
HETATM   19  C   UNL     1      45.000 -30.797  -2.938  1.00  0.00     0.267 C 
HETATM   20  O   UNL     1      43.909 -30.665  -2.396  1.00  0.00    -0.265 OA
BRANCH  19  21
HETATM   21  O   UNL     1      45.241 -31.609  -3.996  1.00  0.00    -0.316 OA
BRANCH  21  22
HETATM   22  C   UNL     1      45.417 -30.965  -5.274  1.00  0.00     0.123 C 
HETATM   23  C   UNL     1      44.066 -30.784  -5.959  1.00  0.00     0.040 C 
HETATM   24  C   UNL     1      46.319 -31.868  -6.106  1.00  0.00     0.040 C 
ENDBRANCH  21  22
ENDBRANCH  19  21
ENDBRANCH   1  19
BRANCH   2  25
HETATM   25  O   UNL     1      47.222 -27.766  -2.416  1.00  0.00    -0.389 OA
HETATM   26  H   UNL     1      47.063 -26.815  -2.555  1.00  0.00     0.210 HD
ENDBRANCH   2  25
BRANCH   7  27
HETATM   27  O   UNL     1      47.513 -31.355   1.839  1.00  0.00    -0.343 OA
HETATM   28  H   UNL     1      48.458 -31.225   1.672  1.00  0.00     0.219 HD
ENDBRANCH   7  27
TORSDOF 6
ENDMDL
