MODEL 1
REMARK VINA RESULT:      -8.7      0.000      0.000
REMARK  4 active torsions:
REMARK  status: ('A' for Active; 'I' for Inactive)
REMARK    1  A    between atoms: C_2  and  C_3 
REMARK       I    between atoms: C_3  and  N_4 
REMARK    2  A    between atoms: N_4  and  C_5 
REMARK    3  A    between atoms: C_12  and  C_13 
REMARK       I    between atoms: C_13  and  N_14 
REMARK    4  A    between atoms: C_19  and  C_20 
ROOT
HETATM    1  C   UNL     1      41.604 -14.609   2.564  1.00  0.00     0.036 A 
HETATM    2  C   UNL     1      41.543 -13.697   1.502  1.00  0.00     0.046 A 
HETATM    3  C   UNL     1      40.690 -13.961   0.408  1.00  0.00     0.030 A 
HETATM    4  C   UNL     1      39.911 -15.111   0.427  1.00  0.00     0.063 A 
HETATM    5  N   UNL     1      39.189 -15.080  -0.734  1.00  0.00    -0.277 N 
HETATM    6  H   UNL     1      38.506 -15.759  -1.049  1.00  0.00     0.189 HD
HETATM    7  N   UNL     1      39.452 -14.028  -1.525  1.00  0.00    -0.168 NA
HETATM    8  C   UNL     1      40.384 -13.330  -0.836  1.00  0.00     0.156 A 
HETATM    9  C   UNL     1      39.945 -16.039   1.470  1.00  0.00     0.034 A 
HETATM   10  C   UNL     1      40.819 -15.770   2.529  1.00  0.00     0.032 A 
ENDROOT
BRANCH   1  11
HETATM   11  N   UNL     1      42.440 -14.438   3.685  1.00  0.00    -0.323 N 
HETATM   12  C   UNL     1      42.080 -14.525   5.011  1.00  0.00     0.251 C 
HETATM   13  O   UNL     1      41.000 -14.842   5.488  1.00  0.00    -0.268 OA
HETATM   14  H   UNL     1      43.421 -14.278   3.497  1.00  0.00     0.169 HD
BRANCH  12  15
HETATM   15  C   UNL     1      43.236 -14.256   5.914  1.00  0.00     0.007 C 
HETATM   16  C   UNL     1      43.449 -12.810   6.235  1.00  0.00     0.054 C 
HETATM   17  C   UNL     1      44.023 -15.248   6.371  1.00  0.00     0.023 C 
BRANCH  17  18
HETATM   18  C   UNL     1      43.924 -16.674   6.033  1.00  0.00    -0.035 A 
HETATM   19  C   UNL     1      44.448 -17.182   4.837  1.00  0.00     0.013 A 
HETATM   20  C   UNL     1      44.386 -18.550   4.558  1.00  0.00     0.024 A 
HETATM   21  C   UNL     1      43.813 -19.418   5.484  1.00  0.00     0.034 A 
HETATM   22 CL   UNL     1      43.744 -21.104   5.150  1.00  0.00    -0.084 Cl
HETATM   23  C   UNL     1      43.302 -18.929   6.685  1.00  0.00     0.024 A 
HETATM   24  C   UNL     1      43.363 -17.560   6.961  1.00  0.00     0.013 A 
ENDBRANCH  17  18
ENDBRANCH  12  15
ENDBRANCH   1  11
BRANCH   8  25
HETATM   25  C   UNL     1      40.966 -12.097  -1.385  1.00  0.00     0.270 C 
HETATM   26  N   UNL     1      41.612 -12.269  -2.579  1.00  0.00    -0.365 N 
HETATM   27  H   UNL     1      41.663 -13.201  -2.972  1.00  0.00     0.159 HD
HETATM   28  H   UNL     1      42.078 -11.487  -3.011  1.00  0.00     0.159 HD
HETATM   29  O   UNL     1      40.916 -10.998  -0.843  1.00  0.00    -0.266 OA
ENDBRANCH   8  25
TORSDOF 4
ENDMDL
MODEL 2
REMARK VINA RESULT:      -8.2      3.209      4.501
REMARK  4 active torsions:
REMARK  status: ('A' for Active; 'I' for Inactive)
REMARK    1  A    between atoms: C_2  and  C_3 
REMARK       I    between atoms: C_3  and  N_4 
REMARK    2  A    between atoms: N_4  and  C_5 
REMARK    3  A    between atoms: C_12  and  C_13 
REMARK       I    between atoms: C_13  and  N_14 
REMARK    4  A    between atoms: C_19  and  C_20 
ROOT
HETATM    1  C   UNL     1      40.451 -14.632   1.047  1.00  0.00     0.036 A 
HETATM    2  C   UNL     1      39.920 -14.955  -0.209  1.00  0.00     0.046 A 
HETATM    3  C   UNL     1      39.311 -13.946  -0.987  1.00  0.00     0.030 A 
HETATM    4  C   UNL     1      39.279 -12.647  -0.494  1.00  0.00     0.063 A 
HETATM    5  N   UNL     1      38.659 -11.907  -1.462  1.00  0.00    -0.277 N 
HETATM    6  H   UNL     1      38.471 -10.911  -1.446  1.00  0.00     0.189 HD
HETATM    7  N   UNL     1      38.253 -12.613  -2.529  1.00  0.00    -0.168 NA
HETATM    8  C   UNL     1      38.643 -13.878  -2.247  1.00  0.00     0.156 A 
HETATM    9  C   UNL     1      39.801 -12.290   0.751  1.00  0.00     0.034 A 
HETATM   10  C   UNL     1      40.373 -13.313   1.515  1.00  0.00     0.032 A 
ENDROOT
BRANCH   1  11
HETATM   11  N   UNL     1      41.058 -15.576   1.899  1.00  0.00    -0.323 N 
HETATM   12  C   UNL     1      42.359 -16.023   1.852  1.00  0.00     0.251 C 
HETATM   13  O   UNL     1      43.269 -15.643   1.128  1.00  0.00    -0.268 OA
HETATM   14  H   UNL     1      40.488 -15.933   2.654  1.00  0.00     0.169 HD
BRANCH  12  15
HETATM   15  C   UNL     1      42.628 -17.046   2.903  1.00  0.00     0.007 C 
HETATM   16  C   UNL     1      42.969 -18.404   2.373  1.00  0.00     0.054 C 
HETATM   17  C   UNL     1      42.540 -16.754   4.214  1.00  0.00     0.023 C 
BRANCH  17  18
HETATM   18  C   UNL     1      42.132 -15.472   4.803  1.00  0.00    -0.035 A 
HETATM   19  C   UNL     1      42.962 -14.344   4.753  1.00  0.00     0.013 A 
HETATM   20  C   UNL     1      42.533 -13.122   5.275  1.00  0.00     0.024 A 
HETATM   21  C   UNL     1      41.263 -13.019   5.837  1.00  0.00     0.034 A 
HETATM   22 CL   UNL     1      40.726 -11.512   6.472  1.00  0.00    -0.084 Cl
HETATM   23  C   UNL     1      40.420 -14.127   5.880  1.00  0.00     0.024 A 
HETATM   24  C   UNL     1      40.852 -15.351   5.358  1.00  0.00     0.013 A 
ENDBRANCH  17  18
ENDBRANCH  12  15
ENDBRANCH   1  11
BRANCH   8  25
HETATM   25  C   UNL     1      38.356 -14.983  -3.172  1.00  0.00     0.270 C 
HETATM   26  N   UNL     1      38.272 -16.208  -2.568  1.00  0.00    -0.365 N 
HETATM   27  H   UNL     1      38.432 -16.267  -1.569  1.00  0.00     0.159 HD
HETATM   28  H   UNL     1      38.118 -17.031  -3.129  1.00  0.00     0.159 HD
HETATM   29  O   UNL     1      38.216 -14.863  -4.384  1.00  0.00    -0.266 OA
ENDBRANCH   8  25
TORSDOF 4
ENDMDL
MODEL 3
REMARK VINA RESULT:      -8.2      1.961      2.607
REMARK  4 active torsions:
REMARK  status: ('A' for Active; 'I' for Inactive)
REMARK    1  A    between atoms: C_2  and  C_3 
REMARK       I    between atoms: C_3  and  N_4 
REMARK    2  A    between atoms: N_4  and  C_5 
REMARK    3  A    between atoms: C_12  and  C_13 
REMARK       I    between atoms: C_13  and  N_14 
REMARK    4  A    between atoms: C_19  and  C_20 
ROOT
HETATM    1  C   UNL     1      40.893 -13.599   1.168  1.00  0.00     0.036 A 
HETATM    2  C   UNL     1      41.091 -12.377   0.513  1.00  0.00     0.046 A 
HETATM    3  C   UNL     1      40.657 -12.225  -0.822  1.00  0.00     0.030 A 
HETATM    4  C   UNL     1      40.019 -13.291  -1.445  1.00  0.00     0.063 A 
HETATM    5  N   UNL     1      39.703 -12.843  -2.698  1.00  0.00    -0.277 N 
HETATM    6  H   UNL     1      39.220 -13.353  -3.427  1.00  0.00     0.189 HD
HETATM    7  N   UNL     1      40.108 -11.590  -2.959  1.00  0.00    -0.168 NA
HETATM    8  C   UNL     1      40.706 -11.196  -1.811  1.00  0.00     0.156 A 
HETATM    9  C   UNL     1      39.804 -14.521  -0.821  1.00  0.00     0.034 A 
HETATM   10  C   UNL     1      40.268 -14.656   0.492  1.00  0.00     0.032 A 
ENDROOT
BRANCH   1  11
HETATM   11  N   UNL     1      41.311 -13.848   2.491  1.00  0.00    -0.323 N 
HETATM   12  C   UNL     1      42.601 -14.038   2.933  1.00  0.00     0.251 C 
HETATM   13  O   UNL     1      43.643 -13.953   2.300  1.00  0.00    -0.268 OA
HETATM   14  H   UNL     1      40.590 -13.842   3.200  1.00  0.00     0.169 HD
BRANCH  12  15
HETATM   15  C   UNL     1      42.645 -14.303   4.400  1.00  0.00     0.007 C 
HETATM   16  C   UNL     1      42.516 -13.080   5.255  1.00  0.00     0.054 C 
HETATM   17  C   UNL     1      42.813 -15.545   4.891  1.00  0.00     0.023 C 
BRANCH  17  18
HETATM   18  C   UNL     1      43.028 -16.773   4.116  1.00  0.00    -0.035 A 
HETATM   19  C   UNL     1      42.260 -17.068   2.981  1.00  0.00     0.013 A 
HETATM   20  C   UNL     1      42.515 -18.219   2.229  1.00  0.00     0.024 A 
HETATM   21  C   UNL     1      43.550 -19.072   2.602  1.00  0.00     0.034 A 
HETATM   22 CL   UNL     1      43.874 -20.483   1.673  1.00  0.00    -0.084 Cl
HETATM   23  C   UNL     1      44.332 -18.784   3.719  1.00  0.00     0.024 A 
HETATM   24  C   UNL     1      44.075 -17.633   4.471  1.00  0.00     0.013 A 
ENDBRANCH  17  18
ENDBRANCH  12  15
ENDBRANCH   1  11
BRANCH   8  25
HETATM   25  C   UNL     1      41.319  -9.866  -1.693  1.00  0.00     0.270 C 
HETATM   26  N   UNL     1      40.571  -8.857  -2.236  1.00  0.00    -0.365 N 
HETATM   27  H   UNL     1      39.694  -9.092  -2.685  1.00  0.00     0.159 HD
HETATM   28  H   UNL     1      40.930  -7.915  -2.238  1.00  0.00     0.159 HD
HETATM   29  O   UNL     1      42.410  -9.641  -1.179  1.00  0.00    -0.266 OA
ENDBRANCH   8  25
TORSDOF 4
ENDMDL
MODEL 4
REMARK VINA RESULT:      -8.1      2.238      3.258
REMARK  4 active torsions:
REMARK  status: ('A' for Active; 'I' for Inactive)
REMARK    1  A    between atoms: C_2  and  C_3 
REMARK       I    between atoms: C_3  and  N_4 
REMARK    2  A    between atoms: N_4  and  C_5 
REMARK    3  A    between atoms: C_12  and  C_13 
REMARK       I    between atoms: C_13  and  N_14 
REMARK    4  A    between atoms: C_19  and  C_20 
ROOT
HETATM    1  C   UNL     1      40.807 -13.311   1.147  1.00  0.00     0.036 A 
HETATM    2  C   UNL     1      40.189 -14.115   0.179  1.00  0.00     0.046 A 
HETATM    3  C   UNL     1      40.063 -13.637  -1.144  1.00  0.00     0.030 A 
HETATM    4  C   UNL     1      40.580 -12.386  -1.457  1.00  0.00     0.063 A 
HETATM    5  N   UNL     1      40.329 -12.213  -2.790  1.00  0.00    -0.277 N 
HETATM    6  H   UNL     1      40.578 -11.414  -3.362  1.00  0.00     0.189 HD
HETATM    7  N   UNL     1      39.665 -13.226  -3.368  1.00  0.00    -0.168 NA
HETATM    8  C   UNL     1      39.486 -14.112  -2.361  1.00  0.00     0.156 A 
HETATM    9  C   UNL     1      41.203 -11.561  -0.519  1.00  0.00     0.034 A 
HETATM   10  C   UNL     1      41.291 -12.045   0.791  1.00  0.00     0.032 A 
ENDROOT
BRANCH   1  11
HETATM   11  N   UNL     1      40.959 -13.697   2.493  1.00  0.00    -0.323 N 
HETATM   12  C   UNL     1      42.140 -13.907   3.169  1.00  0.00     0.251 C 
HETATM   13  O   UNL     1      43.284 -13.728   2.777  1.00  0.00    -0.268 OA
HETATM   14  H   UNL     1      40.110 -13.787   3.035  1.00  0.00     0.169 HD
BRANCH  12  15
HETATM   15  C   UNL     1      41.899 -14.334   4.578  1.00  0.00     0.007 C 
HETATM   16  C   UNL     1      41.452 -13.235   5.490  1.00  0.00     0.054 C 
HETATM   17  C   UNL     1      42.098 -15.604   4.977  1.00  0.00     0.023 C 
BRANCH  17  18
HETATM   18  C   UNL     1      42.612 -16.710   4.160  1.00  0.00    -0.035 A 
HETATM   19  C   UNL     1      43.663 -17.524   4.605  1.00  0.00     0.013 A 
HETATM   20  C   UNL     1      44.103 -18.602   3.833  1.00  0.00     0.024 A 
HETATM   21  C   UNL     1      43.484 -18.880   2.618  1.00  0.00     0.034 A 
HETATM   22 CL   UNL     1      44.015 -20.213   1.669  1.00  0.00    -0.084 Cl
HETATM   23  C   UNL     1      42.427 -18.089   2.169  1.00  0.00     0.024 A 
HETATM   24  C   UNL     1      41.989 -17.009   2.942  1.00  0.00     0.013 A 
ENDBRANCH  17  18
ENDBRANCH  12  15
ENDBRANCH   1  11
BRANCH   8  25
HETATM   25  C   UNL     1      38.761 -15.371  -2.579  1.00  0.00     0.270 C 
HETATM   26  N   UNL     1      38.159 -15.464  -3.804  1.00  0.00    -0.365 N 
HETATM   27  H   UNL     1      38.232 -14.678  -4.439  1.00  0.00     0.159 HD
HETATM   28  H   UNL     1      37.605 -16.275  -4.028  1.00  0.00     0.159 HD
HETATM   29  O   UNL     1      38.665 -16.276  -1.755  1.00  0.00    -0.266 OA
ENDBRANCH   8  25
TORSDOF 4
ENDMDL
MODEL 5
REMARK VINA RESULT:      -8.0      4.044      7.094
REMARK  4 active torsions:
REMARK  status: ('A' for Active; 'I' for Inactive)
REMARK    1  A    between atoms: C_2  and  C_3 
REMARK       I    between atoms: C_3  and  N_4 
REMARK    2  A    between atoms: N_4  and  C_5 
REMARK    3  A    between atoms: C_12  and  C_13 
REMARK       I    between atoms: C_13  and  N_14 
REMARK    4  A    between atoms: C_19  and  C_20 
ROOT
HETATM    1  C   UNL     1      42.938 -13.449   5.760  1.00  0.00     0.036 A 
HETATM    2  C   UNL     1      43.824 -12.749   6.589  1.00  0.00     0.046 A 
HETATM    3  C   UNL     1      43.519 -11.425   6.972  1.00  0.00     0.030 A 
HETATM    4  C   UNL     1      42.329 -10.857   6.534  1.00  0.00     0.063 A 
HETATM    5  N   UNL     1      42.305  -9.602   7.074  1.00  0.00    -0.277 N 
HETATM    6  H   UNL     1      41.576  -8.905   6.973  1.00  0.00     0.189 HD
HETATM    7  N   UNL     1      43.389  -9.287   7.800  1.00  0.00    -0.168 NA
HETATM    8  C   UNL     1      44.154 -10.402   7.741  1.00  0.00     0.156 A 
HETATM    9  C   UNL     1      41.423 -11.526   5.709  1.00  0.00     0.034 A 
HETATM   10  C   UNL     1      41.761 -12.828   5.320  1.00  0.00     0.032 A 
ENDROOT
BRANCH   1  11
HETATM   11  N   UNL     1      43.170 -14.765   5.312  1.00  0.00    -0.323 N 
HETATM   12  C   UNL     1      42.490 -15.902   5.687  1.00  0.00     0.251 C 
HETATM   13  O   UNL     1      41.509 -15.999   6.410  1.00  0.00    -0.268 OA
HETATM   14  H   UNL     1      43.884 -14.882   4.605  1.00  0.00     0.169 HD
BRANCH  12  15
HETATM   15  C   UNL     1      43.040 -17.117   5.019  1.00  0.00     0.007 C 
HETATM   16  C   UNL     1      43.853 -18.001   5.913  1.00  0.00     0.054 C 
HETATM   17  C   UNL     1      42.829 -17.363   3.713  1.00  0.00     0.023 C 
BRANCH  17  18
HETATM   18  C   UNL     1      42.116 -16.502   2.761  1.00  0.00    -0.035 A 
HETATM   19  C   UNL     1      42.801 -15.726   1.816  1.00  0.00     0.013 A 
HETATM   20  C   UNL     1      42.100 -14.952   0.888  1.00  0.00     0.024 A 
HETATM   21  C   UNL     1      40.708 -14.963   0.891  1.00  0.00     0.034 A 
HETATM   22 CL   UNL     1      39.841 -14.020  -0.257  1.00  0.00    -0.084 Cl
HETATM   23  C   UNL     1      40.012 -15.741   1.814  1.00  0.00     0.024 A 
HETATM   24  C   UNL     1      40.715 -16.514   2.744  1.00  0.00     0.013 A 
ENDBRANCH  17  18
ENDBRANCH  12  15
ENDBRANCH   1  11
BRANCH   8  25
HETATM   25  C   UNL     1      45.466 -10.457   8.399  1.00  0.00     0.270 C 
HETATM   26  N   UNL     1      46.512 -10.106   7.589  1.00  0.00    -0.365 N 
HETATM   27  H   UNL     1      46.317  -9.867   6.624  1.00  0.00     0.159 HD
HETATM   28  H   UNL     1      47.454 -10.153   7.942  1.00  0.00     0.159 HD
HETATM   29  O   UNL     1      45.653 -10.799   9.562  1.00  0.00    -0.266 OA
ENDBRANCH   8  25
TORSDOF 4
ENDMDL
MODEL 6
REMARK VINA RESULT:      -7.9      3.781      6.880
REMARK  4 active torsions:
REMARK  status: ('A' for Active; 'I' for Inactive)
REMARK    1  A    between atoms: C_2  and  C_3 
REMARK       I    between atoms: C_3  and  N_4 
REMARK    2  A    between atoms: N_4  and  C_5 
REMARK    3  A    between atoms: C_12  and  C_13 
REMARK       I    between atoms: C_13  and  N_14 
REMARK    4  A    between atoms: C_19  and  C_20 
ROOT
HETATM    1  C   UNL     1      42.456 -12.221   5.768  1.00  0.00     0.036 A 
HETATM    2  C   UNL     1      42.312 -10.933   6.299  1.00  0.00     0.046 A 
HETATM    3  C   UNL     1      43.334 -10.398   7.113  1.00  0.00     0.030 A 
HETATM    4  C   UNL     1      44.473 -11.158   7.346  1.00  0.00     0.063 A 
HETATM    5  N   UNL     1      45.274 -10.381   8.134  1.00  0.00    -0.277 N 
HETATM    6  H   UNL     1      46.194 -10.613   8.492  1.00  0.00     0.189 HD
HETATM    7  N   UNL     1      44.745  -9.192   8.465  1.00  0.00    -0.168 NA
HETATM    8  C   UNL     1      43.542  -9.190   7.846  1.00  0.00     0.156 A 
HETATM    9  C   UNL     1      44.650 -12.444   6.831  1.00  0.00     0.034 A 
HETATM   10  C   UNL     1      43.611 -12.963   6.050  1.00  0.00     0.032 A 
ENDROOT
BRANCH   1  11
HETATM   11  N   UNL     1      41.480 -12.842   4.963  1.00  0.00    -0.323 N 
HETATM   12  C   UNL     1      41.490 -12.966   3.592  1.00  0.00     0.251 C 
HETATM   13  O   UNL     1      42.367 -12.642   2.804  1.00  0.00    -0.268 OA
HETATM   14  H   UNL     1      40.710 -13.284   5.448  1.00  0.00     0.169 HD
BRANCH  12  15
HETATM   15  C   UNL     1      40.269 -13.664   3.094  1.00  0.00     0.007 C 
HETATM   16  C   UNL     1      39.097 -12.765   2.850  1.00  0.00     0.054 C 
HETATM   17  C   UNL     1      40.241 -14.997   2.910  1.00  0.00     0.023 C 
BRANCH  17  18
HETATM   18  C   UNL     1      41.321 -15.947   3.206  1.00  0.00    -0.035 A 
HETATM   19  C   UNL     1      42.162 -16.439   2.198  1.00  0.00     0.013 A 
HETATM   20  C   UNL     1      43.215 -17.303   2.510  1.00  0.00     0.024 A 
HETATM   21  C   UNL     1      43.440 -17.668   3.835  1.00  0.00     0.034 A 
HETATM   22 CL   UNL     1      44.742 -18.722   4.224  1.00  0.00    -0.084 Cl
HETATM   23  C   UNL     1      42.623 -17.174   4.849  1.00  0.00     0.024 A 
HETATM   24  C   UNL     1      41.568 -16.311   4.536  1.00  0.00     0.013 A 
ENDBRANCH  17  18
ENDBRANCH  12  15
ENDBRANCH   1  11
BRANCH   8  25
HETATM   25  C   UNL     1      42.621  -8.053   7.983  1.00  0.00     0.270 C 
HETATM   26  N   UNL     1      41.508  -8.323   8.733  1.00  0.00    -0.365 N 
HETATM   27  H   UNL     1      41.391  -9.258   9.104  1.00  0.00     0.159 HD
HETATM   28  H   UNL     1      40.800  -7.615   8.848  1.00  0.00     0.159 HD
HETATM   29  O   UNL     1      42.788  -6.951   7.472  1.00  0.00    -0.266 OA
ENDBRANCH   8  25
TORSDOF 4
ENDMDL
MODEL 7
REMARK VINA RESULT:      -7.8      2.404      3.144
REMARK  4 active torsions:
REMARK  status: ('A' for Active; 'I' for Inactive)
REMARK    1  A    between atoms: C_2  and  C_3 
REMARK       I    between atoms: C_3  and  N_4 
REMARK    2  A    between atoms: N_4  and  C_5 
REMARK    3  A    between atoms: C_12  and  C_13 
REMARK       I    between atoms: C_13  and  N_14 
REMARK    4  A    between atoms: C_19  and  C_20 
ROOT
HETATM    1  C   UNL     1      40.141 -12.123   1.739  1.00  0.00     0.036 A 
HETATM    2  C   UNL     1      40.116 -12.850   0.542  1.00  0.00     0.046 A 
HETATM    3  C   UNL     1      39.064 -12.643  -0.376  1.00  0.00     0.030 A 
HETATM    4  C   UNL     1      38.089 -11.699  -0.077  1.00  0.00     0.063 A 
HETATM    5  N   UNL     1      37.234 -11.709  -1.144  1.00  0.00    -0.277 N 
HETATM    6  H   UNL     1      36.408 -11.135  -1.273  1.00  0.00     0.189 HD
HETATM    7  N   UNL     1      37.545 -12.599  -2.098  1.00  0.00    -0.168 NA
HETATM    8  C   UNL     1      38.671 -13.191  -1.635  1.00  0.00     0.156 A 
HETATM    9  C   UNL     1      38.085 -10.954   1.104  1.00  0.00     0.034 A 
HETATM   10  C   UNL     1      39.123 -11.198   2.011  1.00  0.00     0.032 A 
ENDROOT
BRANCH   1  11
HETATM   11  N   UNL     1      41.140 -12.278   2.721  1.00  0.00    -0.323 N 
HETATM   12  C   UNL     1      41.086 -13.075   3.842  1.00  0.00     0.251 C 
HETATM   13  O   UNL     1      40.213 -13.864   4.174  1.00  0.00    -0.268 OA
HETATM   14  H   UNL     1      42.008 -11.784   2.564  1.00  0.00     0.169 HD
BRANCH  12  15
HETATM   15  C   UNL     1      42.326 -12.957   4.661  1.00  0.00     0.007 C 
HETATM   16  C   UNL     1      42.498 -11.633   5.337  1.00  0.00     0.054 C 
HETATM   17  C   UNL     1      43.215 -13.964   4.751  1.00  0.00     0.023 C 
BRANCH  17  18
HETATM   18  C   UNL     1      43.152 -15.255   4.052  1.00  0.00    -0.035 A 
HETATM   19  C   UNL     1      43.199 -15.335   2.653  1.00  0.00     0.013 A 
HETATM   20  C   UNL     1      43.187 -16.576   2.011  1.00  0.00     0.024 A 
HETATM   21  C   UNL     1      43.145 -17.744   2.768  1.00  0.00     0.034 A 
HETATM   22 CL   UNL     1      43.142 -19.274   1.982  1.00  0.00    -0.084 Cl
HETATM   23  C   UNL     1      43.114 -17.681   4.160  1.00  0.00     0.024 A 
HETATM   24  C   UNL     1      43.123 -16.438   4.801  1.00  0.00     0.013 A 
ENDBRANCH  17  18
ENDBRANCH  12  15
ENDBRANCH   1  11
BRANCH   8  25
HETATM   25  C   UNL     1      39.329 -14.266  -2.390  1.00  0.00     0.270 C 
HETATM   26  N   UNL     1      38.662 -15.461  -2.355  1.00  0.00    -0.365 N 
HETATM   27  H   UNL     1      37.810 -15.523  -1.811  1.00  0.00     0.159 HD
HETATM   28  H   UNL     1      39.059 -16.267  -2.811  1.00  0.00     0.159 HD
HETATM   29  O   UNL     1      40.389 -14.149  -2.996  1.00  0.00    -0.266 OA
ENDBRANCH   8  25
TORSDOF 4
ENDMDL
MODEL 8
REMARK VINA RESULT:      -7.8      2.815      3.588
REMARK  4 active torsions:
REMARK  status: ('A' for Active; 'I' for Inactive)
REMARK    1  A    between atoms: C_2  and  C_3 
REMARK       I    between atoms: C_3  and  N_4 
REMARK    2  A    between atoms: N_4  and  C_5 
REMARK    3  A    between atoms: C_12  and  C_13 
REMARK       I    between atoms: C_13  and  N_14 
REMARK    4  A    between atoms: C_19  and  C_20 
ROOT
HETATM    1  C   UNL     1      40.150 -12.971   0.182  1.00  0.00     0.036 A 
HETATM    2  C   UNL     1      39.278 -11.978  -0.283  1.00  0.00     0.046 A 
HETATM    3  C   UNL     1      38.349 -12.289  -1.300  1.00  0.00     0.030 A 
HETATM    4  C   UNL     1      38.307 -13.587  -1.795  1.00  0.00     0.063 A 
HETATM    5  N   UNL     1      37.312 -13.585  -2.733  1.00  0.00    -0.277 N 
HETATM    6  H   UNL     1      36.995 -14.369  -3.292  1.00  0.00     0.189 HD
HETATM    7  N   UNL     1      36.723 -12.393  -2.918  1.00  0.00    -0.168 NA
HETATM    8  C   UNL     1      37.358 -11.579  -2.043  1.00  0.00     0.156 A 
HETATM    9  C   UNL     1      39.158 -14.601  -1.352  1.00  0.00     0.034 A 
HETATM   10  C   UNL     1      40.090 -14.260  -0.365  1.00  0.00     0.032 A 
ENDROOT
BRANCH   1  11
HETATM   11  N   UNL     1      41.122 -12.746   1.177  1.00  0.00    -0.323 N 
HETATM   12  C   UNL     1      40.968 -12.893   2.538  1.00  0.00     0.251 C 
HETATM   13  O   UNL     1      40.001 -13.320   3.153  1.00  0.00    -0.268 OA
HETATM   14  H   UNL     1      42.046 -12.490   0.856  1.00  0.00     0.169 HD
BRANCH  12  15
HETATM   15  C   UNL     1      42.214 -12.536   3.274  1.00  0.00     0.007 C 
HETATM   16  C   UNL     1      42.347 -11.081   3.599  1.00  0.00     0.054 C 
HETATM   17  C   UNL     1      43.141 -13.461   3.589  1.00  0.00     0.023 C 
BRANCH  17  18
HETATM   18  C   UNL     1      43.116 -14.885   3.232  1.00  0.00    -0.035 A 
HETATM   19  C   UNL     1      43.367 -15.318   1.923  1.00  0.00     0.013 A 
HETATM   20  C   UNL     1      43.387 -16.681   1.616  1.00  0.00     0.024 A 
HETATM   21  C   UNL     1      43.170 -17.618   2.622  1.00  0.00     0.034 A 
HETATM   22 CL   UNL     1      43.205 -19.298   2.251  1.00  0.00    -0.084 Cl
HETATM   23  C   UNL     1      42.935 -17.204   3.932  1.00  0.00     0.024 A 
HETATM   24  C   UNL     1      42.913 -15.839   4.237  1.00  0.00     0.013 A 
ENDBRANCH  17  18
ENDBRANCH  12  15
ENDBRANCH   1  11
BRANCH   8  25
HETATM   25  C   UNL     1      37.018 -10.152  -1.952  1.00  0.00     0.270 C 
HETATM   26  N   UNL     1      35.683  -9.907  -1.775  1.00  0.00    -0.365 N 
HETATM   27  H   UNL     1      35.047 -10.694  -1.747  1.00  0.00     0.159 HD
HETATM   28  H   UNL     1      35.351  -8.956  -1.742  1.00  0.00     0.159 HD
HETATM   29  O   UNL     1      37.826  -9.233  -2.039  1.00  0.00    -0.266 OA
ENDBRANCH   8  25
TORSDOF 4
ENDMDL
MODEL 9
REMARK VINA RESULT:      -7.8      3.950      7.676
REMARK  4 active torsions:
REMARK  status: ('A' for Active; 'I' for Inactive)
REMARK    1  A    between atoms: C_2  and  C_3 
REMARK       I    between atoms: C_3  and  N_4 
REMARK    2  A    between atoms: N_4  and  C_5 
REMARK    3  A    between atoms: C_12  and  C_13 
REMARK       I    between atoms: C_13  and  N_14 
REMARK    4  A    between atoms: C_19  and  C_20 
ROOT
HETATM    1  C   UNL     1      43.035 -11.272   5.502  1.00  0.00     0.036 A 
HETATM    2  C   UNL     1      42.774 -10.833   6.807  1.00  0.00     0.046 A 
HETATM    3  C   UNL     1      43.843 -10.685   7.718  1.00  0.00     0.030 A 
HETATM    4  C   UNL     1      45.135 -10.955   7.284  1.00  0.00     0.063 A 
HETATM    5  N   UNL     1      45.939 -10.706   8.362  1.00  0.00    -0.277 N 
HETATM    6  H   UNL     1      46.948 -10.787   8.406  1.00  0.00     0.189 HD
HETATM    7  N   UNL     1      45.283 -10.328   9.470  1.00  0.00    -0.168 NA
HETATM    8  C   UNL     1      43.984 -10.317   9.090  1.00  0.00     0.156 A 
HETATM    9  C   UNL     1      45.431 -11.391   5.991  1.00  0.00     0.034 A 
HETATM   10  C   UNL     1      44.352 -11.557   5.116  1.00  0.00     0.032 A 
ENDROOT
BRANCH   1  11
HETATM   11  N   UNL     1      42.030 -11.467   4.534  1.00  0.00    -0.323 N 
HETATM   12  C   UNL     1      40.972 -12.345   4.600  1.00  0.00     0.251 C 
HETATM   13  O   UNL     1      40.639 -13.068   5.528  1.00  0.00    -0.268 OA
HETATM   14  H   UNL     1      42.064 -10.867   3.721  1.00  0.00     0.169 HD
BRANCH  12  15
HETATM   15  C   UNL     1      40.132 -12.288   3.369  1.00  0.00     0.007 C 
HETATM   16  C   UNL     1      39.155 -11.154   3.337  1.00  0.00     0.054 C 
HETATM   17  C   UNL     1      40.244 -13.206   2.391  1.00  0.00     0.023 C 
BRANCH  17  18
HETATM   18  C   UNL     1      41.118 -14.386   2.392  1.00  0.00    -0.035 A 
HETATM   19  C   UNL     1      42.408 -14.344   1.846  1.00  0.00     0.013 A 
HETATM   20  C   UNL     1      43.241 -15.465   1.902  1.00  0.00     0.024 A 
HETATM   21  C   UNL     1      42.790 -16.630   2.518  1.00  0.00     0.034 A 
HETATM   22 CL   UNL     1      43.816 -18.009   2.599  1.00  0.00    -0.084 Cl
HETATM   23  C   UNL     1      41.515 -16.682   3.079  1.00  0.00     0.024 A 
HETATM   24  C   UNL     1      40.683 -15.560   3.020  1.00  0.00     0.013 A 
ENDBRANCH  17  18
ENDBRANCH  12  15
ENDBRANCH   1  11
BRANCH   8  25
HETATM   25  C   UNL     1      42.918  -9.976  10.042  1.00  0.00     0.270 C 
HETATM   26  N   UNL     1      42.929 -10.729  11.185  1.00  0.00    -0.365 N 
HETATM   27  H   UNL     1      43.627 -11.456  11.278  1.00  0.00     0.159 HD
HETATM   28  H   UNL     1      42.210 -10.593  11.878  1.00  0.00     0.159 HD
HETATM   29  O   UNL     1      42.066  -9.113   9.859  1.00  0.00    -0.266 OA
ENDBRANCH   8  25
TORSDOF 4
ENDMDL
MODEL 10
REMARK VINA RESULT:      -7.8      4.029      7.207
REMARK  4 active torsions:
REMARK  status: ('A' for Active; 'I' for Inactive)
REMARK    1  A    between atoms: C_2  and  C_3 
REMARK       I    between atoms: C_3  and  N_4 
REMARK    2  A    between atoms: N_4  and  C_5 
REMARK    3  A    between atoms: C_12  and  C_13 
REMARK       I    between atoms: C_13  and  N_14 
REMARK    4  A    between atoms: C_19  and  C_20 
ROOT
HETATM    1  C   UNL     1      43.337 -15.900   4.754  1.00  0.00     0.036 A 
HETATM    2  C   UNL     1      43.404 -17.111   4.054  1.00  0.00     0.046 A 
HETATM    3  C   UNL     1      43.531 -18.322   4.769  1.00  0.00     0.030 A 
HETATM    4  C   UNL     1      43.561 -18.280   6.158  1.00  0.00     0.063 A 
HETATM    5  N   UNL     1      43.666 -19.584   6.558  1.00  0.00    -0.277 N 
HETATM    6  H   UNL     1      43.704 -19.932   7.509  1.00  0.00     0.189 HD
HETATM    7  N   UNL     1      43.741 -20.470   5.553  1.00  0.00    -0.168 NA
HETATM    8  C   UNL     1      43.666 -19.705   4.439  1.00  0.00     0.156 A 
HETATM    9  C   UNL     1      43.494 -17.092   6.887  1.00  0.00     0.034 A 
HETATM   10  C   UNL     1      43.397 -15.903   6.155  1.00  0.00     0.032 A 
ENDROOT
BRANCH   1  11
HETATM   11  N   UNL     1      43.230 -14.644   4.124  1.00  0.00    -0.323 N 
HETATM   12  C   UNL     1      42.225 -13.717   4.285  1.00  0.00     0.251 C 
HETATM   13  O   UNL     1      41.275 -13.749   5.053  1.00  0.00    -0.268 OA
HETATM   14  H   UNL     1      43.997 -14.375   3.522  1.00  0.00     0.169 HD
BRANCH  12  15
HETATM   15  C   UNL     1      42.444 -12.515   3.429  1.00  0.00     0.007 C 
HETATM   16  C   UNL     1      41.969 -12.665   2.017  1.00  0.00     0.054 C 
HETATM   17  C   UNL     1      43.043 -11.407   3.903  1.00  0.00     0.023 C 
BRANCH  17  18
HETATM   18  C   UNL     1      43.605 -11.220   5.247  1.00  0.00    -0.035 A 
HETATM   19  C   UNL     1      44.945 -11.519   5.530  1.00  0.00     0.013 A 
HETATM   20  C   UNL     1      45.472 -11.287   6.803  1.00  0.00     0.024 A 
HETATM   21  C   UNL     1      44.663 -10.740   7.796  1.00  0.00     0.034 A 
HETATM   22 CL   UNL     1      45.310 -10.442   9.361  1.00  0.00    -0.084 Cl
HETATM   23  C   UNL     1      43.333 -10.423   7.525  1.00  0.00     0.024 A 
HETATM   24  C   UNL     1      42.807 -10.658   6.251  1.00  0.00     0.013 A 
ENDBRANCH  17  18
ENDBRANCH  12  15
ENDBRANCH   1  11
BRANCH   8  25
HETATM   25  C   UNL     1      43.741 -20.305   3.100  1.00  0.00     0.270 C 
HETATM   26  N   UNL     1      43.295 -19.488   2.097  1.00  0.00    -0.365 N 
HETATM   27  H   UNL     1      42.935 -18.574   2.342  1.00  0.00     0.159 HD
HETATM   28  H   UNL     1      43.271 -19.830   1.149  1.00  0.00     0.159 HD
HETATM   29  O   UNL     1      44.144 -21.439   2.863  1.00  0.00    -0.266 OA
ENDBRANCH   8  25
TORSDOF 4
ENDMDL
