MODEL 1
REMARK VINA RESULT:      -9.2      0.000      0.000
REMARK  7 active torsions:
REMARK  status: ('A' for Active; 'I' for Inactive)
REMARK    1  A    between atoms: C_2  and  C_3 
REMARK    2  A    between atoms: C_3  and  C_4 
REMARK    3  A    between atoms: C_7  and  C_8 
REMARK    4  A    between atoms: C_10  and  C_11 
REMARK    5  A    between atoms: C_14  and  N_15 
REMARK    6  A    between atoms: N_15  and  C_16 
REMARK    7  A    between atoms: C_17  and  C_18 
ROOT
HETATM    1  C   UNL     1      43.040 -11.732   5.271  1.00  0.00     0.082 C 
HETATM    2  C   UNL     1      42.350 -10.645   4.462  1.00  0.00     0.024 C 
HETATM    3  N   UNL     1      41.779  -9.744   3.791  1.00  0.00    -0.096 N 
HETATM    4  C   UNL     1      43.045 -13.026   4.897  1.00  0.00     0.113 C 
ENDROOT
BRANCH   1   5
HETATM    5  C   UNL     1      43.772 -11.328   6.427  1.00  0.00     0.119 A 
HETATM    6  N   UNL     1      43.262 -10.909   7.568  1.00  0.00    -0.239 NA
HETATM    7  C   UNL     1      44.256 -10.466   8.435  1.00  0.00     0.075 A 
HETATM    8  C   UNL     1      45.540 -10.684   7.977  1.00  0.00     0.084 A 
HETATM    9  S   UNL     1      45.505 -11.364   6.407  1.00  0.00    -0.078 SA
BRANCH   7  10
HETATM   10  C   UNL     1      43.918  -9.819   9.703  1.00  0.00    -0.007 A 
HETATM   11  C   UNL     1      43.853 -10.589  10.874  1.00  0.00     0.014 A 
HETATM   12  C   UNL     1      43.499 -10.011  12.098  1.00  0.00     0.008 A 
HETATM   13  C   UNL     1      43.196  -8.648  12.180  1.00  0.00    -0.058 A 
HETATM   14  C   UNL     1      43.255  -7.875  11.014  1.00  0.00     0.008 A 
HETATM   15  C   UNL     1      43.610  -8.454   9.791  1.00  0.00     0.014 A 
BRANCH  13  16
HETATM   16  C   UNL     1      42.809  -8.020  13.497  1.00  0.00     0.042 C 
BRANCH  16  17
HETATM   17  C   UNL     1      41.742  -8.817  14.272  1.00  0.00    -0.019 C 
HETATM   18  C   UNL     1      40.443  -8.957  13.474  1.00  0.00     0.010 C 
HETATM   19  C   UNL     1      41.456  -8.134  15.611  1.00  0.00     0.010 C 
ENDBRANCH  16  17
ENDBRANCH  13  16
ENDBRANCH   7  10
ENDBRANCH   1   5
BRANCH   4  20
HETATM   20  N   UNL     1      42.422 -13.710   3.860  1.00  0.00    -0.364 N 
HETATM   21  H   UNL     1      41.459 -13.397   3.726  1.00  0.00     0.165 HD
BRANCH  20  22
HETATM   22  C   UNL     1      42.567 -15.110   3.678  1.00  0.00     0.048 A 
HETATM   23  C   UNL     1      42.141 -15.759   2.485  1.00  0.00     0.039 A 
HETATM   24  C   UNL     1      42.469 -17.100   2.230  1.00  0.00     0.057 A 
HETATM   25  C   UNL     1      43.201 -17.770   3.182  1.00  0.00     0.106 A 
HETATM   26  C   UNL     1      43.590 -17.166   4.353  1.00  0.00     0.107 A 
HETATM   27  O   UNL     1      43.621 -19.059   3.098  1.00  0.00    -0.323 OA
HETATM   28  O   UNL     1      44.310 -18.000   5.151  1.00  0.00    -0.323 OA
HETATM   29  C   UNL     1      43.287 -15.847   4.634  1.00  0.00     0.070 A 
HETATM   30  C   UNL     1      44.401 -19.168   4.306  1.00  0.00     0.352 A 
BRANCH  23  31
HETATM   31  C   UNL     1      41.299 -15.081   1.468  1.00  0.00     0.158 C 
HETATM   32  C   UNL     1      39.969 -15.692   1.103  1.00  0.00     0.097 C 
HETATM   33  O   UNL     1      41.725 -14.076   0.904  1.00  0.00    -0.293 OA
ENDBRANCH  23  31
ENDBRANCH  20  22
ENDBRANCH   4  20
TORSDOF 7
ENDMDL
MODEL 2
REMARK VINA RESULT:      -8.9      3.763     10.227
REMARK  7 active torsions:
REMARK  status: ('A' for Active; 'I' for Inactive)
REMARK    1  A    between atoms: C_2  and  C_3 
REMARK    2  A    between atoms: C_3  and  C_4 
REMARK    3  A    between atoms: C_7  and  C_8 
REMARK    4  A    between atoms: C_10  and  C_11 
REMARK    5  A    between atoms: C_14  and  N_15 
REMARK    6  A    between atoms: N_15  and  C_16 
REMARK    7  A    between atoms: C_17  and  C_18 
ROOT
HETATM    1  C   UNL     1      40.990 -10.666   5.711  1.00  0.00     0.082 C 
HETATM    2  C   UNL     1      39.761  -9.781   5.844  1.00  0.00     0.024 C 
HETATM    3  N   UNL     1      38.742  -9.046   5.954  1.00  0.00    -0.096 N 
HETATM    4  C   UNL     1      42.130 -10.437   6.391  1.00  0.00     0.113 C 
ENDROOT
BRANCH   1   5
HETATM    5  C   UNL     1      40.879 -11.825   4.887  1.00  0.00     0.119 A 
HETATM    6  N   UNL     1      41.608 -12.921   4.977  1.00  0.00    -0.239 NA
HETATM    7  C   UNL     1      41.330 -13.800   3.935  1.00  0.00     0.075 A 
HETATM    8  C   UNL     1      40.280 -13.406   3.131  1.00  0.00     0.084 A 
HETATM    9  S   UNL     1      39.693 -11.876   3.624  1.00  0.00    -0.078 SA
BRANCH   7  10
HETATM   10  C   UNL     1      42.121 -15.016   3.743  1.00  0.00    -0.007 A 
HETATM   11  C   UNL     1      42.410 -15.452   2.443  1.00  0.00     0.014 A 
HETATM   12  C   UNL     1      43.134 -16.629   2.220  1.00  0.00     0.008 A 
HETATM   13  C   UNL     1      43.582 -17.402   3.297  1.00  0.00    -0.058 A 
HETATM   14  C   UNL     1      43.294 -16.974   4.598  1.00  0.00     0.008 A 
HETATM   15  C   UNL     1      42.571 -15.796   4.818  1.00  0.00     0.014 A 
BRANCH  13  16
HETATM   16  C   UNL     1      44.359 -18.675   3.063  1.00  0.00     0.042 C 
BRANCH  16  17
HETATM   17  C   UNL     1      43.478 -19.939   3.020  1.00  0.00    -0.019 C 
HETATM   18  C   UNL     1      43.882 -20.953   4.095  1.00  0.00     0.010 C 
HETATM   19  C   UNL     1      43.566 -20.587   1.638  1.00  0.00     0.010 C 
ENDBRANCH  16  17
ENDBRANCH  13  16
ENDBRANCH   7  10
ENDBRANCH   1   5
BRANCH   4  20
HETATM   20  N   UNL     1      42.535  -9.406   7.232  1.00  0.00    -0.364 N 
HETATM   21  H   UNL     1      43.312  -8.877   6.833  1.00  0.00     0.165 HD
BRANCH  20  22
HETATM   22  C   UNL     1      42.660  -9.577   8.635  1.00  0.00     0.048 A 
HETATM   23  C   UNL     1      43.912  -9.866   9.247  1.00  0.00     0.039 A 
HETATM   24  C   UNL     1      44.066  -9.833  10.642  1.00  0.00     0.057 A 
HETATM   25  C   UNL     1      42.957  -9.531  11.398  1.00  0.00     0.106 A 
HETATM   26  C   UNL     1      41.734  -9.283  10.822  1.00  0.00     0.107 A 
HETATM   27  O   UNL     1      42.922  -9.438  12.753  1.00  0.00    -0.323 OA
HETATM   28  O   UNL     1      40.777  -8.997  11.745  1.00  0.00    -0.323 OA
HETATM   29  C   UNL     1      41.550  -9.303   9.453  1.00  0.00     0.070 A 
HETATM   30  C   UNL     1      41.561  -9.009  12.958  1.00  0.00     0.352 A 
BRANCH  23  31
HETATM   31  C   UNL     1      45.110 -10.255   8.461  1.00  0.00     0.158 C 
HETATM   32  C   UNL     1      46.188  -9.227   8.224  1.00  0.00     0.097 C 
HETATM   33  O   UNL     1      45.172 -11.381   7.972  1.00  0.00    -0.293 OA
ENDBRANCH  23  31
ENDBRANCH  20  22
ENDBRANCH   4  20
TORSDOF 7
ENDMDL
MODEL 3
REMARK VINA RESULT:      -8.6      3.969     10.437
REMARK  7 active torsions:
REMARK  status: ('A' for Active; 'I' for Inactive)
REMARK    1  A    between atoms: C_2  and  C_3 
REMARK    2  A    between atoms: C_3  and  C_4 
REMARK    3  A    between atoms: C_7  and  C_8 
REMARK    4  A    between atoms: C_10  and  C_11 
REMARK    5  A    between atoms: C_14  and  N_15 
REMARK    6  A    between atoms: N_15  and  C_16 
REMARK    7  A    between atoms: C_17  and  C_18 
ROOT
HETATM    1  C   UNL     1      42.880 -10.543   6.206  1.00  0.00     0.082 C 
HETATM    2  C   UNL     1      44.155 -10.964   6.920  1.00  0.00     0.024 C 
HETATM    3  N   UNL     1      45.212 -11.313   7.512  1.00  0.00    -0.096 N 
HETATM    4  C   UNL     1      42.178  -9.448   6.555  1.00  0.00     0.113 C 
ENDROOT
BRANCH   1   5
HETATM    5  C   UNL     1      42.476 -11.312   5.075  1.00  0.00     0.119 A 
HETATM    6  N   UNL     1      42.557 -12.622   4.951  1.00  0.00    -0.239 NA
HETATM    7  C   UNL     1      42.202 -13.032   3.669  1.00  0.00     0.075 A 
HETATM    8  C   UNL     1      41.721 -12.017   2.867  1.00  0.00     0.084 A 
HETATM    9  S   UNL     1      41.801 -10.518   3.689  1.00  0.00    -0.078 SA
BRANCH   7  10
HETATM   10  C   UNL     1      42.357 -14.426   3.253  1.00  0.00    -0.007 A 
HETATM   11  C   UNL     1      43.233 -14.739   2.204  1.00  0.00     0.014 A 
HETATM   12  C   UNL     1      43.381 -16.056   1.755  1.00  0.00     0.008 A 
HETATM   13  C   UNL     1      42.650 -17.093   2.345  1.00  0.00    -0.058 A 
HETATM   14  C   UNL     1      41.771 -16.788   3.390  1.00  0.00     0.008 A 
HETATM   15  C   UNL     1      41.626 -15.470   3.838  1.00  0.00     0.014 A 
BRANCH  13  16
HETATM   16  C   UNL     1      42.802 -18.516   1.862  1.00  0.00     0.042 C 
BRANCH  16  17
HETATM   17  C   UNL     1      43.382 -19.471   2.923  1.00  0.00    -0.019 C 
HETATM   18  C   UNL     1      44.506 -18.814   3.729  1.00  0.00     0.010 C 
HETATM   19  C   UNL     1      43.904 -20.741   2.248  1.00  0.00     0.010 C 
ENDBRANCH  16  17
ENDBRANCH  13  16
ENDBRANCH   7  10
ENDBRANCH   1   5
BRANCH   4  20
HETATM   20  N   UNL     1      42.308  -8.536   7.596  1.00  0.00    -0.364 N 
HETATM   21  H   UNL     1      43.093  -7.900   7.445  1.00  0.00     0.165 HD
BRANCH  20  22
HETATM   22  C   UNL     1      42.171  -8.915   8.957  1.00  0.00     0.048 A 
HETATM   23  C   UNL     1      43.245  -8.783   9.883  1.00  0.00     0.039 A 
HETATM   24  C   UNL     1      43.044  -8.968  11.260  1.00  0.00     0.057 A 
HETATM   25  C   UNL     1      41.777  -9.298  11.682  1.00  0.00     0.106 A 
HETATM   26  C   UNL     1      40.740  -9.462  10.795  1.00  0.00     0.107 A 
HETATM   27  O   UNL     1      41.396  -9.497  12.970  1.00  0.00    -0.323 OA
HETATM   28  O   UNL     1      39.573  -9.779  11.419  1.00  0.00    -0.323 OA
HETATM   29  C   UNL     1      40.902  -9.284   9.435  1.00  0.00     0.070 A 
HETATM   30  C   UNL     1      39.980  -9.710  12.803  1.00  0.00     0.352 A 
BRANCH  23  31
HETATM   31  C   UNL     1      44.634  -8.488   9.453  1.00  0.00     0.158 C 
HETATM   32  C   UNL     1      45.771  -9.231  10.109  1.00  0.00     0.097 C 
HETATM   33  O   UNL     1      44.834  -7.607   8.619  1.00  0.00    -0.293 OA
ENDBRANCH  23  31
ENDBRANCH  20  22
ENDBRANCH   4  20
TORSDOF 7
ENDMDL
MODEL 4
REMARK VINA RESULT:      -8.3      4.222     10.447
REMARK  7 active torsions:
REMARK  status: ('A' for Active; 'I' for Inactive)
REMARK    1  A    between atoms: C_2  and  C_3 
REMARK    2  A    between atoms: C_3  and  C_4 
REMARK    3  A    between atoms: C_7  and  C_8 
REMARK    4  A    between atoms: C_10  and  C_11 
REMARK    5  A    between atoms: C_14  and  N_15 
REMARK    6  A    between atoms: N_15  and  C_16 
REMARK    7  A    between atoms: C_17  and  C_18 
ROOT
HETATM    1  C   UNL     1      42.291 -10.773   6.740  1.00  0.00     0.082 C 
HETATM    2  C   UNL     1      43.679 -10.846   7.355  1.00  0.00     0.024 C 
HETATM    3  N   UNL     1      44.831 -10.905   7.865  1.00  0.00    -0.096 N 
HETATM    4  C   UNL     1      41.455  -9.737   6.946  1.00  0.00     0.113 C 
ENDROOT
BRANCH   1   5
HETATM    5  C   UNL     1      41.912 -11.820   5.848  1.00  0.00     0.119 A 
HETATM    6  N   UNL     1      42.502 -12.993   5.723  1.00  0.00    -0.239 NA
HETATM    7  C   UNL     1      41.962 -13.721   4.668  1.00  0.00     0.075 A 
HETATM    8  C   UNL     1      40.859 -13.132   4.083  1.00  0.00     0.084 A 
HETATM    9  S   UNL     1      40.550 -11.607   4.795  1.00  0.00    -0.078 SA
BRANCH   7  10
HETATM   10  C   UNL     1      42.555 -14.990   4.245  1.00  0.00    -0.007 A 
HETATM   11  C   UNL     1      43.153 -15.824   5.201  1.00  0.00     0.014 A 
HETATM   12  C   UNL     1      43.762 -17.028   4.828  1.00  0.00     0.008 A 
HETATM   13  C   UNL     1      43.790 -17.424   3.487  1.00  0.00    -0.058 A 
HETATM   14  C   UNL     1      43.199 -16.595   2.527  1.00  0.00     0.008 A 
HETATM   15  C   UNL     1      42.590 -15.392   2.902  1.00  0.00     0.014 A 
BRANCH  13  16
HETATM   16  C   UNL     1      44.449 -18.720   3.079  1.00  0.00     0.042 C 
BRANCH  16  17
HETATM   17  C   UNL     1      43.482 -19.919   3.032  1.00  0.00    -0.019 C 
HETATM   18  C   UNL     1      43.830 -20.974   4.086  1.00  0.00     0.010 C 
HETATM   19  C   UNL     1      43.505 -20.551   1.639  1.00  0.00     0.010 C 
ENDBRANCH  16  17
ENDBRANCH  13  16
ENDBRANCH   7  10
ENDBRANCH   1   5
BRANCH   4  20
HETATM   20  N   UNL     1      41.534  -8.610   7.756  1.00  0.00    -0.364 N 
HETATM   21  H   UNL     1      42.461  -8.184   7.721  1.00  0.00     0.165 HD
BRANCH  20  22
HETATM   22  C   UNL     1      40.968  -8.570   9.057  1.00  0.00     0.048 A 
HETATM   23  C   UNL     1      39.691  -7.988   9.301  1.00  0.00     0.039 A 
HETATM   24  C   UNL     1      39.052  -8.131  10.542  1.00  0.00     0.057 A 
HETATM   25  C   UNL     1      39.710  -8.837  11.521  1.00  0.00     0.106 A 
HETATM   26  C   UNL     1      40.957  -9.376  11.310  1.00  0.00     0.107 A 
HETATM   27  O   UNL     1      39.240  -9.090  12.770  1.00  0.00    -0.323 OA
HETATM   28  O   UNL     1      41.424 -10.040  12.401  1.00  0.00    -0.323 OA
HETATM   29  C   UNL     1      41.612  -9.257  10.100  1.00  0.00     0.070 A 
HETATM   30  C   UNL     1      40.291  -9.930  13.290  1.00  0.00     0.352 A 
BRANCH  23  31
HETATM   31  C   UNL     1      38.984  -7.168   8.285  1.00  0.00     0.158 C 
HETATM   32  C   UNL     1      39.132  -5.669   8.331  1.00  0.00     0.097 C 
HETATM   33  O   UNL     1      38.248  -7.721   7.469  1.00  0.00    -0.293 OA
ENDBRANCH  23  31
ENDBRANCH  20  22
ENDBRANCH   4  20
TORSDOF 7
ENDMDL
MODEL 5
REMARK VINA RESULT:      -8.2      2.388      3.771
REMARK  7 active torsions:
REMARK  status: ('A' for Active; 'I' for Inactive)
REMARK    1  A    between atoms: C_2  and  C_3 
REMARK    2  A    between atoms: C_3  and  C_4 
REMARK    3  A    between atoms: C_7  and  C_8 
REMARK    4  A    between atoms: C_10  and  C_11 
REMARK    5  A    between atoms: C_14  and  N_15 
REMARK    6  A    between atoms: N_15  and  C_16 
REMARK    7  A    between atoms: C_17  and  C_18 
ROOT
HETATM    1  C   UNL     1      43.783 -10.001   8.075  1.00  0.00     0.082 C 
HETATM    2  C   UNL     1      45.231  -9.537   8.109  1.00  0.00     0.024 C 
HETATM    3  N   UNL     1      46.432  -9.153   8.138  1.00  0.00    -0.096 N 
HETATM    4  C   UNL     1      43.353 -10.988   7.266  1.00  0.00     0.113 C 
ENDROOT
BRANCH   1   5
HETATM    5  C   UNL     1      42.880  -9.404   9.003  1.00  0.00     0.119 A 
HETATM    6  N   UNL     1      43.146  -9.076  10.253  1.00  0.00    -0.239 NA
HETATM    7  C   UNL     1      42.003  -8.641  10.916  1.00  0.00     0.075 A 
HETATM    8  C   UNL     1      40.893  -8.518  10.104  1.00  0.00     0.084 A 
HETATM    9  S   UNL     1      41.256  -9.040   8.515  1.00  0.00    -0.078 SA
BRANCH   7  10
HETATM   10  C   UNL     1      42.023  -8.365  12.353  1.00  0.00    -0.007 A 
HETATM   11  C   UNL     1      41.024  -8.908  13.173  1.00  0.00     0.014 A 
HETATM   12  C   UNL     1      40.992  -8.637  14.546  1.00  0.00     0.008 A 
HETATM   13  C   UNL     1      41.958  -7.811  15.130  1.00  0.00    -0.058 A 
HETATM   14  C   UNL     1      42.956  -7.263  14.316  1.00  0.00     0.008 A 
HETATM   15  C   UNL     1      42.987  -7.536  12.944  1.00  0.00     0.014 A 
BRANCH  13  16
HETATM   16  C   UNL     1      41.925  -7.511  16.610  1.00  0.00     0.042 C 
BRANCH  16  17
HETATM   17  C   UNL     1      40.508  -7.528  17.213  1.00  0.00    -0.019 C 
HETATM   18  C   UNL     1      39.823  -6.163  17.101  1.00  0.00     0.010 C 
HETATM   19  C   UNL     1      40.573  -7.954  18.681  1.00  0.00     0.010 C 
ENDBRANCH  16  17
ENDBRANCH  13  16
ENDBRANCH   7  10
ENDBRANCH   1   5
BRANCH   4  20
HETATM   20  N   UNL     1      43.977 -11.726   6.266  1.00  0.00    -0.364 N 
HETATM   21  H   UNL     1      44.266 -11.135   5.485  1.00  0.00     0.165 HD
BRANCH  20  22
HETATM   22  C   UNL     1      43.489 -12.988   5.839  1.00  0.00     0.048 A 
HETATM   23  C   UNL     1      43.219 -13.262   4.468  1.00  0.00     0.039 A 
HETATM   24  C   UNL     1      42.932 -14.565   4.029  1.00  0.00     0.057 A 
HETATM   25  C   UNL     1      42.901 -15.564   4.974  1.00  0.00     0.106 A 
HETATM   26  C   UNL     1      43.126 -15.307   6.306  1.00  0.00     0.107 A 
HETATM   27  O   UNL     1      42.658 -16.878   4.732  1.00  0.00    -0.323 OA
HETATM   28  O   UNL     1      43.058 -16.432   7.067  1.00  0.00    -0.323 OA
HETATM   29  C   UNL     1      43.415 -14.039   6.770  1.00  0.00     0.070 A 
HETATM   30  C   UNL     1      42.851 -17.435   6.048  1.00  0.00     0.352 A 
BRANCH  23  31
HETATM   31  C   UNL     1      43.184 -12.196   3.436  1.00  0.00     0.158 C 
HETATM   32  C   UNL     1      42.102 -12.237   2.387  1.00  0.00     0.097 C 
HETATM   33  O   UNL     1      44.067 -11.341   3.420  1.00  0.00    -0.293 OA
ENDBRANCH  23  31
ENDBRANCH  20  22
ENDBRANCH   4  20
TORSDOF 7
ENDMDL
MODEL 6
REMARK VINA RESULT:      -8.0      4.263     10.567
REMARK  7 active torsions:
REMARK  status: ('A' for Active; 'I' for Inactive)
REMARK    1  A    between atoms: C_2  and  C_3 
REMARK    2  A    between atoms: C_3  and  C_4 
REMARK    3  A    between atoms: C_7  and  C_8 
REMARK    4  A    between atoms: C_10  and  C_11 
REMARK    5  A    between atoms: C_14  and  N_15 
REMARK    6  A    between atoms: N_15  and  C_16 
REMARK    7  A    between atoms: C_17  and  C_18 
ROOT
HETATM    1  C   UNL     1      44.340 -10.704   7.991  1.00  0.00     0.082 C 
HETATM    2  C   UNL     1      45.831 -10.644   7.700  1.00  0.00     0.024 C 
HETATM    3  N   UNL     1      47.067 -10.593   7.459  1.00  0.00    -0.096 N 
HETATM    4  C   UNL     1      43.735  -9.883   8.871  1.00  0.00     0.113 C 
ENDROOT
BRANCH   1   5
HETATM    5  C   UNL     1      43.558 -11.624   7.230  1.00  0.00     0.119 A 
HETATM    6  N   UNL     1      43.845 -12.890   7.000  1.00  0.00    -0.239 NA
HETATM    7  C   UNL     1      42.941 -13.460   6.110  1.00  0.00     0.075 A 
HETATM    8  C   UNL     1      41.885 -12.637   5.775  1.00  0.00     0.084 A 
HETATM    9  S   UNL     1      42.072 -11.101   6.507  1.00  0.00    -0.078 SA
BRANCH   7  10
HETATM   10  C   UNL     1      43.144 -14.813   5.591  1.00  0.00    -0.007 A 
HETATM   11  C   UNL     1      44.195 -15.594   6.093  1.00  0.00     0.014 A 
HETATM   12  C   UNL     1      44.441 -16.879   5.596  1.00  0.00     0.008 A 
HETATM   13  C   UNL     1      43.642 -17.412   4.579  1.00  0.00    -0.058 A 
HETATM   14  C   UNL     1      42.593 -16.637   4.071  1.00  0.00     0.008 A 
HETATM   15  C   UNL     1      42.348 -15.353   4.570  1.00  0.00     0.014 A 
BRANCH  13  16
HETATM   16  C   UNL     1      43.905 -18.796   4.036  1.00  0.00     0.042 C 
BRANCH  16  17
HETATM   17  C   UNL     1      44.226 -19.838   5.124  1.00  0.00    -0.019 C 
HETATM   18  C   UNL     1      44.020 -21.270   4.623  1.00  0.00     0.010 C 
HETATM   19  C   UNL     1      43.351 -19.590   6.354  1.00  0.00     0.010 C 
ENDBRANCH  16  17
ENDBRANCH  13  16
ENDBRANCH   7  10
ENDBRANCH   1   5
BRANCH   4  20
HETATM   20  N   UNL     1      44.221  -8.924   9.753  1.00  0.00    -0.364 N 
HETATM   21  H   UNL     1      45.179  -9.128  10.042  1.00  0.00     0.165 HD
BRANCH  20  22
HETATM   22  C   UNL     1      43.435  -8.400  10.811  1.00  0.00     0.048 A 
HETATM   23  C   UNL     1      42.602  -7.259  10.633  1.00  0.00     0.039 A 
HETATM   24  C   UNL     1      41.680  -6.870  11.617  1.00  0.00     0.057 A 
HETATM   25  C   UNL     1      41.623  -7.619  12.769  1.00  0.00     0.106 A 
HETATM   26  C   UNL     1      42.444  -8.703  12.969  1.00  0.00     0.107 A 
HETATM   27  O   UNL     1      40.785  -7.402  13.816  1.00  0.00    -0.323 OA
HETATM   28  O   UNL     1      42.220  -9.307  14.167  1.00  0.00    -0.323 OA
HETATM   29  C   UNL     1      43.359  -9.115  12.019  1.00  0.00     0.070 A 
HETATM   30  C   UNL     1      41.105  -8.530  14.656  1.00  0.00     0.352 A 
BRANCH  23  31
HETATM   31  C   UNL     1      42.684  -6.395   9.428  1.00  0.00     0.158 C 
HETATM   32  C   UNL     1      41.466  -5.607   9.016  1.00  0.00     0.097 C 
HETATM   33  O   UNL     1      43.716  -6.386   8.761  1.00  0.00    -0.293 OA
ENDBRANCH  23  31
ENDBRANCH  20  22
ENDBRANCH   4  20
TORSDOF 7
ENDMDL
MODEL 7
REMARK VINA RESULT:      -7.9      5.714     10.344
REMARK  7 active torsions:
REMARK  status: ('A' for Active; 'I' for Inactive)
REMARK    1  A    between atoms: C_2  and  C_3 
REMARK    2  A    between atoms: C_3  and  C_4 
REMARK    3  A    between atoms: C_7  and  C_8 
REMARK    4  A    between atoms: C_10  and  C_11 
REMARK    5  A    between atoms: C_14  and  N_15 
REMARK    6  A    between atoms: N_15  and  C_16 
REMARK    7  A    between atoms: C_17  and  C_18 
ROOT
HETATM    1  C   UNL     1      40.123 -13.502   1.103  1.00  0.00     0.082 C 
HETATM    2  C   UNL     1      39.619 -12.579   2.202  1.00  0.00     0.024 C 
HETATM    3  N   UNL     1      39.200 -11.815   3.113  1.00  0.00    -0.096 N 
HETATM    4  C   UNL     1      40.350 -14.814   1.300  1.00  0.00     0.113 C 
ENDROOT
BRANCH   1   5
HETATM    5  C   UNL     1      40.279 -12.946  -0.202  1.00  0.00     0.119 A 
HETATM    6  N   UNL     1      40.884 -11.813  -0.502  1.00  0.00    -0.239 NA
HETATM    7  C   UNL     1      40.736 -11.503  -1.850  1.00  0.00     0.075 A 
HETATM    8  C   UNL     1      40.122 -12.491  -2.591  1.00  0.00     0.084 A 
HETATM    9  S   UNL     1      39.639 -13.783  -1.578  1.00  0.00    -0.078 SA
BRANCH   7  10
HETATM   10  C   UNL     1      41.196 -10.220  -2.383  1.00  0.00    -0.007 A 
HETATM   11  C   UNL     1      42.017  -9.400  -1.596  1.00  0.00     0.014 A 
HETATM   12  C   UNL     1      42.448  -8.152  -2.059  1.00  0.00     0.008 A 
HETATM   13  C   UNL     1      42.062  -7.691  -3.322  1.00  0.00    -0.058 A 
HETATM   14  C   UNL     1      41.239  -8.503  -4.112  1.00  0.00     0.008 A 
HETATM   15  C   UNL     1      40.810  -9.751  -3.647  1.00  0.00     0.014 A 
BRANCH  13  16
HETATM   16  C   UNL     1      42.519  -6.343  -3.826  1.00  0.00     0.042 C 
BRANCH  16  17
HETATM   17  C   UNL     1      42.154  -6.076  -5.298  1.00  0.00    -0.019 C 
HETATM   18  C   UNL     1      43.361  -6.245  -6.226  1.00  0.00     0.010 C 
HETATM   19  C   UNL     1      41.584  -4.664  -5.444  1.00  0.00     0.010 C 
ENDBRANCH  16  17
ENDBRANCH  13  16
ENDBRANCH   7  10
ENDBRANCH   1   5
BRANCH   4  20
HETATM   20  N   UNL     1      40.307 -15.618   2.434  1.00  0.00    -0.364 N 
HETATM   21  H   UNL     1      39.603 -15.295   3.100  1.00  0.00     0.165 HD
BRANCH  20  22
HETATM   22  C   UNL     1      41.483 -16.089   3.074  1.00  0.00     0.048 A 
HETATM   23  C   UNL     1      41.959 -15.512   4.285  1.00  0.00     0.039 A 
HETATM   24  C   UNL     1      43.000 -16.108   5.016  1.00  0.00     0.057 A 
HETATM   25  C   UNL     1      43.555 -17.260   4.510  1.00  0.00     0.106 A 
HETATM   26  C   UNL     1      43.128 -17.809   3.325  1.00  0.00     0.107 A 
HETATM   27  O   UNL     1      44.553 -17.979   5.086  1.00  0.00    -0.323 OA
HETATM   28  O   UNL     1      43.801 -18.948   3.011  1.00  0.00    -0.323 OA
HETATM   29  C   UNL     1      42.104 -17.251   2.584  1.00  0.00     0.070 A 
HETATM   30  C   UNL     1      44.639 -19.096   4.179  1.00  0.00     0.352 A 
BRANCH  23  31
HETATM   31  C   UNL     1      41.422 -14.237   4.824  1.00  0.00     0.158 C 
HETATM   32  C   UNL     1      42.319 -13.025   4.852  1.00  0.00     0.097 C 
HETATM   33  O   UNL     1      40.284 -14.209   5.288  1.00  0.00    -0.293 OA
ENDBRANCH  23  31
ENDBRANCH  20  22
ENDBRANCH   4  20
TORSDOF 7
ENDMDL
MODEL 8
REMARK VINA RESULT:      -7.9      2.094      2.589
REMARK  7 active torsions:
REMARK  status: ('A' for Active; 'I' for Inactive)
REMARK    1  A    between atoms: C_2  and  C_3 
REMARK    2  A    between atoms: C_3  and  C_4 
REMARK    3  A    between atoms: C_7  and  C_8 
REMARK    4  A    between atoms: C_10  and  C_11 
REMARK    5  A    between atoms: C_14  and  N_15 
REMARK    6  A    between atoms: N_15  and  C_16 
REMARK    7  A    between atoms: C_17  and  C_18 
ROOT
HETATM    1  C   UNL     1      40.187 -11.625   4.395  1.00  0.00     0.082 C 
HETATM    2  C   UNL     1      39.363 -11.316   3.154  1.00  0.00     0.024 C 
HETATM    3  N   UNL     1      38.681 -11.059   2.126  1.00  0.00    -0.096 N 
HETATM    4  C   UNL     1      40.454 -12.883   4.797  1.00  0.00     0.113 C 
ENDROOT
BRANCH   1   5
HETATM    5  C   UNL     1      40.756 -10.523   5.098  1.00  0.00     0.119 A 
HETATM    6  N   UNL     1      41.288 -10.556   6.304  1.00  0.00    -0.239 NA
HETATM    7  C   UNL     1      41.624  -9.280   6.744  1.00  0.00     0.075 A 
HETATM    8  C   UNL     1      41.459  -8.294   5.792  1.00  0.00     0.084 A 
HETATM    9  S   UNL     1      40.789  -8.954   4.362  1.00  0.00    -0.078 SA
BRANCH   7  10
HETATM   10  C   UNL     1      42.094  -9.052   8.111  1.00  0.00    -0.007 A 
HETATM   11  C   UNL     1      43.383  -8.543   8.322  1.00  0.00     0.014 A 
HETATM   12  C   UNL     1      43.879  -8.345   9.615  1.00  0.00     0.008 A 
HETATM   13  C   UNL     1      43.095  -8.657  10.732  1.00  0.00    -0.058 A 
HETATM   14  C   UNL     1      41.809  -9.169  10.529  1.00  0.00     0.008 A 
HETATM   15  C   UNL     1      41.314  -9.365   9.234  1.00  0.00     0.014 A 
BRANCH  13  16
HETATM   16  C   UNL     1      43.626  -8.450  12.130  1.00  0.00     0.042 C 
BRANCH  16  17
HETATM   17  C   UNL     1      42.559  -7.971  13.133  1.00  0.00    -0.019 C 
HETATM   18  C   UNL     1      43.077  -6.833  14.017  1.00  0.00     0.010 C 
HETATM   19  C   UNL     1      42.107  -9.141  14.008  1.00  0.00     0.010 C 
ENDBRANCH  16  17
ENDBRANCH  13  16
ENDBRANCH   7  10
ENDBRANCH   1   5
BRANCH   4  20
HETATM   20  N   UNL     1      40.035 -14.128   4.340  1.00  0.00    -0.364 N 
HETATM   21  H   UNL     1      39.166 -14.421   4.787  1.00  0.00     0.165 HD
BRANCH  20  22
HETATM   22  C   UNL     1      40.937 -15.206   4.146  1.00  0.00     0.048 A 
HETATM   23  C   UNL     1      41.586 -15.425   2.898  1.00  0.00     0.039 A 
HETATM   24  C   UNL     1      42.622 -16.365   2.772  1.00  0.00     0.057 A 
HETATM   25  C   UNL     1      42.974 -17.080   3.892  1.00  0.00     0.106 A 
HETATM   26  C   UNL     1      42.333 -16.903   5.095  1.00  0.00     0.107 A 
HETATM   27  O   UNL     1      43.959 -18.013   3.961  1.00  0.00    -0.323 OA
HETATM   28  O   UNL     1      42.840 -17.700   6.073  1.00  0.00    -0.323 OA
HETATM   29  C   UNL     1      41.313 -15.984   5.254  1.00  0.00     0.070 A 
HETATM   30  C   UNL     1      43.929 -18.333   5.367  1.00  0.00     0.352 A 
BRANCH  23  31
HETATM   31  C   UNL     1      41.186 -14.714   1.658  1.00  0.00     0.158 C 
HETATM   32  C   UNL     1      40.085 -15.298   0.809  1.00  0.00     0.097 C 
HETATM   33  O   UNL     1      41.797 -13.703   1.318  1.00  0.00    -0.293 OA
ENDBRANCH  23  31
ENDBRANCH  20  22
ENDBRANCH   4  20
TORSDOF 7
ENDMDL
MODEL 9
REMARK VINA RESULT:      -7.7      1.861      2.645
REMARK  7 active torsions:
REMARK  status: ('A' for Active; 'I' for Inactive)
REMARK    1  A    between atoms: C_2  and  C_3 
REMARK    2  A    between atoms: C_3  and  C_4 
REMARK    3  A    between atoms: C_7  and  C_8 
REMARK    4  A    between atoms: C_10  and  C_11 
REMARK    5  A    between atoms: C_14  and  N_15 
REMARK    6  A    between atoms: N_15  and  C_16 
REMARK    7  A    between atoms: C_17  and  C_18 
ROOT
HETATM    1  C   UNL     1      43.222 -11.068   6.265  1.00  0.00     0.082 C 
HETATM    2  C   UNL     1      44.734 -11.184   6.383  1.00  0.00     0.024 C 
HETATM    3  N   UNL     1      45.987 -11.281   6.482  1.00  0.00    -0.096 N 
HETATM    4  C   UNL     1      42.494 -11.847   5.442  1.00  0.00     0.113 C 
ENDROOT
BRANCH   1   5
HETATM    5  C   UNL     1      42.564 -10.143   7.128  1.00  0.00     0.119 A 
HETATM    6  N   UNL     1      43.002  -9.718   8.297  1.00  0.00    -0.239 NA
HETATM    7  C   UNL     1      42.052  -8.927   8.936  1.00  0.00     0.075 A 
HETATM    8  C   UNL     1      40.939  -8.652   8.167  1.00  0.00     0.084 A 
HETATM    9  S   UNL     1      41.037  -9.466   6.665  1.00  0.00    -0.078 SA
BRANCH   7  10
HETATM   10  C   UNL     1      42.255  -8.465  10.309  1.00  0.00    -0.007 A 
HETATM   11  C   UNL     1      41.409  -7.479  10.837  1.00  0.00     0.014 A 
HETATM   12  C   UNL     1      41.595  -6.987  12.134  1.00  0.00     0.008 A 
HETATM   13  C   UNL     1      42.638  -7.468  12.933  1.00  0.00    -0.058 A 
HETATM   14  C   UNL     1      43.488  -8.449  12.411  1.00  0.00     0.008 A 
HETATM   15  C   UNL     1      43.300  -8.941  11.114  1.00  0.00     0.014 A 
BRANCH  13  16
HETATM   16  C   UNL     1      42.847  -6.937  14.331  1.00  0.00     0.042 C 
BRANCH  16  17
HETATM   17  C   UNL     1      41.537  -6.726  15.115  1.00  0.00    -0.019 C 
HETATM   18  C   UNL     1      41.334  -5.258  15.502  1.00  0.00     0.010 C 
HETATM   19  C   UNL     1      41.537  -7.597  16.372  1.00  0.00     0.010 C 
ENDBRANCH  16  17
ENDBRANCH  13  16
ENDBRANCH   7  10
ENDBRANCH   1   5
BRANCH   4  20
HETATM   20  N   UNL     1      42.844 -12.800   4.491  1.00  0.00    -0.364 N 
HETATM   21  H   UNL     1      42.476 -12.565   3.568  1.00  0.00     0.165 HD
BRANCH  20  22
HETATM   22  C   UNL     1      42.790 -14.192   4.758  1.00  0.00     0.048 A 
HETATM   23  C   UNL     1      42.677 -15.152   3.711  1.00  0.00     0.039 A 
HETATM   24  C   UNL     1      42.827 -16.525   3.964  1.00  0.00     0.057 A 
HETATM   25  C   UNL     1      43.067 -16.912   5.261  1.00  0.00     0.106 A 
HETATM   26  C   UNL     1      43.144 -15.999   6.286  1.00  0.00     0.107 A 
HETATM   27  O   UNL     1      43.254 -18.188   5.687  1.00  0.00    -0.323 OA
HETATM   28  O   UNL     1      43.397 -16.590   7.485  1.00  0.00    -0.323 OA
HETATM   29  C   UNL     1      43.006 -14.642   6.072  1.00  0.00     0.070 A 
HETATM   30  C   UNL     1      43.554 -17.967   7.080  1.00  0.00     0.352 A 
BRANCH  23  31
HETATM   31  C   UNL     1      42.357 -14.769   2.313  1.00  0.00     0.158 C 
HETATM   32  C   UNL     1      41.206 -15.453   1.619  1.00  0.00     0.097 C 
HETATM   33  O   UNL     1      43.069 -13.952   1.732  1.00  0.00    -0.293 OA
ENDBRANCH  23  31
ENDBRANCH  20  22
ENDBRANCH   4  20
TORSDOF 7
ENDMDL
MODEL 10
REMARK VINA RESULT:      -7.7      2.103      2.753
REMARK  7 active torsions:
REMARK  status: ('A' for Active; 'I' for Inactive)
REMARK    1  A    between atoms: C_2  and  C_3 
REMARK    2  A    between atoms: C_3  and  C_4 
REMARK    3  A    between atoms: C_7  and  C_8 
REMARK    4  A    between atoms: C_10  and  C_11 
REMARK    5  A    between atoms: C_14  and  N_15 
REMARK    6  A    between atoms: N_15  and  C_16 
REMARK    7  A    between atoms: C_17  and  C_18 
ROOT
HETATM    1  C   UNL     1      41.806 -12.275   5.364  1.00  0.00     0.082 C 
HETATM    2  C   UNL     1      41.220 -11.516   4.184  1.00  0.00     0.024 C 
HETATM    3  N   UNL     1      40.735 -10.887   3.205  1.00  0.00    -0.096 N 
HETATM    4  C   UNL     1      41.711 -13.613   5.490  1.00  0.00     0.113 C 
ENDROOT
BRANCH   1   5
HETATM    5  C   UNL     1      42.549 -11.526   6.324  1.00  0.00     0.119 A 
HETATM    6  N   UNL     1      42.089 -10.548   7.079  1.00  0.00    -0.239 NA
HETATM    7  C   UNL     1      43.111  -9.945   7.805  1.00  0.00     0.075 A 
HETATM    8  C   UNL     1      44.334 -10.574   7.685  1.00  0.00     0.084 A 
HETATM    9  S   UNL     1      44.227 -11.878   6.581  1.00  0.00    -0.078 SA
BRANCH   7  10
HETATM   10  C   UNL     1      42.863  -8.741   8.599  1.00  0.00    -0.007 A 
HETATM   11  C   UNL     1      43.831  -7.727   8.635  1.00  0.00     0.014 A 
HETATM   12  C   UNL     1      43.645  -6.578   9.411  1.00  0.00     0.008 A 
HETATM   13  C   UNL     1      42.484  -6.419  10.176  1.00  0.00    -0.058 A 
HETATM   14  C   UNL     1      41.516  -7.428  10.148  1.00  0.00     0.008 A 
HETATM   15  C   UNL     1      41.704  -8.577   9.370  1.00  0.00     0.014 A 
BRANCH  13  16
HETATM   16  C   UNL     1      42.279  -5.183  11.020  1.00  0.00     0.042 C 
BRANCH  16  17
HETATM   17  C   UNL     1      42.404  -3.866  10.229  1.00  0.00    -0.019 C 
HETATM   18  C   UNL     1      43.393  -2.898  10.885  1.00  0.00     0.010 C 
HETATM   19  C   UNL     1      41.032  -3.201  10.108  1.00  0.00     0.010 C 
ENDBRANCH  16  17
ENDBRANCH  13  16
ENDBRANCH   7  10
ENDBRANCH   1   5
BRANCH   4  20
HETATM   20  N   UNL     1      41.051 -14.585   4.746  1.00  0.00    -0.364 N 
HETATM   21  H   UNL     1      40.136 -14.806   5.142  1.00  0.00     0.165 HD
BRANCH  20  22
HETATM   22  C   UNL     1      41.714 -15.733   4.240  1.00  0.00     0.048 A 
HETATM   23  C   UNL     1      41.896 -15.938   2.843  1.00  0.00     0.039 A 
HETATM   24  C   UNL     1      42.723 -16.964   2.360  1.00  0.00     0.057 A 
HETATM   25  C   UNL     1      43.337 -17.777   3.284  1.00  0.00     0.106 A 
HETATM   26  C   UNL     1      43.143 -17.612   4.635  1.00  0.00     0.107 A 
HETATM   27  O   UNL     1      44.180 -18.804   3.002  1.00  0.00    -0.323 OA
HETATM   28  O   UNL     1      43.846 -18.513   5.372  1.00  0.00    -0.323 OA
HETATM   29  C   UNL     1      42.339 -16.610   5.143  1.00  0.00     0.070 A 
HETATM   30  C   UNL     1      44.570 -19.205   4.331  1.00  0.00     0.352 A 
BRANCH  23  31
HETATM   31  C   UNL     1      41.200 -15.116   1.821  1.00  0.00     0.158 C 
HETATM   32  C   UNL     1      40.014 -15.707   1.100  1.00  0.00     0.097 C 
HETATM   33  O   UNL     1      41.636 -14.001   1.542  1.00  0.00    -0.293 OA
ENDBRANCH  23  31
ENDBRANCH  20  22
ENDBRANCH   4  20
TORSDOF 7
ENDMDL
