MODEL 1
REMARK VINA RESULT:     -10.5      0.000      0.000
REMARK  9 active torsions:
REMARK  status: ('A' for Active; 'I' for Inactive)
REMARK    1  A    between atoms: C_2  and  C_3 
REMARK    2  A    between atoms: C_6  and  N_7 
REMARK    3  A    between atoms: N_7  and  C_8 
REMARK    4  A    between atoms: C_12  and  C_13 
REMARK       I    between atoms: C_13  and  N_14 
REMARK    5  A    between atoms: N_14  and  C_15 
REMARK    6  A    between atoms: C_15  and  C_16 
REMARK    7  A    between atoms: C_16  and  C_17 
REMARK    8  A    between atoms: C_17  and  N_18 
REMARK    9  A    between atoms: N_22  and  C_23 
ROOT
HETATM    1  C   UNL     1      41.908 -12.970   3.780  1.00  0.00     0.129 A 
HETATM    2  N   UNL     1      40.765 -12.274   3.879  1.00  0.00    -0.231 NA
HETATM    3  C   UNL     1      40.572 -11.414   4.889  1.00  0.00     0.070 A 
HETATM    4  C   UNL     1      41.521 -11.191   5.906  1.00  0.00     0.009 A 
HETATM    5  C   UNL     1      42.750 -11.883   5.753  1.00  0.00     0.048 A 
HETATM    6  C   UNL     1      42.933 -12.772   4.686  1.00  0.00     0.068 A 
HETATM    7  C   UNL     1      39.356 -10.747   4.928  1.00  0.00     0.032 A 
HETATM    8  C   UNL     1      39.023  -9.876   5.964  1.00  0.00     0.002 A 
HETATM    9  C   UNL     1      39.916  -9.682   7.003  1.00  0.00     0.001 A 
HETATM   10  C   UNL     1      41.147 -10.339   6.984  1.00  0.00     0.015 A 
ENDROOT
BRANCH   5  11
HETATM   11  C   UNL     1      43.894 -11.809   6.698  1.00  0.00     0.252 C 
HETATM   12  N   UNL     1      44.888 -10.886   6.466  1.00  0.00    -0.357 N 
HETATM   13  H   UNL     1      44.934 -10.465   5.541  1.00  0.00     0.162 HD
HETATM   14  O   UNL     1      43.952 -12.577   7.659  1.00  0.00    -0.268 OA
BRANCH  12  15
HETATM   15  C   UNL     1      46.077 -10.809   7.294  1.00  0.00     0.124 C 
BRANCH  15  16
HETATM   16  C   UNL     1      46.195  -9.516   8.110  1.00  0.00     0.047 C 
BRANCH  16  17
HETATM   17  C   UNL     1      44.918  -8.709   8.368  1.00  0.00     0.236 C 
BRANCH  17  18
HETATM   18  N   UNL     1      43.986  -9.341   9.357  1.00  0.00    -0.068 N 
HETATM   19  H   UNL     1      43.522 -10.129   8.855  1.00  0.00     0.280 HD
HETATM   20  C   UNL     1      44.635  -9.872  10.626  1.00  0.00     0.254 C 
HETATM   21  C   UNL     1      43.594 -10.592  11.513  1.00  0.00     0.150 C 
HETATM   22  N   UNL     1      42.396  -9.767  11.763  1.00  0.00    -0.375 N 
HETATM   23  C   UNL     1      41.768  -9.205  10.548  1.00  0.00     0.150 C 
HETATM   24  C   UNL     1      42.805  -8.427   9.707  1.00  0.00     0.254 C 
BRANCH  22  25
HETATM   25  C   UNL     1      42.290  -9.005  12.931  1.00  0.00     0.069 A 
HETATM   26  C   UNL     1      41.283  -9.158  13.904  1.00  0.00     0.142 A 
HETATM   27  F   UNL     1      40.355 -10.120  13.775  1.00  0.00    -0.204 F 
HETATM   28  C   UNL     1      41.224  -8.364  15.050  1.00  0.00     0.044 A 
HETATM   29  C   UNL     1      42.173  -7.369  15.254  1.00  0.00     0.003 A 
HETATM   30  C   UNL     1      43.172  -7.173  14.306  1.00  0.00     0.002 A 
HETATM   31  C   UNL     1      43.224  -7.978  13.163  1.00  0.00     0.032 A 
ENDBRANCH  22  25
ENDBRANCH  17  18
ENDBRANCH  16  17
ENDBRANCH  15  16
ENDBRANCH  12  15
ENDBRANCH   5  11
BRANCH   1  32
HETATM   32  N   UNL     1      42.084 -13.963   2.795  1.00  0.00    -0.341 N 
HETATM   33  H   UNL     1      41.424 -13.848   2.035  1.00  0.00     0.167 HD
BRANCH  32  34
HETATM   34  C   UNL     1      42.497 -15.305   2.944  1.00  0.00     0.033 A 
HETATM   35  C   UNL     1      42.685 -15.912   4.189  1.00  0.00     0.030 A 
HETATM   36  C   UNL     1      43.185 -17.216   4.296  1.00  0.00     0.010 A 
HETATM   37  C   UNL     1      43.544 -17.941   3.154  1.00  0.00    -0.055 A 
HETATM   38  C   UNL     1      43.390 -17.327   1.905  1.00  0.00     0.010 A 
HETATM   39  C   UNL     1      42.885 -16.025   1.805  1.00  0.00     0.030 A 
BRANCH  37  40
HETATM   40  C   UNL     1      44.089 -19.355   3.245  1.00  0.00     0.010 C 
HETATM   41  C   UNL     1      43.372 -20.288   2.266  1.00  0.00     0.015 C 
HETATM   42  C   UNL     1      44.018 -19.904   4.672  1.00  0.00     0.015 C 
ENDBRANCH  37  40
ENDBRANCH  32  34
ENDBRANCH   1  32
TORSDOF 9
ENDMDL
MODEL 2
REMARK VINA RESULT:      -9.9      2.645      4.413
REMARK  9 active torsions:
REMARK  status: ('A' for Active; 'I' for Inactive)
REMARK    1  A    between atoms: C_2  and  C_3 
REMARK    2  A    between atoms: C_6  and  N_7 
REMARK    3  A    between atoms: N_7  and  C_8 
REMARK    4  A    between atoms: C_12  and  C_13 
REMARK       I    between atoms: C_13  and  N_14 
REMARK    5  A    between atoms: N_14  and  C_15 
REMARK    6  A    between atoms: C_15  and  C_16 
REMARK    7  A    between atoms: C_16  and  C_17 
REMARK    8  A    between atoms: C_17  and  N_18 
REMARK    9  A    between atoms: N_22  and  C_23 
ROOT
HETATM    1  C   UNL     1      40.922 -13.853   4.297  1.00  0.00     0.129 A 
HETATM    2  N   UNL     1      41.010 -15.089   4.813  1.00  0.00    -0.231 NA
HETATM    3  C   UNL     1      42.076 -15.454   5.540  1.00  0.00     0.070 A 
HETATM    4  C   UNL     1      43.164 -14.598   5.799  1.00  0.00     0.009 A 
HETATM    5  C   UNL     1      43.028 -13.275   5.304  1.00  0.00     0.048 A 
HETATM    6  C   UNL     1      41.903 -12.913   4.552  1.00  0.00     0.068 A 
HETATM    7  C   UNL     1      42.097 -16.754   6.023  1.00  0.00     0.032 A 
HETATM    8  C   UNL     1      43.181 -17.260   6.738  1.00  0.00     0.002 A 
HETATM    9  C   UNL     1      44.285 -16.456   6.959  1.00  0.00     0.001 A 
HETATM   10  C   UNL     1      44.286 -15.143   6.486  1.00  0.00     0.015 A 
ENDROOT
BRANCH   5  11
HETATM   11  C   UNL     1      44.045 -12.201   5.449  1.00  0.00     0.252 C 
HETATM   12  N   UNL     1      44.783 -12.138   6.610  1.00  0.00    -0.357 N 
HETATM   13  H   UNL     1      44.443 -12.662   7.413  1.00  0.00     0.162 HD
HETATM   14  O   UNL     1      44.203 -11.375   4.550  1.00  0.00    -0.268 OA
BRANCH  12  15
HETATM   15  C   UNL     1      45.732 -11.072   6.863  1.00  0.00     0.124 C 
BRANCH  15  16
HETATM   16  C   UNL     1      45.375 -10.180   8.058  1.00  0.00     0.047 C 
BRANCH  16  17
HETATM   17  C   UNL     1      43.931  -9.682   8.179  1.00  0.00     0.236 C 
BRANCH  17  18
HETATM   18  N   UNL     1      43.245 -10.102   9.443  1.00  0.00    -0.068 N 
HETATM   19  H   UNL     1      42.743 -10.988   9.221  1.00  0.00     0.280 HD
HETATM   20  C   UNL     1      44.156 -10.334  10.640  1.00  0.00     0.254 C 
HETATM   21  C   UNL     1      43.349 -10.863  11.847  1.00  0.00     0.150 C 
HETATM   22  N   UNL     1      42.173 -10.026  12.153  1.00  0.00    -0.375 N 
HETATM   23  C   UNL     1      41.292  -9.751  10.998  1.00  0.00     0.150 C 
HETATM   24  C   UNL     1      42.099  -9.156   9.823  1.00  0.00     0.254 C 
BRANCH  22  25
HETATM   25  C   UNL     1      42.247  -9.030  13.134  1.00  0.00     0.069 A 
HETATM   26  C   UNL     1      41.336  -8.879  14.197  1.00  0.00     0.142 A 
HETATM   27  F   UNL     1      40.329  -9.751  14.357  1.00  0.00    -0.204 F 
HETATM   28  C   UNL     1      41.456  -7.862  15.146  1.00  0.00     0.044 A 
HETATM   29  C   UNL     1      42.496  -6.943  15.049  1.00  0.00     0.003 A 
HETATM   30  C   UNL     1      43.404  -7.046  14.001  1.00  0.00     0.002 A 
HETATM   31  C   UNL     1      43.277  -8.073  13.059  1.00  0.00     0.032 A 
ENDBRANCH  22  25
ENDBRANCH  17  18
ENDBRANCH  16  17
ENDBRANCH  15  16
ENDBRANCH  12  15
ENDBRANCH   5  11
BRANCH   1  32
HETATM   32  N   UNL     1      39.869 -13.487   3.435  1.00  0.00    -0.341 N 
HETATM   33  H   UNL     1      38.973 -13.538   3.906  1.00  0.00     0.167 HD
BRANCH  32  34
HETATM   34  C   UNL     1      39.750 -13.677   2.041  1.00  0.00     0.033 A 
HETATM   35  C   UNL     1      40.101 -14.868   1.400  1.00  0.00     0.030 A 
HETATM   36  C   UNL     1      40.057 -14.986   0.005  1.00  0.00     0.010 A 
HETATM   37  C   UNL     1      39.689 -13.897  -0.794  1.00  0.00    -0.055 A 
HETATM   38  C   UNL     1      39.368 -12.691  -0.161  1.00  0.00     0.010 A 
HETATM   39  C   UNL     1      39.409 -12.582   1.234  1.00  0.00     0.030 A 
BRANCH  37  40
HETATM   40  C   UNL     1      39.635 -14.001  -2.308  1.00  0.00     0.010 C 
HETATM   41  C   UNL     1      40.404 -12.854  -2.969  1.00  0.00     0.015 C 
HETATM   42  C   UNL     1      38.196 -14.061  -2.826  1.00  0.00     0.015 C 
ENDBRANCH  37  40
ENDBRANCH  32  34
ENDBRANCH   1  32
TORSDOF 9
ENDMDL
MODEL 3
REMARK VINA RESULT:      -9.9      2.697      5.052
REMARK  9 active torsions:
REMARK  status: ('A' for Active; 'I' for Inactive)
REMARK    1  A    between atoms: C_2  and  C_3 
REMARK    2  A    between atoms: C_6  and  N_7 
REMARK    3  A    between atoms: N_7  and  C_8 
REMARK    4  A    between atoms: C_12  and  C_13 
REMARK       I    between atoms: C_13  and  N_14 
REMARK    5  A    between atoms: N_14  and  C_15 
REMARK    6  A    between atoms: C_15  and  C_16 
REMARK    7  A    between atoms: C_16  and  C_17 
REMARK    8  A    between atoms: C_17  and  N_18 
REMARK    9  A    between atoms: N_22  and  C_23 
ROOT
HETATM    1  C   UNL     1      40.827 -15.224   3.715  1.00  0.00     0.129 A 
HETATM    2  N   UNL     1      41.374 -16.348   3.227  1.00  0.00    -0.231 NA
HETATM    3  C   UNL     1      42.461 -16.885   3.798  1.00  0.00     0.070 A 
HETATM    4  C   UNL     1      43.106 -16.320   4.915  1.00  0.00     0.009 A 
HETATM    5  C   UNL     1      42.480 -15.170   5.460  1.00  0.00     0.048 A 
HETATM    6  C   UNL     1      41.341 -14.628   4.851  1.00  0.00     0.068 A 
HETATM    7  C   UNL     1      42.974 -18.039   3.221  1.00  0.00     0.032 A 
HETATM    8  C   UNL     1      44.135 -18.649   3.694  1.00  0.00     0.002 A 
HETATM    9  C   UNL     1      44.817 -18.081   4.756  1.00  0.00     0.001 A 
HETATM   10  C   UNL     1      44.319 -16.924   5.354  1.00  0.00     0.015 A 
ENDROOT
BRANCH   5  11
HETATM   11  C   UNL     1      42.979 -14.401   6.631  1.00  0.00     0.252 C 
HETATM   12  N   UNL     1      43.318 -13.078   6.459  1.00  0.00    -0.357 N 
HETATM   13  H   UNL     1      43.452 -12.745   5.507  1.00  0.00     0.162 HD
HETATM   14  O   UNL     1      43.100 -14.951   7.725  1.00  0.00    -0.268 OA
BRANCH  12  15
HETATM   15  C   UNL     1      43.891 -12.284   7.529  1.00  0.00     0.124 C 
BRANCH  15  16
HETATM   16  C   UNL     1      44.271 -10.855   7.121  1.00  0.00     0.047 C 
BRANCH  16  17
HETATM   17  C   UNL     1      44.181  -9.755   8.185  1.00  0.00     0.236 C 
BRANCH  17  18
HETATM   18  N   UNL     1      43.435 -10.160   9.420  1.00  0.00    -0.068 N 
HETATM   19  H   UNL     1      42.927 -11.037   9.177  1.00  0.00     0.280 HD
HETATM   20  C   UNL     1      44.290 -10.405  10.655  1.00  0.00     0.254 C 
HETATM   21  C   UNL     1      43.422 -10.918  11.827  1.00  0.00     0.150 C 
HETATM   22  N   UNL     1      42.250 -10.059  12.082  1.00  0.00    -0.375 N 
HETATM   23  C   UNL     1      41.424  -9.771  10.890  1.00  0.00     0.150 C 
HETATM   24  C   UNL     1      42.292  -9.193   9.750  1.00  0.00     0.254 C 
BRANCH  22  25
HETATM   25  C   UNL     1      42.300  -9.063  13.063  1.00  0.00     0.069 A 
HETATM   26  C   UNL     1      41.364  -8.911  14.104  1.00  0.00     0.142 A 
HETATM   27  F   UNL     1      40.353  -9.784  14.241  1.00  0.00    -0.204 F 
HETATM   28  C   UNL     1      41.460  -7.894  15.055  1.00  0.00     0.044 A 
HETATM   29  C   UNL     1      42.501  -6.975  14.983  1.00  0.00     0.003 A 
HETATM   30  C   UNL     1      43.434  -7.078  13.957  1.00  0.00     0.002 A 
HETATM   31  C   UNL     1      43.330  -8.105  13.012  1.00  0.00     0.032 A 
ENDBRANCH  22  25
ENDBRANCH  17  18
ENDBRANCH  16  17
ENDBRANCH  15  16
ENDBRANCH  12  15
ENDBRANCH   5  11
BRANCH   1  32
HETATM   32  N   UNL     1      39.758 -14.580   3.061  1.00  0.00    -0.341 N 
HETATM   33  H   UNL     1      38.866 -14.859   3.453  1.00  0.00     0.167 HD
BRANCH  32  34
HETATM   34  C   UNL     1      39.647 -14.182   1.711  1.00  0.00     0.033 A 
HETATM   35  C   UNL     1      39.881 -15.046   0.638  1.00  0.00     0.030 A 
HETATM   36  C   UNL     1      39.852 -14.590  -0.685  1.00  0.00     0.010 A 
HETATM   37  C   UNL     1      39.618 -13.240  -0.973  1.00  0.00    -0.055 A 
HETATM   38  C   UNL     1      39.415 -12.362   0.098  1.00  0.00     0.010 A 
HETATM   39  C   UNL     1      39.441 -12.825   1.419  1.00  0.00     0.030 A 
BRANCH  37  40
HETATM   40  C   UNL     1      39.583 -12.722  -2.400  1.00  0.00     0.010 C 
HETATM   41  C   UNL     1      38.742 -13.633  -3.297  1.00  0.00     0.015 C 
HETATM   42  C   UNL     1      40.989 -12.538  -2.976  1.00  0.00     0.015 C 
ENDBRANCH  37  40
ENDBRANCH  32  34
ENDBRANCH   1  32
TORSDOF 9
ENDMDL
MODEL 4
REMARK VINA RESULT:      -9.8      3.003      5.794
REMARK  9 active torsions:
REMARK  status: ('A' for Active; 'I' for Inactive)
REMARK    1  A    between atoms: C_2  and  C_3 
REMARK    2  A    between atoms: C_6  and  N_7 
REMARK    3  A    between atoms: N_7  and  C_8 
REMARK    4  A    between atoms: C_12  and  C_13 
REMARK       I    between atoms: C_13  and  N_14 
REMARK    5  A    between atoms: N_14  and  C_15 
REMARK    6  A    between atoms: C_15  and  C_16 
REMARK    7  A    between atoms: C_16  and  C_17 
REMARK    8  A    between atoms: C_17  and  N_18 
REMARK    9  A    between atoms: N_22  and  C_23 
ROOT
HETATM    1  C   UNL     1      40.678 -15.679   2.495  1.00  0.00     0.129 A 
HETATM    2  N   UNL     1      41.353 -16.763   2.080  1.00  0.00    -0.231 NA
HETATM    3  C   UNL     1      42.324 -17.295   2.835  1.00  0.00     0.070 A 
HETATM    4  C   UNL     1      42.714 -16.765   4.080  1.00  0.00     0.009 A 
HETATM    5  C   UNL     1      41.949 -15.660   4.536  1.00  0.00     0.048 A 
HETATM    6  C   UNL     1      40.934 -15.123   3.734  1.00  0.00     0.068 A 
HETATM    7  C   UNL     1      42.984 -18.405   2.326  1.00  0.00     0.032 A 
HETATM    8  C   UNL     1      44.050 -19.003   2.995  1.00  0.00     0.002 A 
HETATM    9  C   UNL     1      44.487 -18.468   4.195  1.00  0.00     0.001 A 
HETATM   10  C   UNL     1      43.837 -17.354   4.728  1.00  0.00     0.015 A 
ENDROOT
BRANCH   5  11
HETATM   11  C   UNL     1      42.177 -14.933   5.812  1.00  0.00     0.252 C 
HETATM   12  N   UNL     1      43.173 -13.984   5.867  1.00  0.00    -0.357 N 
HETATM   13  H   UNL     1      43.869 -13.989   5.124  1.00  0.00     0.162 HD
HETATM   14  O   UNL     1      41.494 -15.196   6.803  1.00  0.00    -0.268 OA
BRANCH  12  15
HETATM   15  C   UNL     1      43.512 -13.294   7.096  1.00  0.00     0.124 C 
BRANCH  15  16
HETATM   16  C   UNL     1      44.267 -11.974   6.890  1.00  0.00     0.047 C 
BRANCH  16  17
HETATM   17  C   UNL     1      43.478 -10.666   7.021  1.00  0.00     0.236 C 
BRANCH  17  18
HETATM   18  N   UNL     1      43.845  -9.851   8.223  1.00  0.00    -0.068 N 
HETATM   19  H   UNL     1      44.802  -9.482   8.043  1.00  0.00     0.280 HD
HETATM   20  C   UNL     1      42.914  -8.689   8.539  1.00  0.00     0.254 C 
HETATM   21  C   UNL     1      43.453  -7.865   9.730  1.00  0.00     0.150 C 
HETATM   22  N   UNL     1      43.768  -8.704  10.902  1.00  0.00    -0.375 N 
HETATM   23  C   UNL     1      44.639  -9.864  10.616  1.00  0.00     0.150 C 
HETATM   24  C   UNL     1      44.052 -10.719   9.471  1.00  0.00     0.254 C 
BRANCH  22  25
HETATM   25  C   UNL     1      42.836  -8.861  11.934  1.00  0.00     0.069 A 
HETATM   26  C   UNL     1      42.957  -8.300  13.220  1.00  0.00     0.142 A 
HETATM   27  F   UNL     1      44.001  -7.511  13.522  1.00  0.00    -0.204 F 
HETATM   28  C   UNL     1      41.997  -8.495  14.214  1.00  0.00     0.044 A 
HETATM   29  C   UNL     1      40.879  -9.280  13.953  1.00  0.00     0.003 A 
HETATM   30  C   UNL     1      40.734  -9.868  12.702  1.00  0.00     0.002 A 
HETATM   31  C   UNL     1      41.700  -9.662  11.712  1.00  0.00     0.032 A 
ENDBRANCH  22  25
ENDBRANCH  17  18
ENDBRANCH  16  17
ENDBRANCH  15  16
ENDBRANCH  12  15
ENDBRANCH   5  11
BRANCH   1  32
HETATM   32  N   UNL     1      39.736 -15.036   1.667  1.00  0.00    -0.341 N 
HETATM   33  H   UNL     1      38.951 -15.643   1.463  1.00  0.00     0.167 HD
BRANCH  32  34
HETATM   34  C   UNL     1      39.947 -14.076   0.653  1.00  0.00     0.033 A 
HETATM   35  C   UNL     1      39.904 -14.384  -0.709  1.00  0.00     0.030 A 
HETATM   36  C   UNL     1      40.210 -13.424  -1.683  1.00  0.00     0.010 A 
HETATM   37  C   UNL     1      40.602 -12.132  -1.317  1.00  0.00    -0.055 A 
HETATM   38  C   UNL     1      40.679 -11.826   0.047  1.00  0.00     0.010 A 
HETATM   39  C   UNL     1      40.366 -12.788   1.015  1.00  0.00     0.030 A 
BRANCH  37  40
HETATM   40  C   UNL     1      40.939 -11.076  -2.354  1.00  0.00     0.010 C 
HETATM   41  C   UNL     1      41.609  -9.861  -1.708  1.00  0.00     0.015 C 
HETATM   42  C   UNL     1      39.709 -10.654  -3.161  1.00  0.00     0.015 C 
ENDBRANCH  37  40
ENDBRANCH  32  34
ENDBRANCH   1  32
TORSDOF 9
ENDMDL
MODEL 5
REMARK VINA RESULT:      -9.6      1.656      3.260
REMARK  9 active torsions:
REMARK  status: ('A' for Active; 'I' for Inactive)
REMARK    1  A    between atoms: C_2  and  C_3 
REMARK    2  A    between atoms: C_6  and  N_7 
REMARK    3  A    between atoms: N_7  and  C_8 
REMARK    4  A    between atoms: C_12  and  C_13 
REMARK       I    between atoms: C_13  and  N_14 
REMARK    5  A    between atoms: N_14  and  C_15 
REMARK    6  A    between atoms: C_15  and  C_16 
REMARK    7  A    between atoms: C_16  and  C_17 
REMARK    8  A    between atoms: C_17  and  N_18 
REMARK    9  A    between atoms: N_22  and  C_23 
ROOT
HETATM    1  C   UNL     1      42.290 -13.016   4.695  1.00  0.00     0.129 A 
HETATM    2  N   UNL     1      43.537 -12.887   5.176  1.00  0.00    -0.231 NA
HETATM    3  C   UNL     1      43.830 -11.936   6.074  1.00  0.00     0.070 A 
HETATM    4  C   UNL     1      42.883 -11.013   6.558  1.00  0.00     0.009 A 
HETATM    5  C   UNL     1      41.556 -11.202   6.092  1.00  0.00     0.048 A 
HETATM    6  C   UNL     1      41.271 -12.207   5.158  1.00  0.00     0.068 A 
HETATM    7  C   UNL     1      45.146 -11.860   6.508  1.00  0.00     0.032 A 
HETATM    8  C   UNL     1      45.576 -10.873   7.393  1.00  0.00     0.002 A 
HETATM    9  C   UNL     1      44.677  -9.921   7.841  1.00  0.00     0.001 A 
HETATM   10  C   UNL     1      43.348  -9.980   7.421  1.00  0.00     0.015 A 
ENDROOT
BRANCH   5  11
HETATM   11  C   UNL     1      40.393 -10.352   6.459  1.00  0.00     0.252 C 
HETATM   12  N   UNL     1      40.114  -9.243   5.692  1.00  0.00    -0.357 N 
HETATM   13  H   UNL     1      40.842  -8.908   5.065  1.00  0.00     0.162 HD
HETATM   14  O   UNL     1      39.710 -10.632   7.444  1.00  0.00    -0.268 OA
BRANCH  12  15
HETATM   15  C   UNL     1      39.051  -8.318   6.033  1.00  0.00     0.124 C 
BRANCH  15  16
HETATM   16  C   UNL     1      39.498  -7.136   6.902  1.00  0.00     0.047 C 
BRANCH  16  17
HETATM   17  C   UNL     1      39.115  -7.149   8.386  1.00  0.00     0.236 C 
BRANCH  17  18
HETATM   18  N   UNL     1      39.940  -8.082   9.220  1.00  0.00    -0.068 N 
HETATM   19  H   UNL     1      39.958  -8.989   8.708  1.00  0.00     0.280 HD
HETATM   20  C   UNL     1      41.369  -7.634   9.491  1.00  0.00     0.254 C 
HETATM   21  C   UNL     1      42.145  -8.722  10.266  1.00  0.00     0.150 C 
HETATM   22  N   UNL     1      41.430  -9.177  11.474  1.00  0.00    -0.375 N 
HETATM   23  C   UNL     1      40.025  -9.580  11.246  1.00  0.00     0.150 C 
HETATM   24  C   UNL     1      39.242  -8.454  10.534  1.00  0.00     0.254 C 
BRANCH  22  25
HETATM   25  C   UNL     1      41.726  -8.623  12.725  1.00  0.00     0.069 A 
HETATM   26  C   UNL     1      41.124  -9.009  13.938  1.00  0.00     0.142 A 
HETATM   27  F   UNL     1      40.225 -10.006  13.964  1.00  0.00    -0.204 F 
HETATM   28  C   UNL     1      41.456  -8.417  15.158  1.00  0.00     0.044 A 
HETATM   29  C   UNL     1      42.400  -7.398  15.200  1.00  0.00     0.003 A 
HETATM   30  C   UNL     1      43.002  -6.975  14.020  1.00  0.00     0.002 A 
HETATM   31  C   UNL     1      42.666  -7.578  12.803  1.00  0.00     0.032 A 
ENDBRANCH  22  25
ENDBRANCH  17  18
ENDBRANCH  16  17
ENDBRANCH  15  16
ENDBRANCH  12  15
ENDBRANCH   5  11
BRANCH   1  32
HETATM   32  N   UNL     1      41.988 -13.931   3.667  1.00  0.00    -0.341 N 
HETATM   33  H   UNL     1      41.060 -13.770   3.292  1.00  0.00     0.167 HD
BRANCH  32  34
HETATM   34  C   UNL     1      42.398 -15.273   3.517  1.00  0.00     0.033 A 
HETATM   35  C   UNL     1      42.554 -16.149   4.595  1.00  0.00     0.030 A 
HETATM   36  C   UNL     1      43.052 -17.446   4.415  1.00  0.00     0.010 A 
HETATM   37  C   UNL     1      43.442 -17.894   3.148  1.00  0.00    -0.055 A 
HETATM   38  C   UNL     1      43.320 -17.011   2.068  1.00  0.00     0.010 A 
HETATM   39  C   UNL     1      42.816 -15.718   2.254  1.00  0.00     0.030 A 
BRANCH  37  40
HETATM   40  C   UNL     1      43.986 -19.295   2.929  1.00  0.00     0.010 C 
HETATM   41  C   UNL     1      43.072 -20.104   2.006  1.00  0.00     0.015 C 
HETATM   42  C   UNL     1      44.216 -20.031   4.250  1.00  0.00     0.015 C 
ENDBRANCH  37  40
ENDBRANCH  32  34
ENDBRANCH   1  32
TORSDOF 9
ENDMDL
MODEL 6
REMARK VINA RESULT:      -9.6      3.004     10.303
REMARK  9 active torsions:
REMARK  status: ('A' for Active; 'I' for Inactive)
REMARK    1  A    between atoms: C_2  and  C_3 
REMARK    2  A    between atoms: C_6  and  N_7 
REMARK    3  A    between atoms: N_7  and  C_8 
REMARK    4  A    between atoms: C_12  and  C_13 
REMARK       I    between atoms: C_13  and  N_14 
REMARK    5  A    between atoms: N_14  and  C_15 
REMARK    6  A    between atoms: C_15  and  C_16 
REMARK    7  A    between atoms: C_16  and  C_17 
REMARK    8  A    between atoms: C_17  and  N_18 
REMARK    9  A    between atoms: N_22  and  C_23 
ROOT
HETATM    1  C   UNL     1      43.978 -11.058   7.940  1.00  0.00     0.129 A 
HETATM    2  N   UNL     1      44.261 -12.332   7.627  1.00  0.00    -0.231 NA
HETATM    3  C   UNL     1      43.530 -12.992   6.717  1.00  0.00     0.070 A 
HETATM    4  C   UNL     1      42.431 -12.421   6.048  1.00  0.00     0.009 A 
HETATM    5  C   UNL     1      42.184 -11.054   6.339  1.00  0.00     0.048 A 
HETATM    6  C   UNL     1      42.964 -10.382   7.289  1.00  0.00     0.068 A 
HETATM    7  C   UNL     1      43.877 -14.311   6.464  1.00  0.00     0.032 A 
HETATM    8  C   UNL     1      43.151 -15.111   5.583  1.00  0.00     0.002 A 
HETATM    9  C   UNL     1      42.034 -14.589   4.954  1.00  0.00     0.001 A 
HETATM   10  C   UNL     1      41.667 -13.264   5.191  1.00  0.00     0.015 A 
ENDROOT
BRANCH   5  11
HETATM   11  C   UNL     1      41.080 -10.244   5.761  1.00  0.00     0.252 C 
HETATM   12  N   UNL     1      41.375  -9.329   4.776  1.00  0.00    -0.357 N 
HETATM   13  H   UNL     1      42.350  -9.065   4.654  1.00  0.00     0.162 HD
HETATM   14  O   UNL     1      39.930 -10.382   6.177  1.00  0.00    -0.268 OA
BRANCH  12  15
HETATM   15  C   UNL     1      40.370  -8.443   4.222  1.00  0.00     0.124 C 
BRANCH  15  16
HETATM   16  C   UNL     1      39.925  -8.804   2.799  1.00  0.00     0.047 C 
BRANCH  16  17
HETATM   17  C   UNL     1      40.932  -9.517   1.890  1.00  0.00     0.236 C 
BRANCH  17  18
HETATM   18  N   UNL     1      40.464 -10.850   1.388  1.00  0.00    -0.068 N 
HETATM   19  H   UNL     1      39.522 -10.689   0.974  1.00  0.00     0.280 HD
HETATM   20  C   UNL     1      41.358 -11.514   0.351  1.00  0.00     0.254 C 
HETATM   21  C   UNL     1      40.718 -12.823  -0.163  1.00  0.00     0.150 C 
HETATM   22  N   UNL     1      40.315 -13.725   0.932  1.00  0.00    -0.375 N 
HETATM   23  C   UNL     1      39.478 -13.094   1.975  1.00  0.00     0.150 C 
HETATM   24  C   UNL     1      40.162 -11.826   2.532  1.00  0.00     0.254 C 
BRANCH  22  25
HETATM   25  C   UNL     1      41.161 -14.758   1.349  1.00  0.00     0.069 A 
HETATM   26  C   UNL     1      40.729 -15.977   1.906  1.00  0.00     0.142 A 
HETATM   27  F   UNL     1      39.418 -16.241   2.029  1.00  0.00    -0.204 F 
HETATM   28  C   UNL     1      41.620 -16.973   2.310  1.00  0.00     0.044 A 
HETATM   29  C   UNL     1      42.990 -16.770   2.182  1.00  0.00     0.003 A 
HETATM   30  C   UNL     1      43.457 -15.571   1.655  1.00  0.00     0.002 A 
HETATM   31  C   UNL     1      42.554 -14.582   1.249  1.00  0.00     0.032 A 
ENDBRANCH  22  25
ENDBRANCH  17  18
ENDBRANCH  16  17
ENDBRANCH  15  16
ENDBRANCH  12  15
ENDBRANCH   5  11
BRANCH   1  32
HETATM   32  N   UNL     1      44.658 -10.385   8.976  1.00  0.00    -0.341 N 
HETATM   33  H   UNL     1      45.585 -10.769   9.118  1.00  0.00     0.167 HD
BRANCH  32  34
HETATM   34  C   UNL     1      44.138  -9.797  10.150  1.00  0.00     0.033 A 
HETATM   35  C   UNL     1      43.744 -10.541  11.266  1.00  0.00     0.030 A 
HETATM   36  C   UNL     1      43.147  -9.930  12.375  1.00  0.00     0.010 A 
HETATM   37  C   UNL     1      42.896  -8.553  12.386  1.00  0.00    -0.055 A 
HETATM   38  C   UNL     1      43.258  -7.806  11.258  1.00  0.00     0.010 A 
HETATM   39  C   UNL     1      43.859  -8.423  10.154  1.00  0.00     0.030 A 
BRANCH  37  40
HETATM   40  C   UNL     1      42.249  -7.868  13.577  1.00  0.00     0.010 C 
HETATM   41  C   UNL     1      43.268  -7.031  14.353  1.00  0.00     0.015 C 
HETATM   42  C   UNL     1      41.549  -8.869  14.500  1.00  0.00     0.015 C 
ENDBRANCH  37  40
ENDBRANCH  32  34
ENDBRANCH   1  32
TORSDOF 9
ENDMDL
MODEL 7
REMARK VINA RESULT:      -9.4      2.015      2.724
REMARK  9 active torsions:
REMARK  status: ('A' for Active; 'I' for Inactive)
REMARK    1  A    between atoms: C_2  and  C_3 
REMARK    2  A    between atoms: C_6  and  N_7 
REMARK    3  A    between atoms: N_7  and  C_8 
REMARK    4  A    between atoms: C_12  and  C_13 
REMARK       I    between atoms: C_13  and  N_14 
REMARK    5  A    between atoms: N_14  and  C_15 
REMARK    6  A    between atoms: C_15  and  C_16 
REMARK    7  A    between atoms: C_16  and  C_17 
REMARK    8  A    between atoms: C_17  and  N_18 
REMARK    9  A    between atoms: N_22  and  C_23 
ROOT
HETATM    1  C   UNL     1      40.567 -13.425   4.300  1.00  0.00     0.129 A 
HETATM    2  N   UNL     1      39.587 -12.578   4.653  1.00  0.00    -0.231 NA
HETATM    3  C   UNL     1      39.873 -11.393   5.210  1.00  0.00     0.070 A 
HETATM    4  C   UNL     1      41.187 -10.962   5.475  1.00  0.00     0.009 A 
HETATM    5  C   UNL     1      42.214 -11.837   5.037  1.00  0.00     0.048 A 
HETATM    6  C   UNL     1      41.893 -13.068   4.452  1.00  0.00     0.068 A 
HETATM    7  C   UNL     1      38.802 -10.584   5.562  1.00  0.00     0.032 A 
HETATM    8  C   UNL     1      38.979  -9.359   6.202  1.00  0.00     0.002 A 
HETATM    9  C   UNL     1      40.259  -8.938   6.522  1.00  0.00     0.001 A 
HETATM   10  C   UNL     1      41.351  -9.732   6.176  1.00  0.00     0.015 A 
ENDROOT
BRANCH   5  11
HETATM   11  C   UNL     1      43.671 -11.598   5.211  1.00  0.00     0.252 C 
HETATM   12  N   UNL     1      44.238 -11.826   6.445  1.00  0.00    -0.357 N 
HETATM   13  H   UNL     1      43.612 -11.907   7.243  1.00  0.00     0.162 HD
HETATM   14  O   UNL     1      44.346 -11.186   4.268  1.00  0.00    -0.268 OA
BRANCH  12  15
HETATM   15  C   UNL     1      45.633 -11.536   6.718  1.00  0.00     0.124 C 
BRANCH  15  16
HETATM   16  C   UNL     1      45.869 -10.218   7.464  1.00  0.00     0.047 C 
BRANCH  16  17
HETATM   17  C   UNL     1      45.813 -10.238   8.996  1.00  0.00     0.236 C 
BRANCH  17  18
HETATM   18  N   UNL     1      44.997  -9.131   9.591  1.00  0.00    -0.068 N 
HETATM   19  H   UNL     1      45.656  -8.563  10.166  1.00  0.00     0.280 HD
HETATM   20  C   UNL     1      44.295  -8.221   8.594  1.00  0.00     0.254 C 
HETATM   21  C   UNL     1      43.578  -7.062   9.322  1.00  0.00     0.150 C 
HETATM   22  N   UNL     1      42.701  -7.533  10.410  1.00  0.00    -0.375 N 
HETATM   23  C   UNL     1      43.348  -8.451  11.372  1.00  0.00     0.150 C 
HETATM   24  C   UNL     1      43.999  -9.643  10.636  1.00  0.00     0.254 C 
BRANCH  22  25
HETATM   25  C   UNL     1      41.333  -7.723  10.187  1.00  0.00     0.069 A 
HETATM   26  C   UNL     1      40.425  -6.705   9.838  1.00  0.00     0.142 A 
HETATM   27  F   UNL     1      40.855  -5.447   9.650  1.00  0.00    -0.204 F 
HETATM   28  C   UNL     1      39.067  -6.952   9.632  1.00  0.00     0.044 A 
HETATM   29  C   UNL     1      38.566  -8.240   9.785  1.00  0.00     0.003 A 
HETATM   30  C   UNL     1      39.427  -9.270  10.149  1.00  0.00     0.002 A 
HETATM   31  C   UNL     1      40.788  -9.011  10.348  1.00  0.00     0.032 A 
ENDBRANCH  22  25
ENDBRANCH  17  18
ENDBRANCH  16  17
ENDBRANCH  15  16
ENDBRANCH  12  15
ENDBRANCH   5  11
BRANCH   1  32
HETATM   32  N   UNL     1      40.284 -14.720   3.822  1.00  0.00    -0.341 N 
HETATM   33  H   UNL     1      39.333 -14.994   4.039  1.00  0.00     0.167 HD
BRANCH  32  34
HETATM   34  C   UNL     1      41.144 -15.834   3.700  1.00  0.00     0.033 A 
HETATM   35  C   UNL     1      41.830 -16.391   4.783  1.00  0.00     0.030 A 
HETATM   36  C   UNL     1      42.746 -17.436   4.606  1.00  0.00     0.010 A 
HETATM   37  C   UNL     1      43.026 -17.934   3.329  1.00  0.00    -0.055 A 
HETATM   38  C   UNL     1      42.368 -17.359   2.236  1.00  0.00     0.010 A 
HETATM   39  C   UNL     1      41.450 -16.318   2.420  1.00  0.00     0.030 A 
BRANCH  37  40
HETATM   40  C   UNL     1      44.016 -19.066   3.113  1.00  0.00     0.010 C 
HETATM   41  C   UNL     1      43.492 -20.068   2.081  1.00  0.00     0.015 C 
HETATM   42  C   UNL     1      44.373 -19.770   4.424  1.00  0.00     0.015 C 
ENDBRANCH  37  40
ENDBRANCH  32  34
ENDBRANCH   1  32
TORSDOF 9
ENDMDL
MODEL 8
REMARK VINA RESULT:      -9.4      4.668      8.809
REMARK  9 active torsions:
REMARK  status: ('A' for Active; 'I' for Inactive)
REMARK    1  A    between atoms: C_2  and  C_3 
REMARK    2  A    between atoms: C_6  and  N_7 
REMARK    3  A    between atoms: N_7  and  C_8 
REMARK    4  A    between atoms: C_12  and  C_13 
REMARK       I    between atoms: C_13  and  N_14 
REMARK    5  A    between atoms: N_14  and  C_15 
REMARK    6  A    between atoms: C_15  and  C_16 
REMARK    7  A    between atoms: C_16  and  C_17 
REMARK    8  A    between atoms: C_17  and  N_18 
REMARK    9  A    between atoms: N_22  and  C_23 
ROOT
HETATM    1  C   UNL     1      40.781 -15.896   2.218  1.00  0.00     0.129 A 
HETATM    2  N   UNL     1      41.402 -17.043   1.899  1.00  0.00    -0.231 NA
HETATM    3  C   UNL     1      42.374 -17.536   2.680  1.00  0.00     0.070 A 
HETATM    4  C   UNL     1      42.818 -16.898   3.854  1.00  0.00     0.009 A 
HETATM    5  C   UNL     1      42.109 -15.723   4.214  1.00  0.00     0.048 A 
HETATM    6  C   UNL     1      41.093 -15.229   3.387  1.00  0.00     0.068 A 
HETATM    7  C   UNL     1      42.976 -18.717   2.271  1.00  0.00     0.032 A 
HETATM    8  C   UNL     1      44.037 -19.287   2.971  1.00  0.00     0.002 A 
HETATM    9  C   UNL     1      44.528 -18.652   4.099  1.00  0.00     0.001 A 
HETATM   10  C   UNL     1      43.936 -17.465   4.531  1.00  0.00     0.015 A 
ENDROOT
BRANCH   5  11
HETATM   11  C   UNL     1      42.401 -14.881   5.404  1.00  0.00     0.252 C 
HETATM   12  N   UNL     1      43.062 -13.687   5.226  1.00  0.00    -0.357 N 
HETATM   13  H   UNL     1      43.541 -13.542   4.340  1.00  0.00     0.162 HD
HETATM   14  O   UNL     1      42.069 -15.263   6.526  1.00  0.00    -0.268 OA
BRANCH  12  15
HETATM   15  C   UNL     1      43.458 -12.851   6.343  1.00  0.00     0.124 C 
BRANCH  15  16
HETATM   16  C   UNL     1      42.573 -11.615   6.549  1.00  0.00     0.047 C 
BRANCH  16  17
HETATM   17  C   UNL     1      41.144 -11.652   5.996  1.00  0.00     0.236 C 
BRANCH  17  18
HETATM   18  N   UNL     1      40.876 -10.632   4.931  1.00  0.00    -0.068 N 
HETATM   19  H   UNL     1      41.292  -9.740   5.273  1.00  0.00     0.280 HD
HETATM   20  C   UNL     1      41.445 -10.951   3.556  1.00  0.00     0.254 C 
HETATM   21  C   UNL     1      41.196  -9.782   2.577  1.00  0.00     0.150 C 
HETATM   22  N   UNL     1      39.783  -9.358   2.548  1.00  0.00    -0.375 N 
HETATM   23  C   UNL     1      39.194  -9.080   3.875  1.00  0.00     0.150 C 
HETATM   24  C   UNL     1      39.387 -10.285   4.822  1.00  0.00     0.254 C 
BRANCH  22  25
HETATM   25  C   UNL     1      38.914  -9.851   1.569  1.00  0.00     0.069 A 
HETATM   26  C   UNL     1      38.305 -11.121   1.600  1.00  0.00     0.142 A 
HETATM   27  F   UNL     1      38.502 -11.943   2.643  1.00  0.00    -0.204 F 
HETATM   28  C   UNL     1      37.449 -11.564   0.591  1.00  0.00     0.044 A 
HETATM   29  C   UNL     1      37.184 -10.747  -0.502  1.00  0.00     0.003 A 
HETATM   30  C   UNL     1      37.783  -9.494  -0.580  1.00  0.00     0.002 A 
HETATM   31  C   UNL     1      38.636  -9.058   0.440  1.00  0.00     0.032 A 
ENDBRANCH  22  25
ENDBRANCH  17  18
ENDBRANCH  16  17
ENDBRANCH  15  16
ENDBRANCH  12  15
ENDBRANCH   5  11
BRANCH   1  32
HETATM   32  N   UNL     1      39.841 -15.302   1.352  1.00  0.00    -0.341 N 
HETATM   33  H   UNL     1      39.141 -15.971   1.053  1.00  0.00     0.167 HD
BRANCH  32  34
HETATM   34  C   UNL     1      40.024 -14.266   0.410  1.00  0.00     0.033 A 
HETATM   35  C   UNL     1      39.461 -14.289  -0.869  1.00  0.00     0.030 A 
HETATM   36  C   UNL     1      39.742 -13.288  -1.807  1.00  0.00     0.010 A 
HETATM   37  C   UNL     1      40.627 -12.247  -1.501  1.00  0.00    -0.055 A 
HETATM   38  C   UNL     1      41.220 -12.236  -0.233  1.00  0.00     0.010 A 
HETATM   39  C   UNL     1      40.931 -13.237   0.702  1.00  0.00     0.030 A 
BRANCH  37  40
HETATM   40  C   UNL     1      40.947 -11.152  -2.502  1.00  0.00     0.010 C 
HETATM   41  C   UNL     1      41.521  -9.916  -1.804  1.00  0.00     0.015 C 
HETATM   42  C   UNL     1      39.730 -10.781  -3.352  1.00  0.00     0.015 C 
ENDBRANCH  37  40
ENDBRANCH  32  34
ENDBRANCH   1  32
TORSDOF 9
ENDMDL
MODEL 9
REMARK VINA RESULT:      -9.4      2.548     11.195
REMARK  9 active torsions:
REMARK  status: ('A' for Active; 'I' for Inactive)
REMARK    1  A    between atoms: C_2  and  C_3 
REMARK    2  A    between atoms: C_6  and  N_7 
REMARK    3  A    between atoms: N_7  and  C_8 
REMARK    4  A    between atoms: C_12  and  C_13 
REMARK       I    between atoms: C_13  and  N_14 
REMARK    5  A    between atoms: N_14  and  C_15 
REMARK    6  A    between atoms: C_15  and  C_16 
REMARK    7  A    between atoms: C_16  and  C_17 
REMARK    8  A    between atoms: C_17  and  N_18 
REMARK    9  A    between atoms: N_22  and  C_23 
ROOT
HETATM    1  C   UNL     1      43.266  -7.524   9.002  1.00  0.00     0.129 A 
HETATM    2  N   UNL     1      44.493  -8.065   8.934  1.00  0.00    -0.231 NA
HETATM    3  C   UNL     1      44.725  -9.143   8.172  1.00  0.00     0.070 A 
HETATM    4  C   UNL     1      43.724  -9.786   7.418  1.00  0.00     0.009 A 
HETATM    5  C   UNL     1      42.448  -9.166   7.447  1.00  0.00     0.048 A 
HETATM    6  C   UNL     1      42.229  -8.035   8.245  1.00  0.00     0.068 A 
HETATM    7  C   UNL     1      46.016  -9.650   8.170  1.00  0.00     0.032 A 
HETATM    8  C   UNL     1      46.358 -10.802   7.464  1.00  0.00     0.002 A 
HETATM    9  C   UNL     1      45.380 -11.483   6.759  1.00  0.00     0.001 A 
HETATM   10  C   UNL     1      44.075 -10.990   6.743  1.00  0.00     0.015 A 
ENDROOT
BRANCH   5  11
HETATM   11  C   UNL     1      41.241  -9.663   6.737  1.00  0.00     0.252 C 
HETATM   12  N   UNL     1      40.662 -10.839   7.156  1.00  0.00    -0.357 N 
HETATM   13  H   UNL     1      41.211 -11.445   7.762  1.00  0.00     0.162 HD
HETATM   14  O   UNL     1      40.786  -9.036   5.780  1.00  0.00    -0.268 OA
BRANCH  12  15
HETATM   15  C   UNL     1      39.535 -11.433   6.464  1.00  0.00     0.124 C 
BRANCH  15  16
HETATM   16  C   UNL     1      39.892 -12.657   5.611  1.00  0.00     0.047 C 
BRANCH  16  17
HETATM   17  C   UNL     1      41.353 -12.831   5.179  1.00  0.00     0.236 C 
BRANCH  17  18
HETATM   18  N   UNL     1      41.545 -13.808   4.059  1.00  0.00    -0.068 N 
HETATM   19  H   UNL     1      41.014 -13.427   3.247  1.00  0.00     0.280 HD
HETATM   20  C   UNL     1      42.987 -14.052   3.639  1.00  0.00     0.254 C 
HETATM   21  C   UNL     1      43.048 -14.990   2.413  1.00  0.00     0.150 C 
HETATM   22  N   UNL     1      42.273 -16.230   2.609  1.00  0.00    -0.375 N 
HETATM   23  C   UNL     1      40.879 -16.023   3.056  1.00  0.00     0.150 C 
HETATM   24  C   UNL     1      40.837 -15.142   4.324  1.00  0.00     0.254 C 
BRANCH  22  25
HETATM   25  C   UNL     1      42.903 -17.399   3.048  1.00  0.00     0.069 A 
HETATM   26  C   UNL     1      43.553 -17.546   4.289  1.00  0.00     0.142 A 
HETATM   27  F   UNL     1      43.562 -16.537   5.174  1.00  0.00    -0.204 F 
HETATM   28  C   UNL     1      44.171 -18.737   4.673  1.00  0.00     0.044 A 
HETATM   29  C   UNL     1      44.171 -19.827   3.811  1.00  0.00     0.003 A 
HETATM   30  C   UNL     1      43.558 -19.716   2.568  1.00  0.00     0.002 A 
HETATM   31  C   UNL     1      42.937 -18.518   2.195  1.00  0.00     0.032 A 
ENDBRANCH  22  25
ENDBRANCH  17  18
ENDBRANCH  16  17
ENDBRANCH  15  16
ENDBRANCH  12  15
ENDBRANCH   5  11
BRANCH   1  32
HETATM   32  N   UNL     1      42.976  -6.465   9.885  1.00  0.00    -0.341 N 
HETATM   33  H   UNL     1      43.478  -5.623   9.628  1.00  0.00     0.167 HD
BRANCH  32  34
HETATM   34  C   UNL     1      42.679  -6.508  11.265  1.00  0.00     0.033 A 
HETATM   35  C   UNL     1      42.238  -5.395  11.986  1.00  0.00     0.030 A 
HETATM   36  C   UNL     1      42.044  -5.454  13.371  1.00  0.00     0.010 A 
HETATM   37  C   UNL     1      42.319  -6.627  14.084  1.00  0.00    -0.055 A 
HETATM   38  C   UNL     1      42.793  -7.736  13.373  1.00  0.00     0.010 A 
HETATM   39  C   UNL     1      42.980  -7.672  11.987  1.00  0.00     0.030 A 
BRANCH  37  40
HETATM   40  C   UNL     1      42.117  -6.715  15.586  1.00  0.00     0.010 C 
HETATM   41  C   UNL     1      41.420  -8.020  15.975  1.00  0.00     0.015 C 
HETATM   42  C   UNL     1      41.353  -5.506  16.131  1.00  0.00     0.015 C 
ENDBRANCH  37  40
ENDBRANCH  32  34
ENDBRANCH   1  32
TORSDOF 9
ENDMDL
MODEL 10
REMARK VINA RESULT:      -9.3      4.678      7.352
REMARK  9 active torsions:
REMARK  status: ('A' for Active; 'I' for Inactive)
REMARK    1  A    between atoms: C_2  and  C_3 
REMARK    2  A    between atoms: C_6  and  N_7 
REMARK    3  A    between atoms: N_7  and  C_8 
REMARK    4  A    between atoms: C_12  and  C_13 
REMARK       I    between atoms: C_13  and  N_14 
REMARK    5  A    between atoms: N_14  and  C_15 
REMARK    6  A    between atoms: C_15  and  C_16 
REMARK    7  A    between atoms: C_16  and  C_17 
REMARK    8  A    between atoms: C_17  and  N_18 
REMARK    9  A    between atoms: N_22  and  C_23 
ROOT
HETATM    1  C   UNL     1      40.632 -13.413   0.536  1.00  0.00     0.129 A 
HETATM    2  N   UNL     1      40.404 -14.121  -0.581  1.00  0.00    -0.231 NA
HETATM    3  C   UNL     1      39.375 -13.820  -1.385  1.00  0.00     0.070 A 
HETATM    4  C   UNL     1      38.469 -12.774  -1.121  1.00  0.00     0.009 A 
HETATM    5  C   UNL     1      38.760 -11.992   0.026  1.00  0.00     0.048 A 
HETATM    6  C   UNL     1      39.845 -12.322   0.850  1.00  0.00     0.068 A 
HETATM    7  C   UNL     1      39.199 -14.612  -2.511  1.00  0.00     0.032 A 
HETATM    8  C   UNL     1      38.129 -14.428  -3.385  1.00  0.00     0.002 A 
HETATM    9  C   UNL     1      37.194 -13.442  -3.118  1.00  0.00     0.001 A 
HETATM   10  C   UNL     1      37.352 -12.631  -1.994  1.00  0.00     0.015 A 
ENDROOT
BRANCH   5  11
HETATM   11  C   UNL     1      37.947 -10.844   0.506  1.00  0.00     0.252 C 
HETATM   12  N   UNL     1      38.408  -9.566   0.285  1.00  0.00    -0.357 N 
HETATM   13  H   UNL     1      39.387  -9.456   0.030  1.00  0.00     0.162 HD
HETATM   14  O   UNL     1      36.890 -11.045   1.105  1.00  0.00    -0.268 OA
BRANCH  12  15
HETATM   15  C   UNL     1      37.716  -8.399   0.795  1.00  0.00     0.124 C 
BRANCH  15  16
HETATM   16  C   UNL     1      38.347  -7.791   2.054  1.00  0.00     0.047 C 
BRANCH  16  17
HETATM   17  C   UNL     1      38.006  -8.424   3.408  1.00  0.00     0.236 C 
BRANCH  17  18
HETATM   18  N   UNL     1      39.203  -8.755   4.246  1.00  0.00    -0.068 N 
HETATM   19  H   UNL     1      39.743  -7.869   4.342  1.00  0.00     0.280 HD
HETATM   20  C   UNL     1      38.904  -9.310   5.631  1.00  0.00     0.254 C 
HETATM   21  C   UNL     1      40.210  -9.510   6.433  1.00  0.00     0.150 C 
HETATM   22  N   UNL     1      41.217 -10.291   5.689  1.00  0.00    -0.375 N 
HETATM   23  C   UNL     1      41.498  -9.797   4.324  1.00  0.00     0.150 C 
HETATM   24  C   UNL     1      40.191  -9.669   3.510  1.00  0.00     0.254 C 
BRANCH  22  25
HETATM   25  C   UNL     1      41.338 -11.670   5.893  1.00  0.00     0.069 A 
HETATM   26  C   UNL     1      42.559 -12.362   6.006  1.00  0.00     0.142 A 
HETATM   27  F   UNL     1      43.724 -11.696   5.968  1.00  0.00    -0.204 F 
HETATM   28  C   UNL     1      42.620 -13.743   6.203  1.00  0.00     0.044 A 
HETATM   29  C   UNL     1      41.447 -14.485   6.278  1.00  0.00     0.003 A 
HETATM   30  C   UNL     1      40.221 -13.840   6.150  1.00  0.00     0.002 A 
HETATM   31  C   UNL     1      40.172 -12.455   5.958  1.00  0.00     0.032 A 
ENDBRANCH  22  25
ENDBRANCH  17  18
ENDBRANCH  16  17
ENDBRANCH  15  16
ENDBRANCH  12  15
ENDBRANCH   5  11
BRANCH   1  32
HETATM   32  N   UNL     1      41.635 -13.786   1.454  1.00  0.00    -0.341 N 
HETATM   33  H   UNL     1      42.433 -13.164   1.400  1.00  0.00     0.167 HD
BRANCH  32  34
HETATM   34  C   UNL     1      41.991 -15.073   1.912  1.00  0.00     0.033 A 
HETATM   35  C   UNL     1      41.316 -15.730   2.944  1.00  0.00     0.030 A 
HETATM   36  C   UNL     1      41.758 -16.965   3.434  1.00  0.00     0.010 A 
HETATM   37  C   UNL     1      42.914 -17.566   2.922  1.00  0.00    -0.055 A 
HETATM   38  C   UNL     1      43.614 -16.898   1.911  1.00  0.00     0.010 A 
HETATM   39  C   UNL     1      43.164 -15.666   1.423  1.00  0.00     0.030 A 
BRANCH  37  40
HETATM   40  C   UNL     1      43.412 -18.905   3.438  1.00  0.00     0.010 C 
HETATM   41  C   UNL     1      44.657 -18.732   4.312  1.00  0.00     0.015 C 
HETATM   42  C   UNL     1      43.679 -19.892   2.299  1.00  0.00     0.015 C 
ENDBRANCH  37  40
ENDBRANCH  32  34
ENDBRANCH   1  32
TORSDOF 9
ENDMDL
