MODEL 1
REMARK VINA RESULT:      -7.7      0.000      0.000
REMARK  4 active torsions:
REMARK  status: ('A' for Active; 'I' for Inactive)
REMARK    1  A    between atoms: C_2  and  C_3 
REMARK    2  A    between atoms: C_5  and  N_6 
REMARK       I    between atoms: N_6  and  C_7 
REMARK    3  A    between atoms: C_7  and  C_8 
REMARK    4  A    between atoms: C_16  and  O_17 
ROOT
HETATM    1  C   UNL     1      39.438 -13.489  -0.722  1.00  0.00    -0.048 A 
HETATM    2  C   UNL     1      40.233 -14.457  -0.079  1.00  0.00     0.040 A 
HETATM    3  C   UNL     1      40.482 -14.405   1.298  1.00  0.00     0.069 A 
HETATM    4  C   UNL     1      39.926 -13.368   2.073  1.00  0.00     0.095 A 
HETATM    5  C   UNL     1      39.157 -12.389   1.450  1.00  0.00     0.039 A 
HETATM    6  C   UNL     1      38.926 -12.447   0.071  1.00  0.00     0.011 A 
ENDROOT
BRANCH   3   7
HETATM    7  N   UNL     1      41.268 -15.358   1.987  1.00  0.00    -0.320 N 
HETATM    8  C   UNL     1      42.630 -15.343   2.200  1.00  0.00     0.257 C 
HETATM    9  O   UNL     1      43.422 -14.462   1.892  1.00  0.00    -0.267 OA
HETATM   10  H   UNL     1      40.707 -16.068   2.449  1.00  0.00     0.169 HD
BRANCH   8  11
HETATM   11  C   UNL     1      43.152 -16.516   2.931  1.00  0.00     0.051 A 
HETATM   12  C   UNL     1      43.582 -16.416   4.250  1.00  0.00     0.133 A 
HETATM   13  N   UNL     1      44.073 -17.461   4.960  1.00  0.00    -0.271 NA
HETATM   14  C   UNL     1      44.113 -18.658   4.326  1.00  0.00     0.135 A 
HETATM   15  C   UNL     1      43.686 -18.853   3.019  1.00  0.00     0.029 A 
HETATM   16 BR   UNL     1      43.783 -20.556   2.218  1.00  0.00    -0.050 Br
HETATM   17  C   UNL     1      43.189 -17.765   2.309  1.00  0.00     0.039 A 
ENDBRANCH   8  11
ENDBRANCH   3   7
BRANCH   4  18
HETATM   18  O   UNL     1      40.214 -13.415   3.417  1.00  0.00    -0.354 OA
HETATM   19  C   UNL     1      39.784 -12.312   4.206  1.00  0.00     0.210 C 
ENDBRANCH   4  18
BRANCH   1  20
HETATM   20  C   UNL     1      39.156 -13.529  -2.236  1.00  0.00    -0.024 C 
HETATM   21  C   UNL     1      38.814 -14.939  -2.768  1.00  0.00     0.019 C 
HETATM   22  C   UNL     1      40.409 -13.031  -2.985  1.00  0.00     0.019 C 
HETATM   23  C   UNL     1      37.958 -12.619  -2.595  1.00  0.00     0.019 C 
ENDBRANCH   1  20
TORSDOF 4
ENDMDL
MODEL 2
REMARK VINA RESULT:      -7.2      2.915      7.014
REMARK  4 active torsions:
REMARK  status: ('A' for Active; 'I' for Inactive)
REMARK    1  A    between atoms: C_2  and  C_3 
REMARK    2  A    between atoms: C_5  and  N_6 
REMARK       I    between atoms: N_6  and  C_7 
REMARK    3  A    between atoms: C_7  and  C_8 
REMARK    4  A    between atoms: C_16  and  O_17 
ROOT
HETATM    1  C   UNL     1      42.612 -16.093   5.447  1.00  0.00    -0.048 A 
HETATM    2  C   UNL     1      42.336 -15.664   4.135  1.00  0.00     0.040 A 
HETATM    3  C   UNL     1      41.346 -14.711   3.867  1.00  0.00     0.069 A 
HETATM    4  C   UNL     1      40.604 -14.155   4.927  1.00  0.00     0.095 A 
HETATM    5  C   UNL     1      40.847 -14.584   6.229  1.00  0.00     0.039 A 
HETATM    6  C   UNL     1      41.832 -15.545   6.481  1.00  0.00     0.011 A 
ENDROOT
BRANCH   3   7
HETATM    7  N   UNL     1      41.038 -14.246   2.567  1.00  0.00    -0.320 N 
HETATM    8  C   UNL     1      40.445 -14.940   1.535  1.00  0.00     0.257 C 
HETATM    9  O   UNL     1      40.001 -16.080   1.562  1.00  0.00    -0.267 OA
HETATM   10  H   UNL     1      41.200 -13.249   2.460  1.00  0.00     0.169 HD
BRANCH   8  11
HETATM   11  C   UNL     1      40.296 -14.171   0.281  1.00  0.00     0.051 A 
HETATM   12  C   UNL     1      40.932 -12.949   0.100  1.00  0.00     0.133 A 
HETATM   13  N   UNL     1      40.823 -12.206  -1.028  1.00  0.00    -0.271 NA
HETATM   14  C   UNL     1      40.059 -12.723  -2.021  1.00  0.00     0.135 A 
HETATM   15  C   UNL     1      39.404 -13.945  -1.934  1.00  0.00     0.029 A 
HETATM   16 BR   UNL     1      38.361 -14.582  -3.368  1.00  0.00    -0.050 Br
HETATM   17  C   UNL     1      39.529 -14.688  -0.765  1.00  0.00     0.039 A 
ENDBRANCH   8  11
ENDBRANCH   3   7
BRANCH   4  18
HETATM   18  O   UNL     1      39.668 -13.214   4.564  1.00  0.00    -0.354 OA
HETATM   19  C   UNL     1      39.395 -12.181   5.504  1.00  0.00     0.210 C 
ENDBRANCH   4  18
BRANCH   1  20
HETATM   20  C   UNL     1      43.696 -17.142   5.760  1.00  0.00    -0.024 C 
HETATM   21  C   UNL     1      43.230 -18.247   6.736  1.00  0.00     0.019 C 
HETATM   22  C   UNL     1      44.905 -16.428   6.397  1.00  0.00     0.019 C 
HETATM   23  C   UNL     1      44.155 -17.859   4.469  1.00  0.00     0.019 C 
ENDBRANCH   1  20
TORSDOF 4
ENDMDL
MODEL 3
REMARK VINA RESULT:      -7.0      2.701      7.017
REMARK  4 active torsions:
REMARK  status: ('A' for Active; 'I' for Inactive)
REMARK    1  A    between atoms: C_2  and  C_3 
REMARK    2  A    between atoms: C_5  and  N_6 
REMARK       I    between atoms: N_6  and  C_7 
REMARK    3  A    between atoms: C_7  and  C_8 
REMARK    4  A    between atoms: C_16  and  O_17 
ROOT
HETATM    1  C   UNL     1      43.456 -18.358   3.141  1.00  0.00    -0.048 A 
HETATM    2  C   UNL     1      42.773 -17.563   2.201  1.00  0.00     0.040 A 
HETATM    3  C   UNL     1      42.531 -16.203   2.428  1.00  0.00     0.069 A 
HETATM    4  C   UNL     1      42.982 -15.599   3.618  1.00  0.00     0.095 A 
HETATM    5  C   UNL     1      43.639 -16.374   4.569  1.00  0.00     0.039 A 
HETATM    6  C   UNL     1      43.864 -17.736   4.334  1.00  0.00     0.011 A 
ENDROOT
BRANCH   3   7
HETATM    7  N   UNL     1      41.854 -15.364   1.510  1.00  0.00    -0.320 N 
HETATM    8  C   UNL     1      40.497 -15.173   1.376  1.00  0.00     0.257 C 
HETATM    9  O   UNL     1      39.606 -15.640   2.074  1.00  0.00    -0.267 OA
HETATM   10  H   UNL     1      42.489 -14.778   0.975  1.00  0.00     0.169 HD
BRANCH   8  11
HETATM   11  C   UNL     1      40.109 -14.251   0.288  1.00  0.00     0.051 A 
HETATM   12  C   UNL     1      40.352 -12.885   0.372  1.00  0.00     0.133 A 
HETATM   13  N   UNL     1      40.012 -12.001  -0.596  1.00  0.00    -0.271 NA
HETATM   14  C   UNL     1      39.422 -12.514  -1.703  1.00  0.00     0.135 A 
HETATM   15  C   UNL     1      39.159 -13.866  -1.881  1.00  0.00     0.029 A 
HETATM   16 BR   UNL     1      38.331 -14.487  -3.456  1.00  0.00    -0.050 Br
HETATM   17  C   UNL     1      39.515 -14.754  -0.871  1.00  0.00     0.039 A 
ENDBRANCH   8  11
ENDBRANCH   3   7
BRANCH   4  18
HETATM   18  O   UNL     1      42.713 -14.255   3.738  1.00  0.00    -0.354 OA
HETATM   19  C   UNL     1      41.824 -13.868   4.780  1.00  0.00     0.210 C 
ENDBRANCH   4  18
BRANCH   1  20
HETATM   20  C   UNL     1      43.728 -19.856   2.909  1.00  0.00    -0.024 C 
HETATM   21  C   UNL     1      43.896 -20.667   4.215  1.00  0.00     0.019 C 
HETATM   22  C   UNL     1      45.028 -20.001   2.092  1.00  0.00     0.019 C 
HETATM   23  C   UNL     1      42.565 -20.512   2.130  1.00  0.00     0.019 C 
ENDBRANCH   1  20
TORSDOF 4
ENDMDL
MODEL 4
REMARK VINA RESULT:      -6.9      3.750      7.803
REMARK  4 active torsions:
REMARK  status: ('A' for Active; 'I' for Inactive)
REMARK    1  A    between atoms: C_2  and  C_3 
REMARK    2  A    between atoms: C_5  and  N_6 
REMARK       I    between atoms: N_6  and  C_7 
REMARK    3  A    between atoms: C_7  and  C_8 
REMARK    4  A    between atoms: C_16  and  O_17 
ROOT
HETATM    1  C   UNL     1      42.804 -16.649   4.473  1.00  0.00    -0.048 A 
HETATM    2  C   UNL     1      42.215 -15.415   4.808  1.00  0.00     0.040 A 
HETATM    3  C   UNL     1      41.287 -14.792   3.965  1.00  0.00     0.069 A 
HETATM    4  C   UNL     1      40.918 -15.406   2.752  1.00  0.00     0.095 A 
HETATM    5  C   UNL     1      41.507 -16.616   2.393  1.00  0.00     0.039 A 
HETATM    6  C   UNL     1      42.443 -17.221   3.240  1.00  0.00     0.011 A 
ENDROOT
BRANCH   3   7
HETATM    7  N   UNL     1      40.665 -13.556   4.263  1.00  0.00    -0.320 N 
HETATM    8  C   UNL     1      39.955 -13.213   5.392  1.00  0.00     0.257 C 
HETATM    9  O   UNL     1      39.779 -13.891   6.396  1.00  0.00    -0.267 OA
HETATM   10  H   UNL     1      40.881 -12.836   3.580  1.00  0.00     0.169 HD
BRANCH   8  11
HETATM   11  C   UNL     1      39.399 -11.844   5.378  1.00  0.00     0.051 A 
HETATM   12  C   UNL     1      39.117 -11.163   6.557  1.00  0.00     0.133 A 
HETATM   13  N   UNL     1      38.604  -9.910   6.595  1.00  0.00    -0.271 NA
HETATM   14  C   UNL     1      38.384  -9.309   5.400  1.00  0.00     0.135 A 
HETATM   15  C   UNL     1      38.655  -9.907   4.175  1.00  0.00     0.029 A 
HETATM   16 BR   UNL     1      38.312  -8.994   2.562  1.00  0.00    -0.050 Br
HETATM   17  C   UNL     1      39.179 -11.195   4.162  1.00  0.00     0.039 A 
ENDBRANCH   8  11
ENDBRANCH   3   7
BRANCH   4  18
HETATM   18  O   UNL     1      39.985 -14.725   2.004  1.00  0.00    -0.354 OA
HETATM   19  C   UNL     1      40.181 -14.706   0.595  1.00  0.00     0.210 C 
ENDBRANCH   4  18
BRANCH   1  20
HETATM   20  C   UNL     1      43.829 -17.348   5.386  1.00  0.00    -0.024 C 
HETATM   21  C   UNL     1      44.834 -16.378   6.049  1.00  0.00     0.019 C 
HETATM   22  C   UNL     1      44.633 -18.358   4.543  1.00  0.00     0.019 C 
HETATM   23  C   UNL     1      43.119 -18.100   6.535  1.00  0.00     0.019 C 
ENDBRANCH   1  20
TORSDOF 4
ENDMDL
MODEL 5
REMARK VINA RESULT:      -6.8      1.815      2.111
REMARK  4 active torsions:
REMARK  status: ('A' for Active; 'I' for Inactive)
REMARK    1  A    between atoms: C_2  and  C_3 
REMARK    2  A    between atoms: C_5  and  N_6 
REMARK       I    between atoms: N_6  and  C_7 
REMARK    3  A    between atoms: C_7  and  C_8 
REMARK    4  A    between atoms: C_16  and  O_17 
ROOT
HETATM    1  C   UNL     1      40.535 -12.863  -0.052  1.00  0.00    -0.048 A 
HETATM    2  C   UNL     1      40.984 -13.824   0.874  1.00  0.00     0.040 A 
HETATM    3  C   UNL     1      41.736 -13.465   1.998  1.00  0.00     0.069 A 
HETATM    4  C   UNL     1      42.055 -12.112   2.226  1.00  0.00     0.095 A 
HETATM    5  C   UNL     1      41.640 -11.150   1.309  1.00  0.00     0.039 A 
HETATM    6  C   UNL     1      40.899 -11.525   0.183  1.00  0.00     0.011 A 
ENDROOT
BRANCH   3   7
HETATM    7  N   UNL     1      42.203 -14.395   2.958  1.00  0.00    -0.320 N 
HETATM    8  C   UNL     1      43.051 -15.463   2.763  1.00  0.00     0.257 C 
HETATM    9  O   UNL     1      43.627 -15.778   1.730  1.00  0.00    -0.267 OA
HETATM   10  H   UNL     1      41.935 -14.146   3.906  1.00  0.00     0.169 HD
BRANCH   8  11
HETATM   11  C   UNL     1      43.315 -16.268   3.974  1.00  0.00     0.051 A 
HETATM   12  C   UNL     1      43.274 -15.705   5.244  1.00  0.00     0.133 A 
HETATM   13  N   UNL     1      43.513 -16.400   6.382  1.00  0.00    -0.271 NA
HETATM   14  C   UNL     1      43.784 -17.720   6.238  1.00  0.00     0.135 A 
HETATM   15  C   UNL     1      43.827 -18.370   5.011  1.00  0.00     0.029 A 
HETATM   16 BR   UNL     1      44.217 -20.211   4.909  1.00  0.00    -0.050 Br
HETATM   17  C   UNL     1      43.581 -17.634   3.857  1.00  0.00     0.039 A 
ENDBRANCH   8  11
ENDBRANCH   3   7
BRANCH   4  18
HETATM   18  O   UNL     1      42.782 -11.859   3.367  1.00  0.00    -0.354 OA
HETATM   19  C   UNL     1      42.522 -10.631   4.036  1.00  0.00     0.210 C 
ENDBRANCH   4  18
BRANCH   1  20
HETATM   20  C   UNL     1      39.709 -13.240  -1.296  1.00  0.00    -0.024 C 
HETATM   21  C   UNL     1      38.369 -12.477  -1.407  1.00  0.00     0.019 C 
HETATM   22  C   UNL     1      39.391 -14.748  -1.239  1.00  0.00     0.019 C 
HETATM   23  C   UNL     1      40.497 -12.938  -2.591  1.00  0.00     0.019 C 
ENDBRANCH   1  20
TORSDOF 4
ENDMDL
MODEL 6
REMARK VINA RESULT:      -6.8      6.424      8.929
REMARK  4 active torsions:
REMARK  status: ('A' for Active; 'I' for Inactive)
REMARK    1  A    between atoms: C_2  and  C_3 
REMARK    2  A    between atoms: C_5  and  N_6 
REMARK       I    between atoms: N_6  and  C_7 
REMARK    3  A    between atoms: C_7  and  C_8 
REMARK    4  A    between atoms: C_16  and  O_17 
ROOT
HETATM    1  C   UNL     1      43.084 -14.500   5.305  1.00  0.00    -0.048 A 
HETATM    2  C   UNL     1      43.119 -13.671   6.443  1.00  0.00     0.040 A 
HETATM    3  C   UNL     1      43.015 -12.278   6.339  1.00  0.00     0.069 A 
HETATM    4  C   UNL     1      42.867 -11.678   5.073  1.00  0.00     0.095 A 
HETATM    5  C   UNL     1      42.854 -12.480   3.935  1.00  0.00     0.039 A 
HETATM    6  C   UNL     1      42.970 -13.870   4.053  1.00  0.00     0.011 A 
ENDROOT
BRANCH   3   7
HETATM    7  N   UNL     1      43.039 -11.407   7.453  1.00  0.00    -0.320 N 
HETATM    8  C   UNL     1      44.122 -11.038   8.221  1.00  0.00     0.257 C 
HETATM    9  O   UNL     1      45.296 -11.339   8.046  1.00  0.00    -0.267 OA
HETATM   10  H   UNL     1      42.148 -10.944   7.607  1.00  0.00     0.169 HD
BRANCH   8  11
HETATM   11  C   UNL     1      43.802 -10.133   9.345  1.00  0.00     0.051 A 
HETATM   12  C   UNL     1      43.799 -10.583  10.660  1.00  0.00     0.133 A 
HETATM   13  N   UNL     1      43.508  -9.795  11.723  1.00  0.00    -0.271 NA
HETATM   14  C   UNL     1      43.228  -8.496  11.453  1.00  0.00     0.135 A 
HETATM   15  C   UNL     1      43.228  -7.957  10.173  1.00  0.00     0.029 A 
HETATM   16 BR   UNL     1      42.823  -6.137   9.895  1.00  0.00    -0.050 Br
HETATM   17  C   UNL     1      43.527  -8.787   9.098  1.00  0.00     0.039 A 
ENDBRANCH   8  11
ENDBRANCH   3   7
BRANCH   4  18
HETATM   18  O   UNL     1      42.755 -10.306   5.078  1.00  0.00    -0.354 OA
HETATM   19  C   UNL     1      41.608  -9.752   4.444  1.00  0.00     0.210 C 
ENDBRANCH   4  18
BRANCH   1  20
HETATM   20  C   UNL     1      43.199 -16.032   5.399  1.00  0.00    -0.024 C 
HETATM   21  C   UNL     1      41.962 -16.712   6.031  1.00  0.00     0.019 C 
HETATM   22  C   UNL     1      44.425 -16.383   6.267  1.00  0.00     0.019 C 
HETATM   23  C   UNL     1      43.377 -16.658   3.996  1.00  0.00     0.019 C 
ENDBRANCH   1  20
TORSDOF 4
ENDMDL
MODEL 7
REMARK VINA RESULT:      -6.7      5.384      7.193
REMARK  4 active torsions:
REMARK  status: ('A' for Active; 'I' for Inactive)
REMARK    1  A    between atoms: C_2  and  C_3 
REMARK    2  A    between atoms: C_5  and  N_6 
REMARK       I    between atoms: N_6  and  C_7 
REMARK    3  A    between atoms: C_7  and  C_8 
REMARK    4  A    between atoms: C_16  and  O_17 
ROOT
HETATM    1  C   UNL     1      42.071 -14.761   3.714  1.00  0.00    -0.048 A 
HETATM    2  C   UNL     1      42.813 -14.029   4.660  1.00  0.00     0.040 A 
HETATM    3  C   UNL     1      42.263 -12.932   5.334  1.00  0.00     0.069 A 
HETATM    4  C   UNL     1      40.935 -12.543   5.074  1.00  0.00     0.095 A 
HETATM    5  C   UNL     1      40.193 -13.241   4.124  1.00  0.00     0.039 A 
HETATM    6  C   UNL     1      40.760 -14.328   3.450  1.00  0.00     0.011 A 
ENDROOT
BRANCH   3   7
HETATM    7  N   UNL     1      42.968 -12.171   6.297  1.00  0.00    -0.320 N 
HETATM    8  C   UNL     1      44.110 -11.422   6.117  1.00  0.00     0.257 C 
HETATM    9  O   UNL     1      44.705 -11.210   5.068  1.00  0.00    -0.267 OA
HETATM   10  H   UNL     1      42.481 -12.119   7.187  1.00  0.00     0.169 HD
BRANCH   8  11
HETATM   11  C   UNL     1      44.620 -10.772   7.343  1.00  0.00     0.051 A 
HETATM   12  C   UNL     1      45.767  -9.987   7.324  1.00  0.00     0.133 A 
HETATM   13  N   UNL     1      46.276  -9.375   8.421  1.00  0.00    -0.271 NA
HETATM   14  C   UNL     1      45.591  -9.542   9.579  1.00  0.00     0.135 A 
HETATM   15  C   UNL     1      44.426 -10.292   9.685  1.00  0.00     0.029 A 
HETATM   16 BR   UNL     1      43.544 -10.470  11.340  1.00  0.00    -0.050 Br
HETATM   17  C   UNL     1      43.926 -10.913   8.545  1.00  0.00     0.039 A 
ENDBRANCH   8  11
ENDBRANCH   3   7
BRANCH   4  18
HETATM   18  O   UNL     1      40.480 -11.466   5.800  1.00  0.00    -0.354 OA
HETATM   19  C   UNL     1      40.290 -10.247   5.092  1.00  0.00     0.210 C 
ENDBRANCH   4  18
BRANCH   1  20
HETATM   20  C   UNL     1      42.661 -15.969   2.961  1.00  0.00    -0.024 C 
HETATM   21  C   UNL     1      43.534 -15.579   1.746  1.00  0.00     0.019 C 
HETATM   22  C   UNL     1      41.500 -16.845   2.447  1.00  0.00     0.019 C 
HETATM   23  C   UNL     1      43.557 -16.815   3.895  1.00  0.00     0.019 C 
ENDBRANCH   1  20
TORSDOF 4
ENDMDL
MODEL 8
REMARK VINA RESULT:      -6.7      5.055      6.835
REMARK  4 active torsions:
REMARK  status: ('A' for Active; 'I' for Inactive)
REMARK    1  A    between atoms: C_2  and  C_3 
REMARK    2  A    between atoms: C_5  and  N_6 
REMARK       I    between atoms: N_6  and  C_7 
REMARK    3  A    between atoms: C_7  and  C_8 
REMARK    4  A    between atoms: C_16  and  O_17 
ROOT
HETATM    1  C   UNL     1      41.415 -15.011   3.103  1.00  0.00    -0.048 A 
HETATM    2  C   UNL     1      42.087 -14.054   3.887  1.00  0.00     0.040 A 
HETATM    3  C   UNL     1      42.910 -14.430   4.957  1.00  0.00     0.069 A 
HETATM    4  C   UNL     1      43.083 -15.793   5.264  1.00  0.00     0.095 A 
HETATM    5  C   UNL     1      42.407 -16.752   4.514  1.00  0.00     0.039 A 
HETATM    6  C   UNL     1      41.579 -16.363   3.455  1.00  0.00     0.011 A 
ENDROOT
BRANCH   3   7
HETATM    7  N   UNL     1      43.609 -13.505   5.767  1.00  0.00    -0.320 N 
HETATM    8  C   UNL     1      43.130 -12.351   6.348  1.00  0.00     0.257 C 
HETATM    9  O   UNL     1      41.980 -11.932   6.333  1.00  0.00    -0.267 OA
HETATM   10  H   UNL     1      44.544 -13.823   6.006  1.00  0.00     0.169 HD
BRANCH   8  11
HETATM   11  C   UNL     1      44.135 -11.581   7.111  1.00  0.00     0.051 A 
HETATM   12  C   UNL     1      45.444 -11.452   6.661  1.00  0.00     0.133 A 
HETATM   13  N   UNL     1      46.401 -10.761   7.327  1.00  0.00    -0.271 NA
HETATM   14  C   UNL     1      46.021 -10.160   8.480  1.00  0.00     0.135 A 
HETATM   15  C   UNL     1      44.731 -10.220   8.993  1.00  0.00     0.029 A 
HETATM   16 BR   UNL     1      44.296  -9.352  10.609  1.00  0.00    -0.050 Br
HETATM   17  C   UNL     1      43.767 -10.937   8.293  1.00  0.00     0.039 A 
ENDBRANCH   8  11
ENDBRANCH   3   7
BRANCH   4  18
HETATM   18  O   UNL     1      43.924 -16.060   6.319  1.00  0.00    -0.354 OA
HETATM   19  C   UNL     1      43.595 -17.175   7.139  1.00  0.00     0.210 C 
ENDBRANCH   4  18
BRANCH   1  20
HETATM   20  C   UNL     1      40.504 -14.617   1.925  1.00  0.00    -0.024 C 
HETATM   21  C   UNL     1      39.333 -13.690   2.326  1.00  0.00     0.019 C 
HETATM   22  C   UNL     1      39.904 -15.899   1.315  1.00  0.00     0.019 C 
HETATM   23  C   UNL     1      41.307 -13.867   0.837  1.00  0.00     0.019 C 
ENDBRANCH   1  20
TORSDOF 4
ENDMDL
MODEL 9
REMARK VINA RESULT:      -6.6      2.966      7.123
REMARK  4 active torsions:
REMARK  status: ('A' for Active; 'I' for Inactive)
REMARK    1  A    between atoms: C_2  and  C_3 
REMARK    2  A    between atoms: C_5  and  N_6 
REMARK       I    between atoms: N_6  and  C_7 
REMARK    3  A    between atoms: C_7  and  C_8 
REMARK    4  A    between atoms: C_16  and  O_17 
ROOT
HETATM    1  C   UNL     1      43.117 -17.597   4.079  1.00  0.00    -0.048 A 
HETATM    2  C   UNL     1      42.711 -16.860   2.950  1.00  0.00     0.040 A 
HETATM    3  C   UNL     1      41.912 -15.716   3.069  1.00  0.00     0.069 A 
HETATM    4  C   UNL     1      41.502 -15.277   4.343  1.00  0.00     0.095 A 
HETATM    5  C   UNL     1      41.874 -16.006   5.469  1.00  0.00     0.039 A 
HETATM    6  C   UNL     1      42.663 -17.154   5.334  1.00  0.00     0.011 A 
ENDROOT
BRANCH   3   7
HETATM    7  N   UNL     1      41.486 -14.942   1.965  1.00  0.00    -0.320 N 
HETATM    8  C   UNL     1      40.450 -15.201   1.094  1.00  0.00     0.257 C 
HETATM    9  O   UNL     1      39.647 -16.123   1.146  1.00  0.00    -0.267 OA
HETATM   10  H   UNL     1      41.964 -14.047   1.907  1.00  0.00     0.169 HD
BRANCH   8  11
HETATM   11  C   UNL     1      40.287 -14.204   0.016  1.00  0.00     0.051 A 
HETATM   12  C   UNL     1      39.582 -14.500  -1.145  1.00  0.00     0.133 A 
HETATM   13  N   UNL     1      39.409 -13.622  -2.163  1.00  0.00    -0.271 NA
HETATM   14  C   UNL     1      39.950 -12.390  -1.997  1.00  0.00     0.135 A 
HETATM   15  C   UNL     1      40.653 -12.002  -0.863  1.00  0.00     0.029 A 
HETATM   16 BR   UNL     1      41.372 -10.266  -0.723  1.00  0.00    -0.050 Br
HETATM   17  C   UNL     1      40.819 -12.922   0.166  1.00  0.00     0.039 A 
ENDBRANCH   8  11
ENDBRANCH   3   7
BRANCH   4  18
HETATM   18  O   UNL     1      40.736 -14.134   4.356  1.00  0.00    -0.354 OA
HETATM   19  C   UNL     1      41.230 -13.036   5.114  1.00  0.00     0.210 C 
ENDBRANCH   4  18
BRANCH   1  20
HETATM   20  C   UNL     1      43.993 -18.859   3.967  1.00  0.00    -0.024 C 
HETATM   21  C   UNL     1      43.888 -19.800   5.189  1.00  0.00     0.019 C 
HETATM   22  C   UNL     1      45.467 -18.426   3.830  1.00  0.00     0.019 C 
HETATM   23  C   UNL     1      43.595 -19.696   2.730  1.00  0.00     0.019 C 
ENDBRANCH   1  20
TORSDOF 4
ENDMDL
MODEL 10
REMARK VINA RESULT:      -6.6     14.672     15.704
REMARK  4 active torsions:
REMARK  status: ('A' for Active; 'I' for Inactive)
REMARK    1  A    between atoms: C_2  and  C_3 
REMARK    2  A    between atoms: C_5  and  N_6 
REMARK       I    between atoms: N_6  and  C_7 
REMARK    3  A    between atoms: C_7  and  C_8 
REMARK    4  A    between atoms: C_16  and  O_17 
ROOT
HETATM    1  C   UNL     1      45.143 -28.979  -1.941  1.00  0.00    -0.048 A 
HETATM    2  C   UNL     1      44.272 -29.622  -1.041  1.00  0.00     0.040 A 
HETATM    3  C   UNL     1      44.495 -29.596   0.341  1.00  0.00     0.069 A 
HETATM    4  C   UNL     1      45.609 -28.908   0.860  1.00  0.00     0.095 A 
HETATM    5  C   UNL     1      46.495 -28.286  -0.017  1.00  0.00     0.039 A 
HETATM    6  C   UNL     1      46.266 -28.330  -1.397  1.00  0.00     0.011 A 
ENDROOT
BRANCH   3   7
HETATM    7  N   UNL     1      43.644 -30.223   1.283  1.00  0.00    -0.320 N 
HETATM    8  C   UNL     1      42.398 -29.815   1.705  1.00  0.00     0.257 C 
HETATM    9  O   UNL     1      41.748 -28.862   1.296  1.00  0.00    -0.267 OA
HETATM   10  H   UNL     1      43.992 -31.130   1.580  1.00  0.00     0.169 HD
BRANCH   8  11
HETATM   11  C   UNL     1      41.783 -30.679   2.734  1.00  0.00     0.051 A 
HETATM   12  C   UNL     1      41.504 -30.203   4.010  1.00  0.00     0.133 A 
HETATM   13  N   UNL     1      40.946 -30.956   4.987  1.00  0.00    -0.271 NA
HETATM   14  C   UNL     1      40.636 -32.235   4.662  1.00  0.00     0.135 A 
HETATM   15  C   UNL     1      40.860 -32.788   3.408  1.00  0.00     0.029 A 
HETATM   16 BR   UNL     1      40.398 -34.580   3.049  1.00  0.00    -0.050 Br
HETATM   17  C   UNL     1      41.437 -31.995   2.422  1.00  0.00     0.039 A 
ENDBRANCH   8  11
ENDBRANCH   3   7
BRANCH   4  18
HETATM   18  O   UNL     1      45.730 -28.925   2.230  1.00  0.00    -0.354 OA
HETATM   19  C   UNL     1      47.009 -29.254   2.759  1.00  0.00     0.210 C 
ENDBRANCH   4  18
BRANCH   1  20
HETATM   20  C   UNL     1      44.916 -28.999  -3.464  1.00  0.00    -0.024 C 
HETATM   21  C   UNL     1      45.822 -30.002  -4.215  1.00  0.00     0.019 C 
HETATM   22  C   UNL     1      45.203 -27.592  -4.025  1.00  0.00     0.019 C 
HETATM   23  C   UNL     1      43.457 -29.388  -3.797  1.00  0.00     0.019 C 
ENDBRANCH   1  20
TORSDOF 4
ENDMDL
