MODEL 1
REMARK VINA RESULT:      -7.9      0.000      0.000
REMARK  2 active torsions:
REMARK  status: ('A' for Active; 'I' for Inactive)
REMARK    1  A    between atoms: C_8  and  S_9 
REMARK    2  A    between atoms: S_9  and  C_10 
ROOT
HETATM    1  C   UNL     1      43.519 -20.493   2.405  1.00  0.00     0.002 A 
HETATM    2  C   UNL     1      43.212 -19.144   2.217  1.00  0.00     0.034 A 
HETATM    3  C   UNL     1      43.399 -18.214   3.232  1.00  0.00     0.087 A 
HETATM    4  C   UNL     1      43.907 -18.652   4.485  1.00  0.00     0.087 A 
HETATM    5  N   UNL     1      44.098 -17.792   5.504  1.00  0.00    -0.232 NA
HETATM    6  C   UNL     1      43.733 -16.512   5.291  1.00  0.00     0.164 A 
HETATM    7 CL   UNL     1      44.011 -15.473   6.626  1.00  0.00    -0.059 Cl
HETATM    8  C   UNL     1      43.243 -16.082   4.069  1.00  0.00     0.165 A 
HETATM    9  N   UNL     1      43.102 -16.915   3.008  1.00  0.00    -0.234 NA
HETATM   10  C   UNL     1      44.217 -19.995   4.654  1.00  0.00     0.034 A 
HETATM   11  C   UNL     1      44.026 -20.918   3.626  1.00  0.00     0.002 A 
ENDROOT
BRANCH   8  12
HETATM   12  S   UNL     1      42.755 -14.397   3.727  1.00  0.00     0.078 S 
HETATM   13  O   UNL     1      41.668 -14.056   4.703  1.00  0.00    -0.251 OA
BRANCH  12  14
HETATM   14  C   UNL     1      41.921 -14.593   2.121  1.00  0.00     0.112 C 
HETATM   15  C   UNL     1      41.898 -13.291   1.316  1.00  0.00     0.250 C 
HETATM   16  N   UNL     1      41.286 -13.557  -0.037  1.00  0.00    -0.074 N 
HETATM   17  H   UNL     1      41.907 -14.171  -0.585  1.00  0.00     0.277 HD
HETATM   18  H   UNL     1      41.261 -12.668  -0.558  1.00  0.00     0.277 HD
HETATM   19  C   UNL     1      39.908 -14.130   0.022  1.00  0.00     0.232 C 
HETATM   20  C   UNL     1      39.933 -15.425   0.824  1.00  0.00     0.029 C 
HETATM   21  C   UNL     1      40.535 -15.227   2.219  1.00  0.00     0.021 C 
ENDBRANCH  12  14
ENDBRANCH   8  12
TORSDOF 2
ENDMDL
MODEL 2
REMARK VINA RESULT:      -7.2      3.341      4.780
REMARK  2 active torsions:
REMARK  status: ('A' for Active; 'I' for Inactive)
REMARK    1  A    between atoms: C_8  and  S_9 
REMARK    2  A    between atoms: S_9  and  C_10 
ROOT
HETATM    1  C   UNL     1      44.369 -18.673   4.408  1.00  0.00     0.002 A 
HETATM    2  C   UNL     1      44.078 -17.338   4.692  1.00  0.00     0.034 A 
HETATM    3  C   UNL     1      43.349 -16.555   3.806  1.00  0.00     0.087 A 
HETATM    4  C   UNL     1      42.900 -17.129   2.586  1.00  0.00     0.087 A 
HETATM    5  N   UNL     1      42.199 -16.410   1.688  1.00  0.00    -0.232 NA
HETATM    6  C   UNL     1      41.993 -15.110   1.983  1.00  0.00     0.164 A 
HETATM    7 CL   UNL     1      41.087 -14.259   0.802  1.00  0.00    -0.059 Cl
HETATM    8  C   UNL     1      42.424 -14.551   3.174  1.00  0.00     0.165 A 
HETATM    9  N   UNL     1      43.076 -15.270   4.121  1.00  0.00    -0.234 NA
HETATM   10  C   UNL     1      43.190 -18.461   2.320  1.00  0.00     0.034 A 
HETATM   11  C   UNL     1      43.920 -19.236   3.220  1.00  0.00     0.002 A 
ENDROOT
BRANCH   8  12
HETATM   12  S   UNL     1      42.169 -12.840   3.622  1.00  0.00     0.078 S 
HETATM   13  O   UNL     1      42.820 -12.012   2.554  1.00  0.00    -0.251 OA
BRANCH  12  14
HETATM   14  C   UNL     1      43.251 -12.693   5.077  1.00  0.00     0.112 C 
HETATM   15  C   UNL     1      42.463 -12.668   6.389  1.00  0.00     0.250 C 
HETATM   16  N   UNL     1      43.429 -12.650   7.548  1.00  0.00    -0.074 N 
HETATM   17  H   UNL     1      43.940 -13.544   7.588  1.00  0.00     0.277 HD
HETATM   18  H   UNL     1      42.882 -12.614   8.421  1.00  0.00     0.277 HD
HETATM   19  C   UNL     1      44.386 -11.504   7.522  1.00  0.00     0.232 C 
HETATM   20  C   UNL     1      45.170 -11.530   6.215  1.00  0.00     0.029 C 
HETATM   21  C   UNL     1      44.249 -11.540   4.990  1.00  0.00     0.021 C 
ENDBRANCH  12  14
ENDBRANCH   8  12
TORSDOF 2
ENDMDL
MODEL 3
REMARK VINA RESULT:      -7.1      2.220      2.437
REMARK  2 active torsions:
REMARK  status: ('A' for Active; 'I' for Inactive)
REMARK    1  A    between atoms: C_8  and  S_9 
REMARK    2  A    between atoms: S_9  and  C_10 
ROOT
HETATM    1  C   UNL     1      43.171 -18.526   2.277  1.00  0.00     0.002 A 
HETATM    2  C   UNL     1      42.538 -17.344   2.663  1.00  0.00     0.034 A 
HETATM    3  C   UNL     1      42.642 -16.861   3.962  1.00  0.00     0.087 A 
HETATM    4  C   UNL     1      43.404 -17.594   4.911  1.00  0.00     0.087 A 
HETATM    5  N   UNL     1      43.528 -17.175   6.185  1.00  0.00    -0.232 NA
HETATM    6  C   UNL     1      42.850 -16.059   6.523  1.00  0.00     0.164 A 
HETATM    7 CL   UNL     1      43.061 -15.579   8.156  1.00  0.00    -0.059 Cl
HETATM    8  C   UNL     1      42.112 -15.341   5.598  1.00  0.00     0.165 A 
HETATM    9  N   UNL     1      42.024 -15.707   4.295  1.00  0.00    -0.234 NA
HETATM   10  C   UNL     1      44.036 -18.764   4.510  1.00  0.00     0.034 A 
HETATM   11  C   UNL     1      43.926 -19.235   3.202  1.00  0.00     0.002 A 
ENDROOT
BRANCH   8  12
HETATM   12  S   UNL     1      41.205 -13.851   5.986  1.00  0.00     0.078 S 
HETATM   13  O   UNL     1      39.853 -14.282   6.471  1.00  0.00    -0.251 OA
BRANCH  12  14
HETATM   14  C   UNL     1      40.928 -13.165   4.323  1.00  0.00     0.112 C 
HETATM   15  C   UNL     1      41.962 -12.099   3.955  1.00  0.00     0.250 C 
HETATM   16  N   UNL     1      41.730 -11.655   2.531  1.00  0.00    -0.074 N 
HETATM   17  H   UNL     1      41.940 -12.431   1.886  1.00  0.00     0.277 HD
HETATM   18  H   UNL     1      42.422 -10.925   2.305  1.00  0.00     0.277 HD
HETATM   19  C   UNL     1      40.357 -11.125   2.277  1.00  0.00     0.232 C 
HETATM   20  C   UNL     1      39.329 -12.188   2.646  1.00  0.00     0.029 C 
HETATM   21  C   UNL     1      39.500 -12.680   4.087  1.00  0.00     0.021 C 
ENDBRANCH  12  14
ENDBRANCH   8  12
TORSDOF 2
ENDMDL
MODEL 4
REMARK VINA RESULT:      -6.8      2.754      3.583
REMARK  2 active torsions:
REMARK  status: ('A' for Active; 'I' for Inactive)
REMARK    1  A    between atoms: C_8  and  S_9 
REMARK    2  A    between atoms: S_9  and  C_10 
ROOT
HETATM    1  C   UNL     1      43.562 -17.533   2.541  1.00  0.00     0.002 A 
HETATM    2  C   UNL     1      43.016 -16.432   1.881  1.00  0.00     0.034 A 
HETATM    3  C   UNL     1      42.234 -15.501   2.555  1.00  0.00     0.087 A 
HETATM    4  C   UNL     1      41.984 -15.685   3.941  1.00  0.00     0.087 A 
HETATM    5  N   UNL     1      41.225 -14.818   4.639  1.00  0.00    -0.232 NA
HETATM    6  C   UNL     1      40.673 -13.803   3.943  1.00  0.00     0.164 A 
HETATM    7 CL   UNL     1      39.728 -12.735   4.894  1.00  0.00    -0.059 Cl
HETATM    8  C   UNL     1      40.921 -13.619   2.593  1.00  0.00     0.165 A 
HETATM    9  N   UNL     1      41.733 -14.442   1.884  1.00  0.00    -0.234 NA
HETATM   10  C   UNL     1      42.541 -16.782   4.588  1.00  0.00     0.034 A 
HETATM   11  C   UNL     1      43.327 -17.706   3.899  1.00  0.00     0.002 A 
ENDROOT
BRANCH   8  12
HETATM   12  S   UNL     1      40.228 -12.286   1.625  1.00  0.00     0.078 S 
HETATM   13  O   UNL     1      38.736 -12.401   1.738  1.00  0.00    -0.251 OA
BRANCH  12  14
HETATM   14  C   UNL     1      40.629 -12.834  -0.063  1.00  0.00     0.112 C 
HETATM   15  C   UNL     1      41.118 -11.684  -0.947  1.00  0.00     0.250 C 
HETATM   16  N   UNL     1      41.527 -12.231  -2.292  1.00  0.00    -0.074 N 
HETATM   17  H   UNL     1      42.361 -12.828  -2.186  1.00  0.00     0.277 HD
HETATM   18  H   UNL     1      41.835 -11.443  -2.880  1.00  0.00     0.277 HD
HETATM   19  C   UNL     1      40.442 -12.975  -3.000  1.00  0.00     0.232 C 
HETATM   20  C   UNL     1      39.956 -14.119  -2.118  1.00  0.00     0.029 C 
HETATM   21  C   UNL     1      39.514 -13.633  -0.734  1.00  0.00     0.021 C 
ENDBRANCH  12  14
ENDBRANCH   8  12
TORSDOF 2
ENDMDL
MODEL 5
REMARK VINA RESULT:      -6.7      4.339      5.762
REMARK  2 active torsions:
REMARK  status: ('A' for Active; 'I' for Inactive)
REMARK    1  A    between atoms: C_8  and  S_9 
REMARK    2  A    between atoms: S_9  and  C_10 
ROOT
HETATM    1  C   UNL     1      43.632 -17.487   7.179  1.00  0.00     0.002 A 
HETATM    2  C   UNL     1      43.567 -16.096   7.101  1.00  0.00     0.034 A 
HETATM    3  C   UNL     1      43.332 -15.451   5.893  1.00  0.00     0.087 A 
HETATM    4  C   UNL     1      43.163 -16.231   4.717  1.00  0.00     0.087 A 
HETATM    5  N   UNL     1      42.944 -15.656   3.519  1.00  0.00    -0.232 NA
HETATM    6  C   UNL     1      42.947 -14.307   3.486  1.00  0.00     0.164 A 
HETATM    7 CL   UNL     1      42.652 -13.644   1.933  1.00  0.00    -0.059 Cl
HETATM    8  C   UNL     1      43.105 -13.546   4.632  1.00  0.00     0.165 A 
HETATM    9  N   UNL     1      43.264 -14.103   5.859  1.00  0.00    -0.234 NA
HETATM   10  C   UNL     1      43.222 -17.616   4.811  1.00  0.00     0.034 A 
HETATM   11  C   UNL     1      43.456 -18.249   6.031  1.00  0.00     0.002 A 
ENDROOT
BRANCH   8  12
HETATM   12  S   UNL     1      43.105 -11.760   4.650  1.00  0.00     0.078 S 
HETATM   13  O   UNL     1      44.273 -11.319   3.818  1.00  0.00    -0.251 OA
BRANCH  12  14
HETATM   14  C   UNL     1      43.585 -11.426   6.374  1.00  0.00     0.112 C 
HETATM   15  C   UNL     1      42.655 -10.418   7.051  1.00  0.00     0.250 C 
HETATM   16  N   UNL     1      43.052 -10.272   8.500  1.00  0.00    -0.074 N 
HETATM   17  H   UNL     1      42.865 -11.153   9.002  1.00  0.00     0.277 HD
HETATM   18  H   UNL     1      42.429  -9.577   8.936  1.00  0.00     0.277 HD
HETATM   19  C   UNL     1      44.471  -9.852   8.700  1.00  0.00     0.232 C 
HETATM   20  C   UNL     1      45.397 -10.857   8.023  1.00  0.00     0.029 C 
HETATM   21  C   UNL     1      45.055 -11.048   6.542  1.00  0.00     0.021 C 
ENDBRANCH  12  14
ENDBRANCH   8  12
TORSDOF 2
ENDMDL
MODEL 6
REMARK VINA RESULT:      -6.6      2.015      2.532
REMARK  2 active torsions:
REMARK  status: ('A' for Active; 'I' for Inactive)
REMARK    1  A    between atoms: C_8  and  S_9 
REMARK    2  A    between atoms: S_9  and  C_10 
ROOT
HETATM    1  C   UNL     1      43.928 -20.637   5.254  1.00  0.00     0.002 A 
HETATM    2  C   UNL     1      43.721 -19.320   5.664  1.00  0.00     0.034 A 
HETATM    3  C   UNL     1      43.575 -18.291   4.741  1.00  0.00     0.087 A 
HETATM    4  C   UNL     1      43.644 -18.595   3.354  1.00  0.00     0.087 A 
HETATM    5  N   UNL     1      43.519 -17.633   2.419  1.00  0.00    -0.232 NA
HETATM    6  C   UNL     1      43.379 -16.369   2.867  1.00  0.00     0.164 A 
HETATM    7 CL   UNL     1      43.216 -15.200   1.623  1.00  0.00    -0.059 Cl
HETATM    8  C   UNL     1      43.305 -16.073   4.217  1.00  0.00     0.165 A 
HETATM    9  N   UNL     1      43.365 -17.030   5.176  1.00  0.00    -0.234 NA
HETATM   10  C   UNL     1      43.842 -19.912   2.961  1.00  0.00     0.034 A 
HETATM   11  C   UNL     1      43.984 -20.934   3.899  1.00  0.00     0.002 A 
ENDROOT
BRANCH   8  12
HETATM   12  S   UNL     1      43.108 -14.420   4.866  1.00  0.00     0.078 S 
HETATM   13  O   UNL     1      42.400 -14.553   6.182  1.00  0.00    -0.251 OA
BRANCH  12  14
HETATM   14  C   UNL     1      41.870 -13.738   3.718  1.00  0.00     0.112 C 
HETATM   15  C   UNL     1      41.879 -12.208   3.697  1.00  0.00     0.250 C 
HETATM   16  N   UNL     1      40.904 -11.721   2.652  1.00  0.00    -0.074 N 
HETATM   17  H   UNL     1      41.243 -11.980   1.713  1.00  0.00     0.277 HD
HETATM   18  H   UNL     1      40.908 -10.691   2.664  1.00  0.00     0.277 HD
HETATM   19  C   UNL     1      39.507 -12.208   2.853  1.00  0.00     0.232 C 
HETATM   20  C   UNL     1      39.500 -13.732   2.875  1.00  0.00     0.029 C 
HETATM   21  C   UNL     1      40.464 -14.297   3.924  1.00  0.00     0.021 C 
ENDBRANCH  12  14
ENDBRANCH   8  12
TORSDOF 2
ENDMDL
MODEL 7
REMARK VINA RESULT:      -6.6      2.004      6.349
REMARK  2 active torsions:
REMARK  status: ('A' for Active; 'I' for Inactive)
REMARK    1  A    between atoms: C_8  and  S_9 
REMARK    2  A    between atoms: S_9  and  C_10 
ROOT
HETATM    1  C   UNL     1      39.371 -14.177  -2.709  1.00  0.00     0.002 A 
HETATM    2  C   UNL     1      39.290 -14.850  -1.489  1.00  0.00     0.034 A 
HETATM    3  C   UNL     1      39.962 -14.387  -0.364  1.00  0.00     0.087 A 
HETATM    4  C   UNL     1      40.751 -13.210  -0.468  1.00  0.00     0.087 A 
HETATM    5  N   UNL     1      41.431 -12.725   0.589  1.00  0.00    -0.232 NA
HETATM    6  C   UNL     1      41.366 -13.442   1.730  1.00  0.00     0.164 A 
HETATM    7 CL   UNL     1      42.246 -12.763   3.035  1.00  0.00    -0.059 Cl
HETATM    8  C   UNL     1      40.593 -14.586   1.834  1.00  0.00     0.165 A 
HETATM    9  N   UNL     1      39.850 -15.058   0.802  1.00  0.00    -0.234 NA
HETATM   10  C   UNL     1      40.816 -12.546  -1.686  1.00  0.00     0.034 A 
HETATM   11  C   UNL     1      40.133 -13.020  -2.806  1.00  0.00     0.002 A 
ENDROOT
BRANCH   8  12
HETATM   12  S   UNL     1      40.460 -15.567   3.322  1.00  0.00     0.078 S 
HETATM   13  O   UNL     1      40.408 -14.605   4.471  1.00  0.00    -0.251 OA
BRANCH  12  14
HETATM   14  C   UNL     1      42.116 -16.320   3.394  1.00  0.00     0.112 C 
HETATM   15  C   UNL     1      42.250 -17.523   2.458  1.00  0.00     0.250 C 
HETATM   16  N   UNL     1      43.672 -18.025   2.497  1.00  0.00    -0.074 N 
HETATM   17  H   UNL     1      44.301 -17.322   2.081  1.00  0.00     0.277 HD
HETATM   18  H   UNL     1      43.740 -18.845   1.877  1.00  0.00     0.277 HD
HETATM   19  C   UNL     1      44.145 -18.403   3.862  1.00  0.00     0.232 C 
HETATM   20  C   UNL     1      44.010 -17.204   4.793  1.00  0.00     0.029 C 
HETATM   21  C   UNL     1      42.584 -16.645   4.811  1.00  0.00     0.021 C 
ENDBRANCH  12  14
ENDBRANCH   8  12
TORSDOF 2
ENDMDL
MODEL 8
REMARK VINA RESULT:      -6.5      5.585      7.204
REMARK  2 active torsions:
REMARK  status: ('A' for Active; 'I' for Inactive)
REMARK    1  A    between atoms: C_8  and  S_9 
REMARK    2  A    between atoms: S_9  and  C_10 
ROOT
HETATM    1  C   UNL     1      42.793 -16.781   7.137  1.00  0.00     0.002 A 
HETATM    2  C   UNL     1      43.318 -15.563   7.572  1.00  0.00     0.034 A 
HETATM    3  C   UNL     1      43.345 -14.451   6.739  1.00  0.00     0.087 A 
HETATM    4  C   UNL     1      42.834 -14.566   5.418  1.00  0.00     0.087 A 
HETATM    5  N   UNL     1      42.846 -13.522   4.567  1.00  0.00    -0.232 NA
HETATM    6  C   UNL     1      43.416 -12.384   5.015  1.00  0.00     0.164 A 
HETATM    7 CL   UNL     1      43.389 -11.095   3.885  1.00  0.00    -0.059 Cl
HETATM    8  C   UNL     1      43.909 -12.269   6.304  1.00  0.00     0.165 A 
HETATM    9  N   UNL     1      43.850 -13.286   7.199  1.00  0.00    -0.234 NA
HETATM   10  C   UNL     1      42.307 -15.782   5.002  1.00  0.00     0.034 A 
HETATM   11  C   UNL     1      42.283 -16.889   5.850  1.00  0.00     0.002 A 
ENDROOT
BRANCH   8  12
HETATM   12  S   UNL     1      44.661 -10.784   6.954  1.00  0.00     0.078 S 
HETATM   13  O   UNL     1      46.093 -11.120   7.251  1.00  0.00    -0.251 OA
BRANCH  12  14
HETATM   14  C   UNL     1      43.846 -10.660   8.577  1.00  0.00     0.112 C 
HETATM   15  C   UNL     1      42.639  -9.720   8.550  1.00  0.00     0.250 C 
HETATM   16  N   UNL     1      41.959  -9.749   9.897  1.00  0.00    -0.074 N 
HETATM   17  H   UNL     1      41.540 -10.678  10.055  1.00  0.00     0.277 HD
HETATM   18  H   UNL     1      41.161  -9.098   9.868  1.00  0.00     0.277 HD
HETATM   19  C   UNL     1      42.851  -9.380  11.036  1.00  0.00     0.232 C 
HETATM   20  C   UNL     1      44.054 -10.316  11.060  1.00  0.00     0.029 C 
HETATM   21  C   UNL     1      44.801 -10.330   9.723  1.00  0.00     0.021 C 
ENDBRANCH  12  14
ENDBRANCH   8  12
TORSDOF 2
ENDMDL
MODEL 9
REMARK VINA RESULT:      -6.4      2.981      3.861
REMARK  2 active torsions:
REMARK  status: ('A' for Active; 'I' for Inactive)
REMARK    1  A    between atoms: C_8  and  S_9 
REMARK    2  A    between atoms: S_9  and  C_10 
ROOT
HETATM    1  C   UNL     1      42.836 -16.051   7.790  1.00  0.00     0.002 A 
HETATM    2  C   UNL     1      41.835 -15.711   6.880  1.00  0.00     0.034 A 
HETATM    3  C   UNL     1      42.044 -15.807   5.509  1.00  0.00     0.087 A 
HETATM    4  C   UNL     1      43.306 -16.254   5.033  1.00  0.00     0.087 A 
HETATM    5  N   UNL     1      43.563 -16.356   3.715  1.00  0.00    -0.232 NA
HETATM    6  C   UNL     1      42.583 -15.961   2.876  1.00  0.00     0.164 A 
HETATM    7 CL   UNL     1      42.975 -16.125   1.215  1.00  0.00    -0.059 Cl
HETATM    8  C   UNL     1      41.351 -15.530   3.338  1.00  0.00     0.165 A 
HETATM    9  N   UNL     1      41.047 -15.480   4.659  1.00  0.00    -0.234 NA
HETATM   10  C   UNL     1      44.290 -16.597   5.951  1.00  0.00     0.034 A 
HETATM   11  C   UNL     1      44.066 -16.499   7.324  1.00  0.00     0.002 A 
ENDROOT
BRANCH   8  12
HETATM   12  S   UNL     1      40.014 -15.008   2.274  1.00  0.00     0.078 S 
HETATM   13  O   UNL     1      39.827 -16.089   1.252  1.00  0.00    -0.251 OA
BRANCH  12  14
HETATM   14  C   UNL     1      40.795 -13.627   1.381  1.00  0.00     0.112 C 
HETATM   15  C   UNL     1      40.893 -12.363   2.237  1.00  0.00     0.250 C 
HETATM   16  N   UNL     1      41.641 -11.301   1.469  1.00  0.00    -0.074 N 
HETATM   17  H   UNL     1      42.623 -11.588   1.345  1.00  0.00     0.277 HD
HETATM   18  H   UNL     1      41.682 -10.451   2.051  1.00  0.00     0.277 HD
HETATM   19  C   UNL     1      41.028 -10.962   0.150  1.00  0.00     0.232 C 
HETATM   20  C   UNL     1      40.931 -12.223  -0.701  1.00  0.00     0.029 C 
HETATM   21  C   UNL     1      40.172 -13.345   0.016  1.00  0.00     0.021 C 
ENDBRANCH  12  14
ENDBRANCH   8  12
TORSDOF 2
ENDMDL
MODEL 10
REMARK VINA RESULT:      -6.4     13.594     15.329
REMARK  2 active torsions:
REMARK  status: ('A' for Active; 'I' for Inactive)
REMARK    1  A    between atoms: C_8  and  S_9 
REMARK    2  A    between atoms: S_9  and  C_10 
ROOT
HETATM    1  C   UNL     1      45.100 -28.204  -3.868  1.00  0.00     0.002 A 
HETATM    2  C   UNL     1      45.761 -28.039  -2.650  1.00  0.00     0.034 A 
HETATM    3  C   UNL     1      45.550 -28.913  -1.591  1.00  0.00     0.087 A 
HETATM    4  C   UNL     1      44.637 -29.989  -1.756  1.00  0.00     0.087 A 
HETATM    5  N   UNL     1      44.390 -30.859  -0.757  1.00  0.00    -0.232 NA
HETATM    6  C   UNL     1      45.010 -30.623   0.417  1.00  0.00     0.164 A 
HETATM    7 CL   UNL     1      44.656 -31.773   1.639  1.00  0.00    -0.059 Cl
HETATM    8  C   UNL     1      45.904 -29.578   0.577  1.00  0.00     0.165 A 
HETATM    9  N   UNL     1      46.218 -28.728  -0.432  1.00  0.00    -0.234 NA
HETATM   10  C   UNL     1      43.993 -30.146  -2.976  1.00  0.00     0.034 A 
HETATM   11  C   UNL     1      44.216 -29.263  -4.032  1.00  0.00     0.002 A 
ENDROOT
BRANCH   8  12
HETATM   12  S   UNL     1      46.762 -29.226   2.105  1.00  0.00     0.078 S 
HETATM   13  O   UNL     1      46.936 -27.737   2.169  1.00  0.00    -0.251 OA
BRANCH  12  14
HETATM   14  C   UNL     1      48.416 -29.892   1.740  1.00  0.00     0.112 C 
HETATM   15  C   UNL     1      48.369 -31.357   1.300  1.00  0.00     0.250 C 
HETATM   16  N   UNL     1      49.758 -31.804   0.918  1.00  0.00    -0.074 N 
HETATM   17  H   UNL     1      50.063 -31.305   0.069  1.00  0.00     0.277 HD
HETATM   18  H   UNL     1      49.712 -32.796   0.643  1.00  0.00     0.277 HD
HETATM   19  C   UNL     1      50.769 -31.644   2.006  1.00  0.00     0.232 C 
HETATM   20  C   UNL     1      50.814 -30.184   2.443  1.00  0.00     0.029 C 
HETATM   21  C   UNL     1      49.433 -29.664   2.856  1.00  0.00     0.021 C 
ENDBRANCH  12  14
ENDBRANCH   8  12
TORSDOF 2
ENDMDL
