MODEL 1
REMARK VINA RESULT:     -10.2      0.000      0.000
REMARK  2 active torsions:
REMARK  status: ('A' for Active; 'I' for Inactive)
REMARK    1  A    between atoms: C_7  and  C_8 
REMARK       I    between atoms: C_8  and  N_9 
REMARK    2  A    between atoms: N_9  and  N_10 
ROOT
HETATM    1  C   UNL     1      42.704 -12.213   2.833  1.00  0.00     0.292 C 
HETATM    2  N   UNL     1      41.692 -12.276   1.887  1.00  0.00    -0.241 N 
HETATM    3  O   UNL     1      43.425 -11.245   3.056  1.00  0.00    -0.264 OA
HETATM    4  H   UNL     1      41.281 -13.194   1.756  1.00  0.00     0.192 HD
ENDROOT
BRANCH   1   5
HETATM    5  C   UNL     1      42.822 -13.481   3.577  1.00  0.00     0.154 A 
HETATM    6  C   UNL     1      43.112 -14.769   3.061  1.00  0.00     0.007 A 
HETATM    7  C   UNL     1      43.144 -15.610   4.151  1.00  0.00     0.069 A 
HETATM    8  C   UNL     1      43.390 -15.265   1.686  1.00  0.00     0.048 C 
HETATM    9  C   UNL     1      43.414 -17.036   4.081  1.00  0.00    -0.001 A 
HETATM   10  N   UNL     1      42.862 -14.832   5.230  1.00  0.00    -0.276 N 
HETATM   11  C   UNL     1      43.425 -17.612   2.787  1.00  0.00    -0.045 A 
HETATM   12  C   UNL     1      43.682 -17.826   5.201  1.00  0.00     0.014 A 
HETATM   13  C   UNL     1      43.680 -18.982   2.646  1.00  0.00     0.008 A 
HETATM   14  C   UNL     1      43.060 -16.773   1.566  1.00  0.00     0.044 C 
HETATM   15  C   UNL     1      43.947 -19.762   3.771  1.00  0.00     0.001 A 
HETATM   16  C   UNL     1      43.950 -19.187   5.043  1.00  0.00     0.001 A 
HETATM   17  N   UNL     1      42.658 -13.533   4.923  1.00  0.00    -0.168 NA
HETATM   18  H   UNL     1      42.784 -15.118   6.200  1.00  0.00     0.189 HD
ENDBRANCH   1   5
BRANCH   2  19
HETATM   19  N   UNL     1      41.494 -11.277   0.989  1.00  0.00    -0.165 NA
HETATM   20  C   UNL     1      40.946 -11.546  -0.153  1.00  0.00     0.157 A 
HETATM   21  C   UNL     1      40.845 -10.461  -1.248  1.00  0.00     0.277 A 
HETATM   22  C   UNL     1      40.342 -12.754  -0.738  1.00  0.00     0.027 A 
HETATM   23  O   UNL     1      41.194  -9.305  -1.161  1.00  0.00    -0.266 OA
HETATM   24  N   UNL     1      40.291 -11.090  -2.338  1.00  0.00    -0.321 N 
HETATM   25  C   UNL     1      39.992 -12.415  -2.049  1.00  0.00     0.048 A 
HETATM   26  H   UNL     1      40.107 -10.610  -3.206  1.00  0.00     0.169 HD
HETATM   27  C   UNL     1      39.391 -13.314  -2.909  1.00  0.00     0.030 A 
HETATM   28  C   UNL     1      39.127 -14.594  -2.420  1.00  0.00     0.002 A 
HETATM   29  C   UNL     1      39.449 -14.938  -1.096  1.00  0.00     0.001 A 
HETATM   30  C   UNL     1      40.053 -14.011  -0.236  1.00  0.00     0.016 A 
ENDBRANCH   2  19
TORSDOF 2
ENDMDL
MODEL 2
REMARK VINA RESULT:     -10.1      1.402      1.674
REMARK  2 active torsions:
REMARK  status: ('A' for Active; 'I' for Inactive)
REMARK    1  A    between atoms: C_7  and  C_8 
REMARK       I    between atoms: C_8  and  N_9 
REMARK    2  A    between atoms: N_9  and  N_10 
ROOT
HETATM    1  C   UNL     1      42.706 -13.319   3.718  1.00  0.00     0.292 C 
HETATM    2  N   UNL     1      41.366 -12.967   3.766  1.00  0.00    -0.241 N 
HETATM    3  O   UNL     1      43.619 -12.626   3.280  1.00  0.00    -0.264 OA
HETATM    4  H   UNL     1      40.735 -13.709   4.048  1.00  0.00     0.192 HD
ENDROOT
BRANCH   1   5
HETATM    5  C   UNL     1      42.927 -14.665   4.278  1.00  0.00     0.154 A 
HETATM    6  C   UNL     1      43.130 -15.879   3.575  1.00  0.00     0.007 A 
HETATM    7  C   UNL     1      43.319 -16.843   4.538  1.00  0.00     0.069 A 
HETATM    8  C   UNL     1      43.197 -16.204   2.124  1.00  0.00     0.048 C 
HETATM    9  C   UNL     1      43.568 -18.247   4.259  1.00  0.00    -0.001 A 
HETATM   10  N   UNL     1      43.205 -16.203   5.733  1.00  0.00    -0.276 N 
HETATM   11  C   UNL     1      43.382 -18.664   2.918  1.00  0.00    -0.045 A 
HETATM   12  C   UNL     1      43.996 -19.161   5.223  1.00  0.00     0.014 A 
HETATM   13  C   UNL     1      43.606 -20.004   2.577  1.00  0.00     0.008 A 
HETATM   14  C   UNL     1      42.844 -17.691   1.874  1.00  0.00     0.044 C 
HETATM   15  C   UNL     1      44.034 -20.910   3.548  1.00  0.00     0.001 A 
HETATM   16  C   UNL     1      44.229 -20.491   4.865  1.00  0.00     0.001 A 
HETATM   17  N   UNL     1      42.966 -14.879   5.618  1.00  0.00    -0.168 NA
HETATM   18  H   UNL     1      43.272 -16.604   6.662  1.00  0.00     0.189 HD
ENDBRANCH   1   5
BRANCH   2  19
HETATM   19  N   UNL     1      40.906 -11.832   3.178  1.00  0.00    -0.165 NA
HETATM   20  C   UNL     1      40.432 -11.885   1.975  1.00  0.00     0.157 A 
HETATM   21  C   UNL     1      40.042 -10.589   1.229  1.00  0.00     0.277 A 
HETATM   22  C   UNL     1      40.151 -12.982   1.034  1.00  0.00     0.027 A 
HETATM   23  O   UNL     1      40.084  -9.460   1.663  1.00  0.00    -0.266 OA
HETATM   24  N   UNL     1      39.655 -10.992  -0.027  1.00  0.00    -0.321 N 
HETATM   25  C   UNL     1      39.708 -12.374  -0.146  1.00  0.00     0.048 A 
HETATM   26  H   UNL     1      39.342 -10.342  -0.733  1.00  0.00     0.169 HD
HETATM   27  C   UNL     1      39.348 -13.105  -1.262  1.00  0.00     0.030 A 
HETATM   28  C   UNL     1      39.427 -14.495  -1.175  1.00  0.00     0.002 A 
HETATM   29  C   UNL     1      39.843 -15.117   0.015  1.00  0.00     0.001 A 
HETATM   30  C   UNL     1      40.201 -14.361   1.139  1.00  0.00     0.016 A 
ENDBRANCH   2  19
TORSDOF 2
ENDMDL
MODEL 3
REMARK VINA RESULT:     -10.0      4.086      6.651
REMARK  2 active torsions:
REMARK  status: ('A' for Active; 'I' for Inactive)
REMARK    1  A    between atoms: C_7  and  C_8 
REMARK       I    between atoms: C_8  and  N_9 
REMARK    2  A    between atoms: N_9  and  N_10 
ROOT
HETATM    1  C   UNL     1      42.789 -13.076   5.093  1.00  0.00     0.292 C 
HETATM    2  N   UNL     1      42.098 -12.581   6.188  1.00  0.00    -0.241 N 
HETATM    3  O   UNL     1      43.142 -12.432   4.110  1.00  0.00    -0.264 OA
HETATM    4  H   UNL     1      41.783 -13.280   6.852  1.00  0.00     0.192 HD
ENDROOT
BRANCH   1   5
HETATM    5  C   UNL     1      43.073 -14.516   5.245  1.00  0.00     0.154 A 
HETATM    6  C   UNL     1      43.072 -15.515   4.241  1.00  0.00     0.007 A 
HETATM    7  C   UNL     1      43.428 -16.684   4.874  1.00  0.00     0.069 A 
HETATM    8  C   UNL     1      42.810 -15.471   2.776  1.00  0.00     0.048 C 
HETATM    9  C   UNL     1      43.555 -17.972   4.212  1.00  0.00    -0.001 A 
HETATM   10  N   UNL     1      43.600 -16.361   6.183  1.00  0.00    -0.276 N 
HETATM   11  C   UNL     1      43.067 -18.048   2.884  1.00  0.00    -0.045 A 
HETATM   12  C   UNL     1      44.146 -19.089   4.807  1.00  0.00     0.014 A 
HETATM   13  C   UNL     1      43.160 -19.259   2.187  1.00  0.00     0.008 A 
HETATM   14  C   UNL     1      42.355 -16.856   2.254  1.00  0.00     0.044 C 
HETATM   15  C   UNL     1      43.752 -20.369   2.789  1.00  0.00     0.001 A 
HETATM   16  C   UNL     1      44.244 -20.285   4.093  1.00  0.00     0.001 A 
HETATM   17  N   UNL     1      43.393 -15.053   6.450  1.00  0.00    -0.168 NA
HETATM   18  H   UNL     1      43.851 -16.977   6.949  1.00  0.00     0.189 HD
ENDBRANCH   1   5
BRANCH   2  19
HETATM   19  N   UNL     1      41.606 -11.316   6.206  1.00  0.00    -0.165 NA
HETATM   20  C   UNL     1      42.287 -10.374   6.778  1.00  0.00     0.157 A 
HETATM   21  C   UNL     1      41.685  -8.961   6.943  1.00  0.00     0.277 A 
HETATM   22  C   UNL     1      43.627 -10.306   7.384  1.00  0.00     0.027 A 
HETATM   23  O   UNL     1      40.607  -8.579   6.547  1.00  0.00    -0.266 OA
HETATM   24  N   UNL     1      42.624  -8.243   7.645  1.00  0.00    -0.321 N 
HETATM   25  C   UNL     1      43.752  -9.011   7.898  1.00  0.00     0.048 A 
HETATM   26  H   UNL     1      42.491  -7.275   7.894  1.00  0.00     0.169 HD
HETATM   27  C   UNL     1      44.895  -8.582   8.546  1.00  0.00     0.030 A 
HETATM   28  C   UNL     1      45.947  -9.490   8.665  1.00  0.00     0.002 A 
HETATM   29  C   UNL     1      45.843 -10.784   8.126  1.00  0.00     0.001 A 
HETATM   30  C   UNL     1      44.678 -11.202   7.469  1.00  0.00     0.016 A 
ENDBRANCH   2  19
TORSDOF 2
ENDMDL
MODEL 4
REMARK VINA RESULT:      -9.9      4.359      6.813
REMARK  2 active torsions:
REMARK  status: ('A' for Active; 'I' for Inactive)
REMARK    1  A    between atoms: C_7  and  C_8 
REMARK       I    between atoms: C_8  and  N_9 
REMARK    2  A    between atoms: N_9  and  N_10 
ROOT
HETATM    1  C   UNL     1      40.350 -12.843   5.618  1.00  0.00     0.292 C 
HETATM    2  N   UNL     1      41.097 -11.683   5.472  1.00  0.00    -0.241 N 
HETATM    3  O   UNL     1      39.443 -13.021   6.425  1.00  0.00    -0.264 OA
HETATM    4  H   UNL     1      41.885 -11.755   4.839  1.00  0.00     0.192 HD
ENDROOT
BRANCH   1   5
HETATM    5  C   UNL     1      40.774 -13.878   4.656  1.00  0.00     0.154 A 
HETATM    6  C   UNL     1      41.671 -14.953   4.873  1.00  0.00     0.007 A 
HETATM    7  C   UNL     1      41.714 -15.651   3.688  1.00  0.00     0.069 A 
HETATM    8  C   UNL     1      42.444 -15.396   6.066  1.00  0.00     0.048 C 
HETATM    9  C   UNL     1      42.513 -16.843   3.464  1.00  0.00    -0.001 A 
HETATM   10  N   UNL     1      40.892 -14.984   2.834  1.00  0.00    -0.276 N 
HETATM   11  C   UNL     1      43.464 -17.161   4.465  1.00  0.00    -0.045 A 
HETATM   12  C   UNL     1      42.364 -17.674   2.351  1.00  0.00     0.014 A 
HETATM   13  C   UNL     1      44.268 -18.297   4.313  1.00  0.00     0.008 A 
HETATM   14  C   UNL     1      43.685 -16.220   5.645  1.00  0.00     0.044 C 
HETATM   15  C   UNL     1      44.111 -19.121   3.198  1.00  0.00     0.001 A 
HETATM   16  C   UNL     1      43.163 -18.812   2.222  1.00  0.00     0.001 A 
HETATM   17  N   UNL     1      40.304 -13.900   3.383  1.00  0.00    -0.168 NA
HETATM   18  H   UNL     1      40.691 -15.204   1.864  1.00  0.00     0.189 HD
ENDBRANCH   1   5
BRANCH   2  19
HETATM   19  N   UNL     1      40.980 -10.647   6.342  1.00  0.00    -0.165 NA
HETATM   20  C   UNL     1      42.021 -10.244   6.998  1.00  0.00     0.157 A 
HETATM   21  C   UNL     1      41.886  -9.170   8.100  1.00  0.00     0.277 A 
HETATM   22  C   UNL     1      43.450 -10.597   6.964  1.00  0.00     0.027 A 
HETATM   23  O   UNL     1      40.877  -8.585   8.425  1.00  0.00    -0.266 OA
HETATM   24  N   UNL     1      43.144  -9.035   8.636  1.00  0.00    -0.321 N 
HETATM   25  C   UNL     1      44.056  -9.851   7.981  1.00  0.00     0.048 A 
HETATM   26  H   UNL     1      43.349  -8.389   9.383  1.00  0.00     0.169 HD
HETATM   27  C   UNL     1      45.410  -9.927   8.245  1.00  0.00     0.030 A 
HETATM   28  C   UNL     1      46.175 -10.776   7.445  1.00  0.00     0.002 A 
HETATM   29  C   UNL     1      45.582 -11.508   6.401  1.00  0.00     0.001 A 
HETATM   30  C   UNL     1      44.208 -11.416   6.145  1.00  0.00     0.016 A 
ENDBRANCH   2  19
TORSDOF 2
ENDMDL
MODEL 5
REMARK VINA RESULT:      -9.8      2.422      7.394
REMARK  2 active torsions:
REMARK  status: ('A' for Active; 'I' for Inactive)
REMARK    1  A    between atoms: C_7  and  C_8 
REMARK       I    between atoms: C_8  and  N_9 
REMARK    2  A    between atoms: N_9  and  N_10 
ROOT
HETATM    1  C   UNL     1      40.406 -13.153   4.636  1.00  0.00     0.292 C 
HETATM    2  N   UNL     1      41.718 -13.597   4.705  1.00  0.00    -0.241 N 
HETATM    3  O   UNL     1      39.597 -13.146   5.558  1.00  0.00    -0.264 OA
HETATM    4  H   UNL     1      42.206 -13.643   3.817  1.00  0.00     0.192 HD
ENDROOT
BRANCH   1   5
HETATM    5  C   UNL     1      40.077 -12.665   3.283  1.00  0.00     0.154 A 
HETATM    6  C   UNL     1      39.857 -13.430   2.111  1.00  0.00     0.007 A 
HETATM    7  C   UNL     1      39.552 -12.522   1.123  1.00  0.00     0.069 A 
HETATM    8  C   UNL     1      39.869 -14.894   1.846  1.00  0.00     0.048 C 
HETATM    9  C   UNL     1      39.248 -12.875  -0.253  1.00  0.00    -0.001 A 
HETATM   10  N   UNL     1      39.621 -11.296   1.709  1.00  0.00    -0.276 N 
HETATM   11  C   UNL     1      39.500 -14.217  -0.629  1.00  0.00    -0.045 A 
HETATM   12  C   UNL     1      38.709 -11.979  -1.178  1.00  0.00     0.014 A 
HETATM   13  C   UNL     1      39.228 -14.627  -1.940  1.00  0.00     0.008 A 
HETATM   14  C   UNL     1      40.158 -15.183   0.352  1.00  0.00     0.044 C 
HETATM   15  C   UNL     1      38.689 -13.724  -2.856  1.00  0.00     0.001 A 
HETATM   16  C   UNL     1      38.429 -12.406  -2.478  1.00  0.00     0.001 A 
HETATM   17  N   UNL     1      39.938 -11.340   3.021  1.00  0.00    -0.168 NA
HETATM   18  H   UNL     1      39.471 -10.391   1.278  1.00  0.00     0.189 HD
ENDBRANCH   1   5
BRANCH   2  19
HETATM   19  N   UNL     1      42.201 -14.220   5.811  1.00  0.00    -0.165 NA
HETATM   20  C   UNL     1      42.718 -15.403   5.702  1.00  0.00     0.157 A 
HETATM   21  C   UNL     1      43.137 -16.194   6.961  1.00  0.00     0.277 A 
HETATM   22  C   UNL     1      43.029 -16.281   4.562  1.00  0.00     0.027 A 
HETATM   23  O   UNL     1      43.083 -15.815   8.109  1.00  0.00    -0.266 OA
HETATM   24  N   UNL     1      43.567 -17.415   6.500  1.00  0.00    -0.321 N 
HETATM   25  C   UNL     1      43.514 -17.472   5.114  1.00  0.00     0.048 A 
HETATM   26  H   UNL     1      43.906 -18.139   7.115  1.00  0.00     0.169 HD
HETATM   27  C   UNL     1      43.911 -18.539   4.331  1.00  0.00     0.030 A 
HETATM   28  C   UNL     1      43.825 -18.390   2.947  1.00  0.00     0.002 A 
HETATM   29  C   UNL     1      43.367 -17.188   2.381  1.00  0.00     0.001 A 
HETATM   30  C   UNL     1      42.972 -16.114   3.190  1.00  0.00     0.016 A 
ENDBRANCH   2  19
TORSDOF 2
ENDMDL
MODEL 6
REMARK VINA RESULT:      -9.6      3.511      6.077
REMARK  2 active torsions:
REMARK  status: ('A' for Active; 'I' for Inactive)
REMARK    1  A    between atoms: C_7  and  C_8 
REMARK       I    between atoms: C_8  and  N_9 
REMARK    2  A    between atoms: N_9  and  N_10 
ROOT
HETATM    1  C   UNL     1      42.392 -13.211   3.240  1.00  0.00     0.292 C 
HETATM    2  N   UNL     1      41.619 -13.186   4.391  1.00  0.00    -0.241 N 
HETATM    3  O   UNL     1      42.779 -12.234   2.607  1.00  0.00    -0.264 OA
HETATM    4  H   UNL     1      41.291 -14.090   4.711  1.00  0.00     0.192 HD
ENDROOT
BRANCH   1   5
HETATM    5  C   UNL     1      42.719 -14.595   2.845  1.00  0.00     0.154 A 
HETATM    6  C   UNL     1      42.989 -15.700   3.690  1.00  0.00     0.007 A 
HETATM    7  C   UNL     1      43.203 -16.770   2.850  1.00  0.00     0.069 A 
HETATM    8  C   UNL     1      43.029 -15.852   5.170  1.00  0.00     0.048 C 
HETATM    9  C   UNL     1      43.512 -18.117   3.297  1.00  0.00    -0.001 A 
HETATM   10  N   UNL     1      43.081 -16.282   1.587  1.00  0.00    -0.276 N 
HETATM   11  C   UNL     1      43.822 -18.269   4.671  1.00  0.00    -0.045 A 
HETATM   12  C   UNL     1      43.487 -19.233   2.458  1.00  0.00     0.014 A 
HETATM   13  C   UNL     1      44.128 -19.541   5.171  1.00  0.00     0.008 A 
HETATM   14  C   UNL     1      43.925 -17.047   5.579  1.00  0.00     0.044 C 
HETATM   15  C   UNL     1      44.100 -20.649   4.324  1.00  0.00     0.001 A 
HETATM   16  C   UNL     1      43.780 -20.497   2.974  1.00  0.00     0.001 A 
HETATM   17  N   UNL     1      42.788 -14.964   1.541  1.00  0.00    -0.168 NA
HETATM   18  H   UNL     1      43.190 -16.784   0.713  1.00  0.00     0.189 HD
ENDBRANCH   1   5
BRANCH   2  19
HETATM   19  N   UNL     1      41.081 -12.031   4.861  1.00  0.00    -0.165 NA
HETATM   20  C   UNL     1      41.747 -11.316   5.711  1.00  0.00     0.157 A 
HETATM   21  C   UNL     1      41.099 -10.080   6.373  1.00  0.00     0.277 A 
HETATM   22  C   UNL     1      43.105 -11.400   6.274  1.00  0.00     0.027 A 
HETATM   23  O   UNL     1      39.994  -9.636   6.158  1.00  0.00    -0.266 OA
HETATM   24  N   UNL     1      42.036  -9.608   7.262  1.00  0.00    -0.321 N 
HETATM   25  C   UNL     1      43.200 -10.360   7.206  1.00  0.00     0.048 A 
HETATM   26  H   UNL     1      41.876  -8.794   7.836  1.00  0.00     0.169 HD
HETATM   27  C   UNL     1      44.349 -10.130   7.938  1.00  0.00     0.030 A 
HETATM   28  C   UNL     1      45.438 -10.971   7.710  1.00  0.00     0.002 A 
HETATM   29  C   UNL     1      45.363 -12.000   6.755  1.00  0.00     0.001 A 
HETATM   30  C   UNL     1      44.192 -12.217   6.018  1.00  0.00     0.016 A 
ENDBRANCH   2  19
TORSDOF 2
ENDMDL
MODEL 7
REMARK VINA RESULT:      -9.6      2.908      3.889
REMARK  2 active torsions:
REMARK  status: ('A' for Active; 'I' for Inactive)
REMARK    1  A    between atoms: C_7  and  C_8 
REMARK       I    between atoms: C_8  and  N_9 
REMARK    2  A    between atoms: N_9  and  N_10 
ROOT
HETATM    1  C   UNL     1      42.971 -13.856   6.423  1.00  0.00     0.292 C 
HETATM    2  N   UNL     1      41.644 -13.463   6.345  1.00  0.00    -0.241 N 
HETATM    3  O   UNL     1      43.941 -13.110   6.515  1.00  0.00    -0.264 OA
HETATM    4  H   UNL     1      40.984 -14.208   6.151  1.00  0.00     0.192 HD
ENDROOT
BRANCH   1   5
HETATM    5  C   UNL     1      43.097 -15.326   6.392  1.00  0.00     0.154 A 
HETATM    6  C   UNL     1      43.278 -16.160   5.261  1.00  0.00     0.007 A 
HETATM    7  C   UNL     1      43.370 -17.443   5.753  1.00  0.00     0.069 A 
HETATM    8  C   UNL     1      43.406 -15.873   3.807  1.00  0.00     0.048 C 
HETATM    9  C   UNL     1      43.565 -18.626   4.932  1.00  0.00    -0.001 A 
HETATM   10  N   UNL     1      43.224 -17.336   7.101  1.00  0.00    -0.276 N 
HETATM   11  C   UNL     1      43.431 -18.450   3.533  1.00  0.00    -0.045 A 
HETATM   12  C   UNL     1      43.897 -19.878   5.452  1.00  0.00     0.014 A 
HETATM   13  C   UNL     1      43.608 -19.549   2.682  1.00  0.00     0.008 A 
HETATM   14  C   UNL     1      42.996 -17.104   2.962  1.00  0.00     0.044 C 
HETATM   15  C   UNL     1      43.940 -20.796   3.211  1.00  0.00     0.001 A 
HETATM   16  C   UNL     1      44.085 -20.960   4.590  1.00  0.00     0.001 A 
HETATM   17  N   UNL     1      43.054 -16.067   7.529  1.00  0.00    -0.168 NA
HETATM   18  H   UNL     1      43.222 -18.082   7.787  1.00  0.00     0.189 HD
ENDBRANCH   1   5
BRANCH   2  19
HETATM   19  N   UNL     1      41.295 -12.157   6.214  1.00  0.00    -0.165 NA
HETATM   20  C   UNL     1      40.837 -11.730   5.080  1.00  0.00     0.157 A 
HETATM   21  C   UNL     1      40.574 -10.224   4.859  1.00  0.00     0.277 A 
HETATM   22  C   UNL     1      40.476 -12.384   3.812  1.00  0.00     0.027 A 
HETATM   23  O   UNL     1      40.708  -9.335   5.671  1.00  0.00    -0.266 OA
HETATM   24  N   UNL     1      40.174 -10.110   3.549  1.00  0.00    -0.321 N 
HETATM   25  C   UNL     1      40.108 -11.355   2.938  1.00  0.00     0.048 A 
HETATM   26  H   UNL     1      39.931  -9.225   3.131  1.00  0.00     0.169 HD
HETATM   27  C   UNL     1      39.703 -11.599   1.640  1.00  0.00     0.030 A 
HETATM   28  C   UNL     1      39.659 -12.928   1.218  1.00  0.00     0.002 A 
HETATM   29  C   UNL     1      39.999 -13.972   2.096  1.00  0.00     0.001 A 
HETATM   30  C   UNL     1      40.403 -13.706   3.411  1.00  0.00     0.016 A 
ENDBRANCH   2  19
TORSDOF 2
ENDMDL
MODEL 8
REMARK VINA RESULT:      -9.3      2.545      7.969
REMARK  2 active torsions:
REMARK  status: ('A' for Active; 'I' for Inactive)
REMARK    1  A    between atoms: C_7  and  C_8 
REMARK       I    between atoms: C_8  and  N_9 
REMARK    2  A    between atoms: N_9  and  N_10 
ROOT
HETATM    1  C   UNL     1      41.012 -14.600   3.730  1.00  0.00     0.292 C 
HETATM    2  N   UNL     1      42.260 -15.197   3.835  1.00  0.00    -0.241 N 
HETATM    3  O   UNL     1      40.284 -14.280   4.665  1.00  0.00    -0.264 OA
HETATM    4  H   UNL     1      42.667 -15.501   2.957  1.00  0.00     0.192 HD
ENDROOT
BRANCH   1   5
HETATM    5  C   UNL     1      40.643 -14.374   2.320  1.00  0.00     0.154 A 
HETATM    6  C   UNL     1      40.960 -13.259   1.505  1.00  0.00     0.007 A 
HETATM    7  C   UNL     1      40.421 -13.533   0.268  1.00  0.00     0.069 A 
HETATM    8  C   UNL     1      41.732 -12.012   1.758  1.00  0.00     0.048 C 
HETATM    9  C   UNL     1      40.514 -12.653  -0.883  1.00  0.00    -0.001 A 
HETATM   10  N   UNL     1      39.807 -14.741   0.390  1.00  0.00    -0.276 N 
HETATM   11  C   UNL     1      41.002 -11.345  -0.638  1.00  0.00    -0.045 A 
HETATM   12  C   UNL     1      40.180 -13.043  -2.182  1.00  0.00     0.014 A 
HETATM   13  C   UNL     1      41.118 -10.444  -1.703  1.00  0.00     0.008 A 
HETATM   14  C   UNL     1      41.298 -10.887   0.787  1.00  0.00     0.044 C 
HETATM   15  C   UNL     1      40.783 -10.843  -2.997  1.00  0.00     0.001 A 
HETATM   16  C   UNL     1      40.317 -12.137  -3.236  1.00  0.00     0.001 A 
HETATM   17  N   UNL     1      39.918 -15.284   1.621  1.00  0.00    -0.168 NA
HETATM   18  H   UNL     1      39.290 -15.250  -0.319  1.00  0.00     0.189 HD
ENDBRANCH   1   5
BRANCH   2  19
HETATM   19  N   UNL     1      42.745 -15.627   5.027  1.00  0.00    -0.165 NA
HETATM   20  C   UNL     1      43.149 -16.852   5.147  1.00  0.00     0.157 A 
HETATM   21  C   UNL     1      43.564 -17.409   6.526  1.00  0.00     0.277 A 
HETATM   22  C   UNL     1      43.319 -17.969   4.202  1.00  0.00     0.027 A 
HETATM   23  O   UNL     1      43.606 -16.803   7.573  1.00  0.00    -0.266 OA
HETATM   24  N   UNL     1      43.859 -18.735   6.312  1.00  0.00    -0.321 N 
HETATM   25  C   UNL     1      43.726 -19.065   4.971  1.00  0.00     0.048 A 
HETATM   26  H   UNL     1      44.166 -19.349   7.052  1.00  0.00     0.169 HD
HETATM   27  C   UNL     1      43.985 -20.302   4.412  1.00  0.00     0.030 A 
HETATM   28  C   UNL     1      43.838 -20.428   3.030  1.00  0.00     0.002 A 
HETATM   29  C   UNL     1      43.457 -19.326   2.245  1.00  0.00     0.001 A 
HETATM   30  C   UNL     1      43.202 -18.078   2.828  1.00  0.00     0.016 A 
ENDBRANCH   2  19
TORSDOF 2
ENDMDL
MODEL 9
REMARK VINA RESULT:      -9.2      4.507      7.407
REMARK  2 active torsions:
REMARK  status: ('A' for Active; 'I' for Inactive)
REMARK    1  A    between atoms: C_7  and  C_8 
REMARK       I    between atoms: C_8  and  N_9 
REMARK    2  A    between atoms: N_9  and  N_10 
ROOT
HETATM    1  C   UNL     1      39.930 -11.856   6.407  1.00  0.00     0.292 C 
HETATM    2  N   UNL     1      41.066 -11.127   6.726  1.00  0.00    -0.241 N 
HETATM    3  O   UNL     1      38.771 -11.469   6.513  1.00  0.00    -0.264 OA
HETATM    4  H   UNL     1      41.936 -11.647   6.691  1.00  0.00     0.192 HD
ENDROOT
BRANCH   1   5
HETATM    5  C   UNL     1      40.279 -13.196   5.898  1.00  0.00     0.154 A 
HETATM    6  C   UNL     1      41.127 -13.520   4.810  1.00  0.00     0.007 A 
HETATM    7  C   UNL     1      41.158 -14.896   4.756  1.00  0.00     0.069 A 
HETATM    8  C   UNL     1      41.919 -12.686   3.865  1.00  0.00     0.048 C 
HETATM    9  C   UNL     1      41.916 -15.664   3.784  1.00  0.00    -0.001 A 
HETATM   10  N   UNL     1      40.343 -15.325   5.757  1.00  0.00    -0.276 N 
HETATM   11  C   UNL     1      42.474 -14.936   2.704  1.00  0.00    -0.045 A 
HETATM   12  C   UNL     1      42.132 -17.039   3.887  1.00  0.00     0.014 A 
HETATM   13  C   UNL     1      43.218 -15.614   1.730  1.00  0.00     0.008 A 
HETATM   14  C   UNL     1      42.181 -13.448   2.543  1.00  0.00     0.044 C 
HETATM   15  C   UNL     1      43.429 -16.988   1.842  1.00  0.00     0.001 A 
HETATM   16  C   UNL     1      42.890 -17.698   2.916  1.00  0.00     0.001 A 
HETATM   17  N   UNL     1      39.789 -14.324   6.473  1.00  0.00    -0.168 NA
HETATM   18  H   UNL     1      40.113 -16.281   6.005  1.00  0.00     0.189 HD
ENDBRANCH   1   5
BRANCH   2  19
HETATM   19  N   UNL     1      40.987  -9.921   7.345  1.00  0.00    -0.165 NA
HETATM   20  C   UNL     1      42.066  -9.364   7.796  1.00  0.00     0.157 A 
HETATM   21  C   UNL     1      41.987  -8.067   8.632  1.00  0.00     0.277 A 
HETATM   22  C   UNL     1      43.498  -9.695   7.715  1.00  0.00     0.027 A 
HETATM   23  O   UNL     1      40.990  -7.438   8.905  1.00  0.00    -0.266 OA
HETATM   24  N   UNL     1      43.281  -7.795   9.009  1.00  0.00    -0.321 N 
HETATM   25  C   UNL     1      44.161  -8.727   8.478  1.00  0.00     0.048 A 
HETATM   26  H   UNL     1      43.525  -6.992   9.568  1.00  0.00     0.169 HD
HETATM   27  C   UNL     1      45.534  -8.722   8.629  1.00  0.00     0.030 A 
HETATM   28  C   UNL     1      46.258  -9.721   7.978  1.00  0.00     0.002 A 
HETATM   29  C   UNL     1      45.605 -10.681   7.186  1.00  0.00     0.001 A 
HETATM   30  C   UNL     1      44.212 -10.669   7.040  1.00  0.00     0.016 A 
ENDBRANCH   2  19
TORSDOF 2
ENDMDL
MODEL 10
REMARK VINA RESULT:      -9.1      1.912      2.553
REMARK  2 active torsions:
REMARK  status: ('A' for Active; 'I' for Inactive)
REMARK    1  A    between atoms: C_7  and  C_8 
REMARK       I    between atoms: C_8  and  N_9 
REMARK    2  A    between atoms: N_9  and  N_10 
ROOT
HETATM    1  C   UNL     1      42.063 -13.757   2.593  1.00  0.00     0.292 C 
HETATM    2  N   UNL     1      40.676 -13.762   2.591  1.00  0.00    -0.241 N 
HETATM    3  O   UNL     1      42.781 -12.764   2.649  1.00  0.00    -0.264 OA
HETATM    4  H   UNL     1      40.248 -14.665   2.417  1.00  0.00     0.192 HD
ENDROOT
BRANCH   1   5
HETATM    5  C   UNL     1      42.603 -15.128   2.527  1.00  0.00     0.154 A 
HETATM    6  C   UNL     1      42.733 -16.065   3.582  1.00  0.00     0.007 A 
HETATM    7  C   UNL     1      43.257 -17.203   3.011  1.00  0.00     0.069 A 
HETATM    8  C   UNL     1      42.387 -16.008   5.029  1.00  0.00     0.048 C 
HETATM    9  C   UNL     1      43.551 -18.426   3.737  1.00  0.00    -0.001 A 
HETATM   10  N   UNL     1      43.435 -16.910   1.695  1.00  0.00    -0.276 N 
HETATM   11  C   UNL     1      43.493 -18.349   5.150  1.00  0.00    -0.045 A 
HETATM   12  C   UNL     1      43.850 -19.640   3.114  1.00  0.00     0.014 A 
HETATM   13  C   UNL     1      43.765 -19.492   5.913  1.00  0.00     0.008 A 
HETATM   14  C   UNL     1      43.241 -17.013   5.841  1.00  0.00     0.044 C 
HETATM   15  C   UNL     1      44.061 -20.700   5.281  1.00  0.00     0.001 A 
HETATM   16  C   UNL     1      44.103 -20.774   3.888  1.00  0.00     0.001 A 
HETATM   17  N   UNL     1      43.052 -15.659   1.361  1.00  0.00    -0.168 NA
HETATM   18  H   UNL     1      43.818 -17.508   0.971  1.00  0.00     0.189 HD
ENDBRANCH   1   5
BRANCH   2  19
HETATM   19  N   UNL     1      39.961 -12.611   2.504  1.00  0.00    -0.165 NA
HETATM   20  C   UNL     1      39.479 -12.245   1.358  1.00  0.00     0.157 A 
HETATM   21  C   UNL     1      38.791 -10.871   1.201  1.00  0.00     0.277 A 
HETATM   22  C   UNL     1      39.425 -12.868   0.026  1.00  0.00     0.027 A 
HETATM   23  O   UNL     1      38.592 -10.053   2.072  1.00  0.00    -0.266 OA
HETATM   24  N   UNL     1      38.472 -10.771  -0.132  1.00  0.00    -0.321 N 
HETATM   25  C   UNL     1      38.829 -11.924  -0.818  1.00  0.00     0.048 A 
HETATM   26  H   UNL     1      38.005  -9.965  -0.519  1.00  0.00     0.169 HD
HETATM   27  C   UNL     1      38.612 -12.168  -2.160  1.00  0.00     0.030 A 
HETATM   28  C   UNL     1      39.001 -13.411  -2.661  1.00  0.00     0.002 A 
HETATM   29  C   UNL     1      39.575 -14.377  -1.816  1.00  0.00     0.001 A 
HETATM   30  C   UNL     1      39.784 -14.115  -0.456  1.00  0.00     0.016 A 
ENDBRANCH   2  19
TORSDOF 2
ENDMDL
