MODEL 1
REMARK VINA RESULT:      -8.8      0.000      0.000
REMARK  6 active torsions:
REMARK  status: ('A' for Active; 'I' for Inactive)
REMARK    1  A    between atoms: O_2  and  C_3 
REMARK    2  A    between atoms: C_6  and  C_7 
REMARK    3  A    between atoms: C_13  and  C_14 
REMARK       I    between atoms: C_14  and  N_15 
REMARK    4  A    between atoms: N_15  and  C_16 
REMARK    5  A    between atoms: C_16  and  C_17 
REMARK    6  A    between atoms: C_24  and  C_25 
ROOT
HETATM    1  C   UNL     1      41.406 -14.833   5.131  1.00  0.00     0.118 C 
HETATM    2  N   UNL     1      40.722 -13.970   4.159  1.00  0.00    -0.365 N 
HETATM    3  C   UNL     1      41.359 -12.922   3.575  1.00  0.00     0.138 A 
HETATM    4  N   UNL     1      42.597 -12.521   4.030  1.00  0.00    -0.240 N 
HETATM    5  N   UNL     1      43.122 -11.500   3.340  1.00  0.00    -0.181 NA
HETATM    6  C   UNL     1      42.151 -11.177   2.484  1.00  0.00     0.160 A 
HETATM    7  C   UNL     1      41.026 -12.035   2.567  1.00  0.00     0.096 A 
HETATM    8  C   UNL     1      43.294 -13.133   5.147  1.00  0.00     0.221 C 
HETATM    9  C   UNL     1      42.294 -13.932   6.007  1.00  0.00     0.066 C 
HETATM   10  H   UNL     1      39.716 -14.105   4.086  1.00  0.00     0.161 HD
ENDROOT
BRANCH   7  11
HETATM   11  C   UNL     1      39.836 -11.939   1.746  1.00  0.00     0.257 C 
HETATM   12  N   UNL     1      40.026 -11.382   0.505  1.00  0.00    -0.352 N 
HETATM   13  H   UNL     1      40.926 -10.975   0.297  1.00  0.00     0.163 HD
HETATM   14  O   UNL     1      38.741 -12.304   2.158  1.00  0.00    -0.267 OA
BRANCH  12  15
HETATM   15  C   UNL     1      38.939 -11.191  -0.426  1.00  0.00     0.161 C 
BRANCH  15  16
HETATM   16  C   UNL     1      38.828 -12.308  -1.435  1.00  0.00    -0.041 A 
HETATM   17  C   UNL     1      39.955 -13.090  -1.731  1.00  0.00     0.009 A 
HETATM   18  C   UNL     1      39.865 -14.168  -2.613  1.00  0.00     0.001 A 
HETATM   19  C   UNL     1      38.645 -14.481  -3.208  1.00  0.00     0.000 A 
HETATM   20  C   UNL     1      37.514 -13.723  -2.913  1.00  0.00     0.001 A 
HETATM   21  C   UNL     1      37.602 -12.649  -2.025  1.00  0.00     0.009 A 
ENDBRANCH  15  16
ENDBRANCH  12  15
ENDBRANCH   7  11
BRANCH   1  22
HETATM   22  C   UNL     1      42.125 -15.996   4.449  1.00  0.00    -0.035 A 
HETATM   23  C   UNL     1      41.848 -16.351   3.117  1.00  0.00     0.012 A 
HETATM   24  C   UNL     1      42.516 -17.409   2.485  1.00  0.00     0.037 A 
HETATM   25  C   UNL     1      43.500 -18.125   3.164  1.00  0.00     0.068 A 
HETATM   26  C   UNL     1      43.816 -17.760   4.470  1.00  0.00     0.037 A 
HETATM   27  C   UNL     1      43.144 -16.709   5.103  1.00  0.00     0.012 A 
BRANCH  25  28
HETATM   28  O   UNL     1      44.223 -19.171   2.667  1.00  0.00    -0.356 OA
HETATM   29  C   UNL     1      43.490 -20.236   2.073  1.00  0.00     0.210 C 
ENDBRANCH  25  28
ENDBRANCH   1  22
BRANCH   8  30
HETATM   30  C   UNL     1      43.995 -12.114   6.020  1.00  0.00     0.409 C 
HETATM   31  F   UNL     1      43.187 -11.088   6.375  1.00  0.00    -0.169 F 
HETATM   32  F   UNL     1      44.385 -12.712   7.182  1.00  0.00    -0.169 F 
HETATM   33  F   UNL     1      45.118 -11.607   5.472  1.00  0.00    -0.169 F 
ENDBRANCH   8  30
TORSDOF 6
ENDMDL
MODEL 2
REMARK VINA RESULT:      -8.2      3.800      7.756
REMARK  6 active torsions:
REMARK  status: ('A' for Active; 'I' for Inactive)
REMARK    1  A    between atoms: O_2  and  C_3 
REMARK    2  A    between atoms: C_6  and  C_7 
REMARK    3  A    between atoms: C_13  and  C_14 
REMARK       I    between atoms: C_14  and  N_15 
REMARK    4  A    between atoms: N_15  and  C_16 
REMARK    5  A    between atoms: C_16  and  C_17 
REMARK    6  A    between atoms: C_24  and  C_25 
ROOT
HETATM    1  C   UNL     1      43.177 -13.670   2.358  1.00  0.00     0.118 C 
HETATM    2  N   UNL     1      43.469 -12.862   3.548  1.00  0.00    -0.365 N 
HETATM    3  C   UNL     1      42.489 -12.516   4.423  1.00  0.00     0.138 A 
HETATM    4  N   UNL     1      41.166 -12.744   4.111  1.00  0.00    -0.240 N 
HETATM    5  N   UNL     1      40.311 -12.387   5.079  1.00  0.00    -0.181 NA
HETATM    6  C   UNL     1      41.104 -11.826   5.995  1.00  0.00     0.160 A 
HETATM    7  C   UNL     1      42.478 -11.886   5.655  1.00  0.00     0.096 A 
HETATM    8  C   UNL     1      40.711 -13.322   2.859  1.00  0.00     0.221 C 
HETATM    9  C   UNL     1      41.823 -13.201   1.798  1.00  0.00     0.066 C 
HETATM   10  H   UNL     1      44.398 -12.446   3.578  1.00  0.00     0.161 HD
ENDROOT
BRANCH   7  11
HETATM   11  C   UNL     1      43.566 -11.380   6.468  1.00  0.00     0.257 C 
HETATM   12  N   UNL     1      43.224 -11.043   7.756  1.00  0.00    -0.352 N 
HETATM   13  H   UNL     1      42.247 -11.052   8.009  1.00  0.00     0.163 HD
HETATM   14  O   UNL     1      44.695 -11.237   6.014  1.00  0.00    -0.267 OA
BRANCH  12  15
HETATM   15  C   UNL     1      44.184 -10.501   8.688  1.00  0.00     0.161 C 
BRANCH  15  16
HETATM   16  C   UNL     1      43.544  -9.659   9.766  1.00  0.00    -0.041 A 
HETATM   17  C   UNL     1      42.203  -9.266   9.634  1.00  0.00     0.009 A 
HETATM   18  C   UNL     1      41.570  -8.541  10.644  1.00  0.00     0.001 A 
HETATM   19  C   UNL     1      42.266  -8.203  11.802  1.00  0.00     0.000 A 
HETATM   20  C   UNL     1      43.593  -8.598  11.954  1.00  0.00     0.001 A 
HETATM   21  C   UNL     1      44.227  -9.330  10.946  1.00  0.00     0.009 A 
ENDBRANCH  15  16
ENDBRANCH  12  15
ENDBRANCH   7  11
BRANCH   1  22
HETATM   22  C   UNL     1      43.280 -15.166   2.650  1.00  0.00    -0.035 A 
HETATM   23  C   UNL     1      43.340 -15.656   3.967  1.00  0.00     0.012 A 
HETATM   24  C   UNL     1      43.421 -17.029   4.237  1.00  0.00     0.037 A 
HETATM   25  C   UNL     1      43.419 -17.952   3.195  1.00  0.00     0.068 A 
HETATM   26  C   UNL     1      43.318 -17.487   1.886  1.00  0.00     0.037 A 
HETATM   27  C   UNL     1      43.245 -16.117   1.616  1.00  0.00     0.012 A 
BRANCH  25  28
HETATM   28  O   UNL     1      43.492 -19.310   3.321  1.00  0.00    -0.356 OA
HETATM   29  C   UNL     1      43.301 -20.077   2.138  1.00  0.00     0.210 C 
ENDBRANCH  25  28
ENDBRANCH   1  22
BRANCH   8  30
HETATM   30  C   UNL     1      39.454 -12.657   2.338  1.00  0.00     0.409 C 
HETATM   31  F   UNL     1      39.272 -12.854   1.012  1.00  0.00    -0.169 F 
HETATM   32  F   UNL     1      38.369 -13.203   2.957  1.00  0.00    -0.169 F 
HETATM   33  F   UNL     1      39.393 -11.333   2.588  1.00  0.00    -0.169 F 
ENDBRANCH   8  30
TORSDOF 6
ENDMDL
MODEL 3
REMARK VINA RESULT:      -8.1      2.227      3.052
REMARK  6 active torsions:
REMARK  status: ('A' for Active; 'I' for Inactive)
REMARK    1  A    between atoms: O_2  and  C_3 
REMARK    2  A    between atoms: C_6  and  C_7 
REMARK    3  A    between atoms: C_13  and  C_14 
REMARK       I    between atoms: C_14  and  N_15 
REMARK    4  A    between atoms: N_15  and  C_16 
REMARK    5  A    between atoms: C_16  and  C_17 
REMARK    6  A    between atoms: C_24  and  C_25 
ROOT
HETATM    1  C   UNL     1      41.229 -15.070   4.768  1.00  0.00     0.118 C 
HETATM    2  N   UNL     1      40.932 -14.067   3.738  1.00  0.00    -0.365 N 
HETATM    3  C   UNL     1      41.786 -13.040   3.486  1.00  0.00     0.138 A 
HETATM    4  N   UNL     1      42.851 -12.801   4.327  1.00  0.00    -0.240 N 
HETATM    5  N   UNL     1      43.629 -11.781   3.938  1.00  0.00    -0.181 NA
HETATM    6  C   UNL     1      42.987 -11.295   2.874  1.00  0.00     0.160 A 
HETATM    7  C   UNL     1      41.835 -12.044   2.527  1.00  0.00     0.096 A 
HETATM    8  C   UNL     1      43.133 -13.569   5.526  1.00  0.00     0.221 C 
HETATM    9  C   UNL     1      41.869 -14.336   5.960  1.00  0.00     0.066 C 
HETATM   10  H   UNL     1      39.989 -14.097   3.357  1.00  0.00     0.161 HD
ENDROOT
BRANCH   7  11
HETATM   11  C   UNL     1      40.959 -11.765   1.407  1.00  0.00     0.257 C 
HETATM   12  N   UNL     1      41.396 -10.779   0.556  1.00  0.00    -0.352 N 
HETATM   13  H   UNL     1      42.209 -10.244   0.822  1.00  0.00     0.163 HD
HETATM   14  O   UNL     1      39.894 -12.353   1.262  1.00  0.00    -0.267 OA
BRANCH  12  15
HETATM   15  C   UNL     1      40.630 -10.362  -0.595  1.00  0.00     0.161 C 
BRANCH  15  16
HETATM   16  C   UNL     1      41.374  -9.385  -1.472  1.00  0.00    -0.041 A 
HETATM   17  C   UNL     1      40.965  -9.196  -2.801  1.00  0.00     0.009 A 
HETATM   18  C   UNL     1      41.595  -8.254  -3.615  1.00  0.00     0.001 A 
HETATM   19  C   UNL     1      42.640  -7.483  -3.110  1.00  0.00     0.000 A 
HETATM   20  C   UNL     1      43.047  -7.649  -1.788  1.00  0.00     0.001 A 
HETATM   21  C   UNL     1      42.413  -8.587  -0.970  1.00  0.00     0.009 A 
ENDBRANCH  15  16
ENDBRANCH  12  15
ENDBRANCH   7  11
BRANCH   1  22
HETATM   22  C   UNL     1      42.041 -16.236   4.207  1.00  0.00    -0.035 A 
HETATM   23  C   UNL     1      42.882 -17.009   5.027  1.00  0.00     0.012 A 
HETATM   24  C   UNL     1      43.617 -18.088   4.517  1.00  0.00     0.037 A 
HETATM   25  C   UNL     1      43.510 -18.438   3.173  1.00  0.00     0.068 A 
HETATM   26  C   UNL     1      42.651 -17.710   2.355  1.00  0.00     0.037 A 
HETATM   27  C   UNL     1      41.923 -16.629   2.863  1.00  0.00     0.012 A 
BRANCH  25  28
HETATM   28  O   UNL     1      44.167 -19.462   2.553  1.00  0.00    -0.356 OA
HETATM   29  C   UNL     1      43.839 -20.782   2.967  1.00  0.00     0.210 C 
ENDBRANCH  25  28
ENDBRANCH   1  22
BRANCH   8  30
HETATM   30  C   UNL     1      43.604 -12.698   6.673  1.00  0.00     0.409 C 
HETATM   31  F   UNL     1      42.844 -11.590   6.831  1.00  0.00    -0.169 F 
HETATM   32  F   UNL     1      43.502 -13.400   7.838  1.00  0.00    -0.169 F 
HETATM   33  F   UNL     1      44.896 -12.324   6.580  1.00  0.00    -0.169 F 
ENDBRANCH   8  30
TORSDOF 6
ENDMDL
MODEL 4
REMARK VINA RESULT:      -8.0      3.918      8.083
REMARK  6 active torsions:
REMARK  status: ('A' for Active; 'I' for Inactive)
REMARK    1  A    between atoms: O_2  and  C_3 
REMARK    2  A    between atoms: C_6  and  C_7 
REMARK    3  A    between atoms: C_13  and  C_14 
REMARK       I    between atoms: C_14  and  N_15 
REMARK    4  A    between atoms: N_15  and  C_16 
REMARK    5  A    between atoms: C_16  and  C_17 
REMARK    6  A    between atoms: C_24  and  C_25 
ROOT
HETATM    1  C   UNL     1      40.497 -14.488   5.835  1.00  0.00     0.118 C 
HETATM    2  N   UNL     1      40.994 -13.189   6.307  1.00  0.00    -0.365 N 
HETATM    3  C   UNL     1      42.322 -12.962   6.478  1.00  0.00     0.138 A 
HETATM    4  N   UNL     1      43.220 -14.005   6.408  1.00  0.00    -0.240 N 
HETATM    5  N   UNL     1      44.498 -13.632   6.561  1.00  0.00    -0.181 NA
HETATM    6  C   UNL     1      44.405 -12.328   6.833  1.00  0.00     0.160 A 
HETATM    7  C   UNL     1      43.075 -11.842   6.783  1.00  0.00     0.096 A 
HETATM    8  C   UNL     1      42.846 -15.390   6.185  1.00  0.00     0.221 C 
HETATM    9  C   UNL     1      41.350 -15.581   6.502  1.00  0.00     0.066 C 
HETATM   10  H   UNL     1      40.283 -12.546   6.650  1.00  0.00     0.161 HD
ENDROOT
BRANCH   7  11
HETATM   11  C   UNL     1      42.676 -10.467   7.011  1.00  0.00     0.257 C 
HETATM   12  N   UNL     1      43.558  -9.718   7.753  1.00  0.00    -0.352 N 
HETATM   13  H   UNL     1      44.341 -10.189   8.182  1.00  0.00     0.163 HD
HETATM   14  O   UNL     1      41.610 -10.030   6.594  1.00  0.00    -0.267 OA
BRANCH  12  15
HETATM   15  C   UNL     1      43.299  -8.339   8.091  1.00  0.00     0.161 C 
BRANCH  15  16
HETATM   16  C   UNL     1      43.233  -8.103   9.580  1.00  0.00    -0.041 A 
HETATM   17  C   UNL     1      42.527  -6.995  10.076  1.00  0.00     0.009 A 
HETATM   18  C   UNL     1      42.398  -6.788  11.450  1.00  0.00     0.001 A 
HETATM   19  C   UNL     1      42.967  -7.688  12.348  1.00  0.00     0.000 A 
HETATM   20  C   UNL     1      43.658  -8.800  11.871  1.00  0.00     0.001 A 
HETATM   21  C   UNL     1      43.783  -9.012  10.496  1.00  0.00     0.009 A 
ENDBRANCH  15  16
ENDBRANCH  12  15
ENDBRANCH   7  11
BRANCH   1  22
HETATM   22  C   UNL     1      40.432 -14.550   4.310  1.00  0.00    -0.035 A 
HETATM   23  C   UNL     1      40.392 -13.382   3.528  1.00  0.00     0.012 A 
HETATM   24  C   UNL     1      40.345 -13.437   2.128  1.00  0.00     0.037 A 
HETATM   25  C   UNL     1      40.364 -14.665   1.471  1.00  0.00     0.068 A 
HETATM   26  C   UNL     1      40.447 -15.830   2.228  1.00  0.00     0.037 A 
HETATM   27  C   UNL     1      40.485 -15.776   3.626  1.00  0.00     0.012 A 
BRANCH  25  28
HETATM   28  O   UNL     1      40.325 -14.857   0.120  1.00  0.00    -0.356 OA
HETATM   29  C   UNL     1      39.896 -13.757  -0.674  1.00  0.00     0.210 C 
ENDBRANCH  25  28
ENDBRANCH   1  22
BRANCH   8  30
HETATM   30  C   UNL     1      43.659 -16.352   7.026  1.00  0.00     0.409 C 
HETATM   31  F   UNL     1      43.590 -16.074   8.348  1.00  0.00    -0.169 F 
HETATM   32  F   UNL     1      43.159 -17.612   6.875  1.00  0.00    -0.169 F 
HETATM   33  F   UNL     1      44.957 -16.426   6.669  1.00  0.00    -0.169 F 
ENDBRANCH   8  30
TORSDOF 6
ENDMDL
MODEL 5
REMARK VINA RESULT:      -8.0      3.373      7.837
REMARK  6 active torsions:
REMARK  status: ('A' for Active; 'I' for Inactive)
REMARK    1  A    between atoms: O_2  and  C_3 
REMARK    2  A    between atoms: C_6  and  C_7 
REMARK    3  A    between atoms: C_13  and  C_14 
REMARK       I    between atoms: C_14  and  N_15 
REMARK    4  A    between atoms: N_15  and  C_16 
REMARK    5  A    between atoms: C_16  and  C_17 
REMARK    6  A    between atoms: C_24  and  C_25 
ROOT
HETATM    1  C   UNL     1      39.725 -14.760   1.806  1.00  0.00     0.118 C 
HETATM    2  N   UNL     1      40.042 -13.932   2.976  1.00  0.00    -0.365 N 
HETATM    3  C   UNL     1      41.273 -13.964   3.550  1.00  0.00     0.138 A 
HETATM    4  N   UNL     1      42.190 -14.920   3.173  1.00  0.00    -0.240 N 
HETATM    5  N   UNL     1      43.373 -14.811   3.793  1.00  0.00    -0.181 NA
HETATM    6  C   UNL     1      43.172 -13.817   4.661  1.00  0.00     0.160 A 
HETATM    7  C   UNL     1      41.885 -13.233   4.552  1.00  0.00     0.096 A 
HETATM    8  C   UNL     1      41.931 -15.959   2.193  1.00  0.00     0.221 C 
HETATM    9  C   UNL     1      40.410 -16.124   2.003  1.00  0.00     0.066 C 
HETATM   10  H   UNL     1      39.246 -13.476   3.419  1.00  0.00     0.161 HD
ENDROOT
BRANCH   7  11
HETATM   11  C   UNL     1      41.398 -12.123   5.347  1.00  0.00     0.257 C 
HETATM   12  N   UNL     1      42.373 -11.348   5.928  1.00  0.00    -0.352 N 
HETATM   13  H   UNL     1      43.331 -11.662   5.868  1.00  0.00     0.163 HD
HETATM   14  O   UNL     1      40.200 -11.925   5.506  1.00  0.00    -0.267 OA
BRANCH  12  15
HETATM   15  C   UNL     1      42.057 -10.220   6.770  1.00  0.00     0.161 C 
BRANCH  15  16
HETATM   16  C   UNL     1      43.211  -9.802   7.649  1.00  0.00    -0.041 A 
HETATM   17  C   UNL     1      44.237 -10.718   7.928  1.00  0.00     0.009 A 
HETATM   18  C   UNL     1      45.346 -10.339   8.686  1.00  0.00     0.001 A 
HETATM   19  C   UNL     1      45.446  -9.037   9.172  1.00  0.00     0.000 A 
HETATM   20  C   UNL     1      44.443  -8.113   8.891  1.00  0.00     0.001 A 
HETATM   21  C   UNL     1      43.336  -8.489   8.127  1.00  0.00     0.009 A 
ENDBRANCH  15  16
ENDBRANCH  12  15
ENDBRANCH   7  11
BRANCH   1  22
HETATM   22  C   UNL     1      40.057 -14.044   0.498  1.00  0.00    -0.035 A 
HETATM   23  C   UNL     1      39.741 -14.609  -0.750  1.00  0.00     0.012 A 
HETATM   24  C   UNL     1      40.033 -13.947  -1.951  1.00  0.00     0.037 A 
HETATM   25  C   UNL     1      40.628 -12.688  -1.933  1.00  0.00     0.068 A 
HETATM   26  C   UNL     1      40.910 -12.095  -0.705  1.00  0.00     0.037 A 
HETATM   27  C   UNL     1      40.626 -12.759   0.493  1.00  0.00     0.012 A 
BRANCH  25  28
HETATM   28  O   UNL     1      40.962 -11.939  -3.025  1.00  0.00    -0.356 OA
HETATM   29  C   UNL     1      40.336 -10.669  -3.150  1.00  0.00     0.210 C 
ENDBRANCH  25  28
ENDBRANCH   1  22
BRANCH   8  30
HETATM   30  C   UNL     1      42.528 -17.293   2.591  1.00  0.00     0.409 C 
HETATM   31  F   UNL     1      42.431 -17.531   3.919  1.00  0.00    -0.169 F 
HETATM   32  F   UNL     1      41.840 -18.295   1.973  1.00  0.00    -0.169 F 
HETATM   33  F   UNL     1      43.815 -17.447   2.219  1.00  0.00    -0.169 F 
ENDBRANCH   8  30
TORSDOF 6
ENDMDL
MODEL 6
REMARK VINA RESULT:      -8.0      2.505      6.948
REMARK  6 active torsions:
REMARK  status: ('A' for Active; 'I' for Inactive)
REMARK    1  A    between atoms: O_2  and  C_3 
REMARK    2  A    between atoms: C_6  and  C_7 
REMARK    3  A    between atoms: C_13  and  C_14 
REMARK       I    between atoms: C_14  and  N_15 
REMARK    4  A    between atoms: N_15  and  C_16 
REMARK    5  A    between atoms: C_16  and  C_17 
REMARK    6  A    between atoms: C_24  and  C_25 
ROOT
HETATM    1  C   UNL     1      42.384 -11.505   3.609  1.00  0.00     0.118 C 
HETATM    2  N   UNL     1      42.825 -12.679   4.372  1.00  0.00    -0.365 N 
HETATM    3  C   UNL     1      41.970 -13.355   5.184  1.00  0.00     0.138 A 
HETATM    4  N   UNL     1      40.725 -12.836   5.466  1.00  0.00    -0.240 N 
HETATM    5  N   UNL     1      39.975 -13.623   6.249  1.00  0.00    -0.181 NA
HETATM    6  C   UNL     1      40.800 -14.626   6.554  1.00  0.00     0.160 A 
HETATM    7  C   UNL     1      42.059 -14.529   5.910  1.00  0.00     0.096 A 
HETATM    8  C   UNL     1      40.240 -11.561   4.970  1.00  0.00     0.221 C 
HETATM    9  C   UNL     1      41.431 -10.698   4.507  1.00  0.00     0.066 C 
HETATM   10  H   UNL     1      43.830 -12.843   4.383  1.00  0.00     0.161 HD
ENDROOT
BRANCH   7  11
HETATM   11  C   UNL     1      43.142 -15.484   6.035  1.00  0.00     0.257 C 
HETATM   12  N   UNL     1      42.792 -16.795   5.815  1.00  0.00    -0.352 N 
HETATM   13  H   UNL     1      41.813 -17.016   5.705  1.00  0.00     0.163 HD
HETATM   14  O   UNL     1      44.273 -15.135   6.349  1.00  0.00    -0.267 OA
BRANCH  12  15
HETATM   15  C   UNL     1      43.746 -17.873   5.924  1.00  0.00     0.161 C 
BRANCH  15  16
HETATM   16  C   UNL     1      43.774 -18.758   4.702  1.00  0.00    -0.041 A 
HETATM   17  C   UNL     1      43.956 -20.141   4.852  1.00  0.00     0.009 A 
HETATM   18  C   UNL     1      43.924 -20.989   3.744  1.00  0.00     0.001 A 
HETATM   19  C   UNL     1      43.704 -20.467   2.472  1.00  0.00     0.000 A 
HETATM   20  C   UNL     1      43.506 -19.097   2.309  1.00  0.00     0.001 A 
HETATM   21  C   UNL     1      43.531 -18.248   3.418  1.00  0.00     0.009 A 
ENDBRANCH  15  16
ENDBRANCH  12  15
ENDBRANCH   7  11
BRANCH   1  22
HETATM   22  C   UNL     1      41.821 -11.896   2.243  1.00  0.00    -0.035 A 
HETATM   23  C   UNL     1      41.713 -13.242   1.850  1.00  0.00     0.012 A 
HETATM   24  C   UNL     1      41.184 -13.603   0.603  1.00  0.00     0.037 A 
HETATM   25  C   UNL     1      40.725 -12.625  -0.275  1.00  0.00     0.068 A 
HETATM   26  C   UNL     1      40.786 -11.290   0.114  1.00  0.00     0.037 A 
HETATM   27  C   UNL     1      41.320 -10.929   1.355  1.00  0.00     0.012 A 
BRANCH  25  28
HETATM   28  O   UNL     1      40.189 -12.841  -1.513  1.00  0.00    -0.356 OA
HETATM   29  C   UNL     1      38.773 -12.765  -1.623  1.00  0.00     0.210 C 
ENDBRANCH  25  28
ENDBRANCH   1  22
BRANCH   8  30
HETATM   30  C   UNL     1      39.450 -10.797   6.012  1.00  0.00     0.409 C 
HETATM   31  F   UNL     1      39.230  -9.509   5.659  1.00  0.00    -0.169 F 
HETATM   32  F   UNL     1      38.220 -11.369   6.151  1.00  0.00    -0.169 F 
HETATM   33  F   UNL     1      40.006 -10.816   7.240  1.00  0.00    -0.169 F 
ENDBRANCH   8  30
TORSDOF 6
ENDMDL
MODEL 7
REMARK VINA RESULT:      -7.8     16.129     18.137
REMARK  6 active torsions:
REMARK  status: ('A' for Active; 'I' for Inactive)
REMARK    1  A    between atoms: O_2  and  C_3 
REMARK    2  A    between atoms: C_6  and  C_7 
REMARK    3  A    between atoms: C_13  and  C_14 
REMARK       I    between atoms: C_14  and  N_15 
REMARK    4  A    between atoms: N_15  and  C_16 
REMARK    5  A    between atoms: C_16  and  C_17 
REMARK    6  A    between atoms: C_24  and  C_25 
ROOT
HETATM    1  C   UNL     1      46.425 -28.038  -1.045  1.00  0.00     0.118 C 
HETATM    2  N   UNL     1      45.468 -28.406   0.006  1.00  0.00    -0.365 N 
HETATM    3  C   UNL     1      44.633 -29.468  -0.141  1.00  0.00     0.138 A 
HETATM    4  N   UNL     1      44.524 -30.103  -1.359  1.00  0.00    -0.240 N 
HETATM    5  N   UNL     1      43.693 -31.154  -1.350  1.00  0.00    -0.181 NA
HETATM    6  C   UNL     1      43.184 -31.130  -0.117  1.00  0.00     0.160 A 
HETATM    7  C   UNL     1      43.739 -30.111   0.696  1.00  0.00     0.096 A 
HETATM    8  C   UNL     1      45.235 -29.696  -2.558  1.00  0.00     0.221 C 
HETATM    9  C   UNL     1      45.728 -28.244  -2.401  1.00  0.00     0.066 C 
HETATM   10  H   UNL     1      45.358 -27.726   0.755  1.00  0.00     0.161 HD
ENDROOT
BRANCH   7  11
HETATM   11  C   UNL     1      43.395 -29.863   2.082  1.00  0.00     0.257 C 
HETATM   12  N   UNL     1      42.228 -30.450   2.508  1.00  0.00    -0.352 N 
HETATM   13  H   UNL     1      41.640 -30.899   1.820  1.00  0.00     0.163 HD
HETATM   14  O   UNL     1      44.089 -29.152   2.799  1.00  0.00    -0.267 OA
BRANCH  12  15
HETATM   15  C   UNL     1      41.729 -30.283   3.852  1.00  0.00     0.161 C 
BRANCH  15  16
HETATM   16  C   UNL     1      40.676 -31.300   4.219  1.00  0.00    -0.041 A 
HETATM   17  C   UNL     1      40.050 -32.045   3.208  1.00  0.00     0.009 A 
HETATM   18  C   UNL     1      39.119 -33.035   3.524  1.00  0.00     0.001 A 
HETATM   19  C   UNL     1      38.804 -33.298   4.855  1.00  0.00     0.000 A 
HETATM   20  C   UNL     1      39.428 -32.576   5.870  1.00  0.00     0.001 A 
HETATM   21  C   UNL     1      40.365 -31.590   5.556  1.00  0.00     0.009 A 
ENDBRANCH  15  16
ENDBRANCH  12  15
ENDBRANCH   7  11
BRANCH   1  22
HETATM   22  C   UNL     1      47.757 -28.767  -0.878  1.00  0.00    -0.035 A 
HETATM   23  C   UNL     1      48.217 -29.178   0.386  1.00  0.00     0.012 A 
HETATM   24  C   UNL     1      49.433 -29.858   0.539  1.00  0.00     0.037 A 
HETATM   25  C   UNL     1      50.211 -30.169  -0.573  1.00  0.00     0.068 A 
HETATM   26  C   UNL     1      49.751 -29.807  -1.837  1.00  0.00     0.037 A 
HETATM   27  C   UNL     1      48.541 -29.121  -1.989  1.00  0.00     0.012 A 
BRANCH  25  28
HETATM   28  O   UNL     1      51.408 -30.825  -0.562  1.00  0.00    -0.356 OA
HETATM   29  C   UNL     1      51.924 -31.244  -1.820  1.00  0.00     0.210 C 
ENDBRANCH  25  28
ENDBRANCH   1  22
BRANCH   8  30
HETATM   30  C   UNL     1      44.378 -29.798  -3.802  1.00  0.00     0.409 C 
HETATM   31  F   UNL     1      43.140 -29.282  -3.625  1.00  0.00    -0.169 F 
HETATM   32  F   UNL     1      44.953 -29.072  -4.803  1.00  0.00    -0.169 F 
HETATM   33  F   UNL     1      44.256 -31.053  -4.280  1.00  0.00    -0.169 F 
ENDBRANCH   8  30
TORSDOF 6
ENDMDL
MODEL 8
REMARK VINA RESULT:      -7.6     16.245     18.617
REMARK  6 active torsions:
REMARK  status: ('A' for Active; 'I' for Inactive)
REMARK    1  A    between atoms: O_2  and  C_3 
REMARK    2  A    between atoms: C_6  and  C_7 
REMARK    3  A    between atoms: C_13  and  C_14 
REMARK       I    between atoms: C_14  and  N_15 
REMARK    4  A    between atoms: N_15  and  C_16 
REMARK    5  A    between atoms: C_16  and  C_17 
REMARK    6  A    between atoms: C_24  and  C_25 
ROOT
HETATM    1  C   UNL     1      45.002 -31.496  -0.517  1.00  0.00     0.118 C 
HETATM    2  N   UNL     1      46.409 -31.123  -0.324  1.00  0.00    -0.365 N 
HETATM    3  C   UNL     1      46.881 -29.916  -0.731  1.00  0.00     0.138 A 
HETATM    4  N   UNL     1      46.101 -29.094  -1.515  1.00  0.00    -0.240 N 
HETATM    5  N   UNL     1      46.678 -27.922  -1.813  1.00  0.00    -0.181 NA
HETATM    6  C   UNL     1      47.898 -28.039  -1.285  1.00  0.00     0.160 A 
HETATM    7  C   UNL     1      48.087 -29.255  -0.582  1.00  0.00     0.096 A 
HETATM    8  C   UNL     1      44.771 -29.437  -1.986  1.00  0.00     0.221 C 
HETATM    9  C   UNL     1      44.564 -30.962  -1.892  1.00  0.00     0.066 C 
HETATM   10  H   UNL     1      47.025 -31.877  -0.028  1.00  0.00     0.161 HD
ENDROOT
BRANCH   7  11
HETATM   11  C   UNL     1      49.299 -29.643   0.111  1.00  0.00     0.257 C 
HETATM   12  N   UNL     1      49.228 -29.597   1.483  1.00  0.00    -0.352 N 
HETATM   13  H   UNL     1      48.405 -29.192   1.905  1.00  0.00     0.163 HD
HETATM   14  O   UNL     1      50.315 -29.955  -0.498  1.00  0.00    -0.267 OA
BRANCH  12  15
HETATM   15  C   UNL     1      50.355 -29.929   2.322  1.00  0.00     0.161 C 
BRANCH  15  16
HETATM   16  C   UNL     1      49.957 -30.687   3.565  1.00  0.00    -0.041 A 
HETATM   17  C   UNL     1      48.602 -30.956   3.810  1.00  0.00     0.009 A 
HETATM   18  C   UNL     1      48.213 -31.709   4.919  1.00  0.00     0.001 A 
HETATM   19  C   UNL     1      49.173 -32.207   5.795  1.00  0.00     0.000 A 
HETATM   20  C   UNL     1      50.524 -31.961   5.558  1.00  0.00     0.001 A 
HETATM   21  C   UNL     1      50.915 -31.213   4.445  1.00  0.00     0.009 A 
ENDBRANCH  15  16
ENDBRANCH  12  15
ENDBRANCH   7  11
BRANCH   1  22
HETATM   22  C   UNL     1      44.133 -31.059   0.661  1.00  0.00    -0.035 A 
HETATM   23  C   UNL     1      44.616 -30.177   1.643  1.00  0.00     0.012 A 
HETATM   24  C   UNL     1      43.815 -29.764   2.718  1.00  0.00     0.037 A 
HETATM   25  C   UNL     1      42.498 -30.205   2.823  1.00  0.00     0.068 A 
HETATM   26  C   UNL     1      41.990 -31.046   1.837  1.00  0.00     0.037 A 
HETATM   27  C   UNL     1      42.791 -31.464   0.769  1.00  0.00     0.012 A 
BRANCH  25  28
HETATM   28  O   UNL     1      41.616 -29.879   3.814  1.00  0.00    -0.356 OA
HETATM   29  C   UNL     1      40.771 -30.919   4.291  1.00  0.00     0.210 C 
ENDBRANCH  25  28
ENDBRANCH   1  22
BRANCH   8  30
HETATM   30  C   UNL     1      44.530 -28.991  -3.414  1.00  0.00     0.409 C 
HETATM   31  F   UNL     1      45.363 -29.591  -4.294  1.00  0.00    -0.169 F 
HETATM   32  F   UNL     1      43.266 -29.343  -3.785  1.00  0.00    -0.169 F 
HETATM   33  F   UNL     1      44.607 -27.657  -3.589  1.00  0.00    -0.169 F 
ENDBRANCH   8  30
TORSDOF 6
ENDMDL
MODEL 9
REMARK VINA RESULT:      -7.5      1.693      2.796
REMARK  6 active torsions:
REMARK  status: ('A' for Active; 'I' for Inactive)
REMARK    1  A    between atoms: O_2  and  C_3 
REMARK    2  A    between atoms: C_6  and  C_7 
REMARK    3  A    between atoms: C_13  and  C_14 
REMARK       I    between atoms: C_14  and  N_15 
REMARK    4  A    between atoms: N_15  and  C_16 
REMARK    5  A    between atoms: C_16  and  C_17 
REMARK    6  A    between atoms: C_24  and  C_25 
ROOT
HETATM    1  C   UNL     1      41.282 -15.079   4.915  1.00  0.00     0.118 C 
HETATM    2  N   UNL     1      40.774 -14.184   3.869  1.00  0.00    -0.365 N 
HETATM    3  C   UNL     1      41.500 -13.119   3.438  1.00  0.00     0.138 A 
HETATM    4  N   UNL     1      42.639 -12.737   4.113  1.00  0.00    -0.240 N 
HETATM    5  N   UNL     1      43.273 -11.695   3.558  1.00  0.00    -0.181 NA
HETATM    6  C   UNL     1      42.464 -11.342   2.557  1.00  0.00     0.160 A 
HETATM    7  C   UNL     1      41.344 -12.199   2.417  1.00  0.00     0.096 A 
HETATM    8  C   UNL     1      43.134 -13.387   5.312  1.00  0.00     0.221 C 
HETATM    9  C   UNL     1      42.003 -14.211   5.960  1.00  0.00     0.066 C 
HETATM   10  H   UNL     1      39.796 -14.314   3.618  1.00  0.00     0.161 HD
ENDROOT
BRANCH   7  11
HETATM   11  C   UNL     1      40.313 -12.073   1.406  1.00  0.00     0.257 C 
HETATM   12  N   UNL     1      40.348 -10.908   0.678  1.00  0.00    -0.352 N 
HETATM   13  H   UNL     1      40.990 -10.184   0.966  1.00  0.00     0.163 HD
HETATM   14  O   UNL     1      39.459 -12.938   1.248  1.00  0.00    -0.267 OA
BRANCH  12  15
HETATM   15  C   UNL     1      39.378 -10.615  -0.350  1.00  0.00     0.161 C 
BRANCH  15  16
HETATM   16  C   UNL     1      38.140  -9.939   0.187  1.00  0.00    -0.041 A 
HETATM   17  C   UNL     1      38.268  -8.820   1.024  1.00  0.00     0.009 A 
HETATM   18  C   UNL     1      37.139  -8.139   1.483  1.00  0.00     0.001 A 
HETATM   19  C   UNL     1      35.867  -8.565   1.109  1.00  0.00     0.000 A 
HETATM   20  C   UNL     1      35.724  -9.666   0.268  1.00  0.00     0.001 A 
HETATM   21  C   UNL     1      36.853 -10.344  -0.198  1.00  0.00     0.009 A 
ENDBRANCH  15  16
ENDBRANCH  12  15
ENDBRANCH   7  11
BRANCH   1  22
HETATM   22  C   UNL     1      42.111 -16.222   4.331  1.00  0.00    -0.035 A 
HETATM   23  C   UNL     1      43.030 -16.940   5.116  1.00  0.00     0.012 A 
HETATM   24  C   UNL     1      43.782 -17.997   4.585  1.00  0.00     0.037 A 
HETATM   25  C   UNL     1      43.614 -18.382   3.257  1.00  0.00     0.068 A 
HETATM   26  C   UNL     1      42.678 -17.709   2.476  1.00  0.00     0.037 A 
HETATM   27  C   UNL     1      41.933 -16.649   3.004  1.00  0.00     0.012 A 
BRANCH  25  28
HETATM   28  O   UNL     1      44.279 -19.390   2.619  1.00  0.00    -0.356 OA
HETATM   29  C   UNL     1      43.487 -20.338   1.914  1.00  0.00     0.210 C 
ENDBRANCH  25  28
ENDBRANCH   1  22
BRANCH   8  30
HETATM   30  C   UNL     1      43.671 -12.399   6.327  1.00  0.00     0.409 C 
HETATM   31  F   UNL     1      44.858 -11.866   5.956  1.00  0.00    -0.169 F 
HETATM   32  F   UNL     1      42.802 -11.354   6.438  1.00  0.00    -0.169 F 
HETATM   33  F   UNL     1      43.798 -12.907   7.569  1.00  0.00    -0.169 F 
ENDBRANCH   8  30
TORSDOF 6
ENDMDL
MODEL 10
REMARK VINA RESULT:      -7.5     16.031     17.752
REMARK  6 active torsions:
REMARK  status: ('A' for Active; 'I' for Inactive)
REMARK    1  A    between atoms: O_2  and  C_3 
REMARK    2  A    between atoms: C_6  and  C_7 
REMARK    3  A    between atoms: C_13  and  C_14 
REMARK       I    between atoms: C_14  and  N_15 
REMARK    4  A    between atoms: N_15  and  C_16 
REMARK    5  A    between atoms: C_16  and  C_17 
REMARK    6  A    between atoms: C_24  and  C_25 
ROOT
HETATM    1  C   UNL     1      47.233 -28.252   1.965  1.00  0.00     0.118 C 
HETATM    2  N   UNL     1      45.780 -28.456   2.001  1.00  0.00    -0.365 N 
HETATM    3  C   UNL     1      45.171 -29.339   1.166  1.00  0.00     0.138 A 
HETATM    4  N   UNL     1      45.875 -29.914   0.130  1.00  0.00    -0.240 N 
HETATM    5  N   UNL     1      45.161 -30.790  -0.589  1.00  0.00    -0.181 NA
HETATM    6  C   UNL     1      43.940 -30.699  -0.058  1.00  0.00     0.160 A 
HETATM    7  C   UNL     1      43.879 -29.820   1.053  1.00  0.00     0.096 A 
HETATM    8  C   UNL     1      47.264 -29.622  -0.174  1.00  0.00     0.221 C 
HETATM    9  C   UNL     1      47.672 -28.292   0.491  1.00  0.00     0.066 C 
HETATM   10  H   UNL     1      45.257 -27.785   2.559  1.00  0.00     0.161 HD
ENDROOT
BRANCH   7  11
HETATM   11  C   UNL     1      42.694 -29.544   1.840  1.00  0.00     0.257 C 
HETATM   12  N   UNL     1      42.706 -30.058   3.114  1.00  0.00    -0.352 N 
HETATM   13  H   UNL     1      43.459 -30.679   3.371  1.00  0.00     0.163 HD
HETATM   14  O   UNL     1      41.745 -28.923   1.375  1.00  0.00    -0.267 OA
BRANCH  12  15
HETATM   15  C   UNL     1      41.593 -29.895   4.019  1.00  0.00     0.161 C 
BRANCH  15  16
HETATM   16  C   UNL     1      40.734 -31.131   4.122  1.00  0.00    -0.041 A 
HETATM   17  C   UNL     1      40.246 -31.534   5.374  1.00  0.00     0.009 A 
HETATM   18  C   UNL     1      39.399 -32.638   5.489  1.00  0.00     0.001 A 
HETATM   19  C   UNL     1      39.023 -33.349   4.352  1.00  0.00     0.000 A 
HETATM   20  C   UNL     1      39.487 -32.952   3.100  1.00  0.00     0.001 A 
HETATM   21  C   UNL     1      40.329 -31.845   2.983  1.00  0.00     0.009 A 
ENDBRANCH  15  16
ENDBRANCH  12  15
ENDBRANCH   7  11
BRANCH   1  22
HETATM   22  C   UNL     1      47.965 -29.222   2.891  1.00  0.00    -0.035 A 
HETATM   23  C   UNL     1      49.369 -29.264   2.949  1.00  0.00     0.012 A 
HETATM   24  C   UNL     1      50.043 -30.143   3.808  1.00  0.00     0.037 A 
HETATM   25  C   UNL     1      49.326 -30.988   4.653  1.00  0.00     0.068 A 
HETATM   26  C   UNL     1      47.935 -30.930   4.638  1.00  0.00     0.037 A 
HETATM   27  C   UNL     1      47.263 -30.058   3.776  1.00  0.00     0.012 A 
BRANCH  25  28
HETATM   28  O   UNL     1      49.857 -31.887   5.534  1.00  0.00    -0.356 OA
HETATM   29  C   UNL     1      51.214 -32.261   5.332  1.00  0.00     0.210 C 
ENDBRANCH  25  28
ENDBRANCH   1  22
BRANCH   8  30
HETATM   30  C   UNL     1      47.523 -29.532  -1.664  1.00  0.00     0.409 C 
HETATM   31  F   UNL     1      48.740 -29.015  -1.950  1.00  0.00    -0.169 F 
HETATM   32  F   UNL     1      47.507 -30.786  -2.198  1.00  0.00    -0.169 F 
HETATM   33  F   UNL     1      46.589 -28.832  -2.339  1.00  0.00    -0.169 F 
ENDBRANCH   8  30
TORSDOF 6
ENDMDL
