MODEL 1
REMARK VINA RESULT:      -8.3      0.000      0.000
REMARK  4 active torsions:
REMARK  status: ('A' for Active; 'I' for Inactive)
REMARK    1  A    between atoms: C_5  and  C_6 
REMARK    2  A    between atoms: C_6  and  N_7 
REMARK    3  A    between atoms: C_6  and  C_18 
REMARK    4  A    between atoms: N_7  and  C_8 
ROOT
HETATM    1  C   UNL     1      41.422 -15.025   3.920  1.00  0.00     0.288 C 
ENDROOT
BRANCH   1   2
HETATM    2  C   UNL     1      42.096 -13.667   4.054  1.00  0.00    -0.003 A 
HETATM    3  C   UNL     1      41.637 -12.766   5.015  1.00  0.00     0.126 A 
HETATM    4  N   UNL     1      42.139 -11.525   5.204  1.00  0.00    -0.272 NA
HETATM    5  C   UNL     1      43.163 -11.151   4.412  1.00  0.00     0.116 A 
HETATM    6  C   UNL     1      43.698 -11.959   3.426  1.00  0.00     0.020 A 
HETATM    7  C   UNL     1      43.151 -13.229   3.242  1.00  0.00     0.012 A 
ENDBRANCH   1   2
BRANCH   1   8
HETATM    8  N   UNL     1      40.212 -14.974   3.057  1.00  0.00     0.101 NA
HETATM    9  H   UNL     1      39.449 -14.660   3.661  1.00  0.00     0.317 HD
BRANCH   8  10
HETATM   10  C   UNL     1      40.228 -14.166   1.832  1.00  0.00     0.225 C 
HETATM   11  C   UNL     1      39.890 -14.963   0.554  1.00  0.00     0.069 C 
HETATM   12  C   UNL     1      39.765 -14.030  -0.634  1.00  0.00     0.190 C 
HETATM   13  N   UNL     1      38.682 -13.030  -0.344  1.00  0.00    -0.067 N 
HETATM   14  C   UNL     1      39.272 -14.632  -1.934  1.00  0.00     0.035 C 
HETATM   15  H   UNL     1      37.832 -13.553  -0.080  1.00  0.00     0.280 HD
HETATM   16  C   UNL     1      39.028 -12.142   0.803  1.00  0.00     0.237 C 
HETATM   17  C   UNL     1      38.372 -12.372  -1.664  1.00  0.00     0.235 C 
HETATM   18  C   UNL     1      39.206 -13.020   2.040  1.00  0.00     0.063 C 
HETATM   19  C   UNL     1      38.777 -13.413  -2.709  1.00  0.00     0.030 C 
ENDBRANCH   8  10
ENDBRANCH   1   8
BRANCH   1  20
HETATM   20  C   UNL     1      42.298 -16.263   3.698  1.00  0.00    -0.021 A 
HETATM   21  C   UNL     1      43.236 -16.726   4.640  1.00  0.00     0.012 A 
HETATM   22  C   UNL     1      43.992 -17.878   4.397  1.00  0.00     0.043 A 
HETATM   23  C   UNL     1      43.795 -18.598   3.228  1.00  0.00     0.116 A 
HETATM   24  F   UNL     1      44.523 -19.697   2.996  1.00  0.00    -0.206 F 
HETATM   25  C   UNL     1      42.843 -18.201   2.301  1.00  0.00     0.043 A 
HETATM   26  C   UNL     1      42.092 -17.049   2.541  1.00  0.00     0.012 A 
ENDBRANCH   1  20
TORSDOF 4
ENDMDL
MODEL 2
REMARK VINA RESULT:      -8.3      2.061      5.644
REMARK  4 active torsions:
REMARK  status: ('A' for Active; 'I' for Inactive)
REMARK    1  A    between atoms: C_5  and  C_6 
REMARK    2  A    between atoms: C_6  and  N_7 
REMARK    3  A    between atoms: C_6  and  C_18 
REMARK    4  A    between atoms: N_7  and  C_8 
ROOT
HETATM    1  C   UNL     1      42.957 -15.814   3.682  1.00  0.00     0.288 C 
ENDROOT
BRANCH   1   2
HETATM    2  C   UNL     1      41.973 -15.368   2.611  1.00  0.00    -0.003 A 
HETATM    3  C   UNL     1      42.306 -14.301   1.774  1.00  0.00     0.126 A 
HETATM    4  N   UNL     1      41.500 -13.802   0.811  1.00  0.00    -0.272 NA
HETATM    5  C   UNL     1      40.302 -14.395   0.647  1.00  0.00     0.116 A 
HETATM    6  C   UNL     1      39.865 -15.457   1.417  1.00  0.00     0.020 A 
HETATM    7  C   UNL     1      40.710 -15.942   2.414  1.00  0.00     0.012 A 
ENDBRANCH   1   2
BRANCH   1   8
HETATM    8  N   UNL     1      42.661 -15.214   5.009  1.00  0.00     0.101 NA
HETATM    9  H   UNL     1      43.129 -15.807   5.698  1.00  0.00     0.317 HD
BRANCH   8  10
HETATM   10  C   UNL     1      43.003 -13.809   5.263  1.00  0.00     0.225 C 
HETATM   11  C   UNL     1      41.776 -12.891   5.449  1.00  0.00     0.069 C 
HETATM   12  C   UNL     1      42.214 -11.502   5.870  1.00  0.00     0.190 C 
HETATM   13  N   UNL     1      42.980 -11.612   7.158  1.00  0.00    -0.067 N 
HETATM   14  C   UNL     1      41.124 -10.524   6.257  1.00  0.00     0.035 C 
HETATM   15  H   UNL     1      42.394 -12.131   7.830  1.00  0.00     0.280 HD
HETATM   16  C   UNL     1      44.250 -12.378   6.994  1.00  0.00     0.237 C 
HETATM   17  C   UNL     1      43.080 -10.207   7.693  1.00  0.00     0.235 C 
HETATM   18  C   UNL     1      43.890 -13.790   6.535  1.00  0.00     0.063 C 
HETATM   19  C   UNL     1      41.875  -9.486   7.087  1.00  0.00     0.030 C 
ENDBRANCH   8  10
ENDBRANCH   1   8
BRANCH   1  20
HETATM   20  C   UNL     1      43.363 -17.291   3.739  1.00  0.00    -0.021 A 
HETATM   21  C   UNL     1      43.735 -17.945   4.928  1.00  0.00     0.012 A 
HETATM   22  C   UNL     1      44.072 -19.303   4.928  1.00  0.00     0.043 A 
HETATM   23  C   UNL     1      44.006 -20.030   3.748  1.00  0.00     0.116 A 
HETATM   24  F   UNL     1      44.334 -21.328   3.750  1.00  0.00    -0.206 F 
HETATM   25  C   UNL     1      43.594 -19.431   2.568  1.00  0.00     0.043 A 
HETATM   26  C   UNL     1      43.262 -18.075   2.567  1.00  0.00     0.012 A 
ENDBRANCH   1  20
TORSDOF 4
ENDMDL
MODEL 3
REMARK VINA RESULT:      -7.9      1.991      5.494
REMARK  4 active torsions:
REMARK  status: ('A' for Active; 'I' for Inactive)
REMARK    1  A    between atoms: C_5  and  C_6 
REMARK    2  A    between atoms: C_6  and  N_7 
REMARK    3  A    between atoms: C_6  and  C_18 
REMARK    4  A    between atoms: N_7  and  C_8 
ROOT
HETATM    1  C   UNL     1      42.272 -16.044   3.702  1.00  0.00     0.288 C 
ENDROOT
BRANCH   1   2
HETATM    2  C   UNL     1      41.651 -15.352   2.498  1.00  0.00    -0.003 A 
HETATM    3  C   UNL     1      40.484 -15.871   1.936  1.00  0.00     0.126 A 
HETATM    4  N   UNL     1      39.863 -15.358   0.851  1.00  0.00    -0.272 NA
HETATM    5  C   UNL     1      40.409 -14.261   0.293  1.00  0.00     0.116 A 
HETATM    6  C   UNL     1      41.564 -13.661   0.763  1.00  0.00     0.020 A 
HETATM    7  C   UNL     1      42.193 -14.220   1.874  1.00  0.00     0.012 A 
ENDBRANCH   1   2
BRANCH   1   8
HETATM    8  N   UNL     1      41.475 -15.847   4.942  1.00  0.00     0.101 NA
HETATM    9  H   UNL     1      41.567 -16.714   5.476  1.00  0.00     0.317 HD
BRANCH   8  10
HETATM   10  C   UNL     1      41.762 -14.703   5.816  1.00  0.00     0.225 C 
HETATM   11  C   UNL     1      43.248 -14.284   5.828  1.00  0.00     0.069 C 
HETATM   12  C   UNL     1      43.429 -13.003   6.618  1.00  0.00     0.190 C 
HETATM   13  N   UNL     1      42.592 -11.928   5.984  1.00  0.00    -0.067 N 
HETATM   14  C   UNL     1      44.803 -12.365   6.588  1.00  0.00     0.035 C 
HETATM   15  H   UNL     1      42.836 -11.888   4.983  1.00  0.00     0.280 HD
HETATM   16  C   UNL     1      41.133 -12.227   6.072  1.00  0.00     0.237 C 
HETATM   17  C   UNL     1      43.074 -10.632   6.582  1.00  0.00     0.235 C 
HETATM   18  C   UNL     1      40.874 -13.532   5.323  1.00  0.00     0.063 C 
HETATM   19  C   UNL     1      44.517 -10.921   6.998  1.00  0.00     0.030 C 
ENDBRANCH   8  10
ENDBRANCH   1   8
BRANCH   1  20
HETATM   20  C   UNL     1      42.825 -17.464   3.532  1.00  0.00    -0.021 A 
HETATM   21  C   UNL     1      42.758 -18.180   2.322  1.00  0.00     0.012 A 
HETATM   22  C   UNL     1      43.301 -19.464   2.214  1.00  0.00     0.043 A 
HETATM   23  C   UNL     1      43.948 -20.033   3.301  1.00  0.00     0.116 A 
HETATM   24  F   UNL     1      44.463 -21.264   3.196  1.00  0.00    -0.206 F 
HETATM   25  C   UNL     1      44.078 -19.337   4.493  1.00  0.00     0.043 A 
HETATM   26  C   UNL     1      43.532 -18.057   4.602  1.00  0.00     0.012 A 
ENDBRANCH   1  20
TORSDOF 4
ENDMDL
MODEL 4
REMARK VINA RESULT:      -7.8      2.389      4.401
REMARK  4 active torsions:
REMARK  status: ('A' for Active; 'I' for Inactive)
REMARK    1  A    between atoms: C_5  and  C_6 
REMARK    2  A    between atoms: C_6  and  N_7 
REMARK    3  A    between atoms: C_6  and  C_18 
REMARK    4  A    between atoms: N_7  and  C_8 
ROOT
HETATM    1  C   UNL     1      42.399 -14.721   2.788  1.00  0.00     0.288 C 
ENDROOT
BRANCH   1   2
HETATM    2  C   UNL     1      42.922 -16.119   3.085  1.00  0.00    -0.003 A 
HETATM    3  C   UNL     1      43.550 -16.370   4.305  1.00  0.00     0.126 A 
HETATM    4  N   UNL     1      44.078 -17.562   4.664  1.00  0.00    -0.272 NA
HETATM    5  C   UNL     1      43.968 -18.572   3.779  1.00  0.00     0.116 A 
HETATM    6  C   UNL     1      43.368 -18.438   2.541  1.00  0.00     0.020 A 
HETATM    7  C   UNL     1      42.846 -17.194   2.190  1.00  0.00     0.012 A 
ENDBRANCH   1   2
BRANCH   1   8
HETATM    8  N   UNL     1      40.990 -14.733   2.312  1.00  0.00     0.101 NA
HETATM    9  H   UNL     1      40.430 -14.354   3.079  1.00  0.00     0.317 HD
BRANCH   8  10
HETATM   10  C   UNL     1      40.640 -14.041   1.065  1.00  0.00     0.225 C 
HETATM   11  C   UNL     1      40.050 -14.969  -0.019  1.00  0.00     0.069 C 
HETATM   12  C   UNL     1      39.564 -14.156  -1.203  1.00  0.00     0.190 C 
HETATM   13  N   UNL     1      38.519 -13.189  -0.722  1.00  0.00    -0.067 N 
HETATM   14  C   UNL     1      38.805 -14.900  -2.283  1.00  0.00     0.035 C 
HETATM   15  H   UNL     1      37.803 -13.727  -0.210  1.00  0.00     0.280 HD
HETATM   16  C   UNL     1      39.078 -12.183   0.227  1.00  0.00     0.237 C 
HETATM   17  C   UNL     1      37.842 -12.672  -1.964  1.00  0.00     0.235 C 
HETATM   18  C   UNL     1      39.623 -12.933   1.440  1.00  0.00     0.063 C 
HETATM   19  C   UNL     1      38.045 -13.783  -2.995  1.00  0.00     0.030 C 
ENDBRANCH   8  10
ENDBRANCH   1   8
BRANCH   1  20
HETATM   20  C   UNL     1      42.716 -13.591   3.775  1.00  0.00    -0.021 A 
HETATM   21  C   UNL     1      42.311 -13.604   5.123  1.00  0.00     0.012 A 
HETATM   22  C   UNL     1      42.651 -12.558   5.987  1.00  0.00     0.043 A 
HETATM   23  C   UNL     1      43.428 -11.506   5.525  1.00  0.00     0.116 A 
HETATM   24  F   UNL     1      43.747 -10.505   6.353  1.00  0.00    -0.206 F 
HETATM   25  C   UNL     1      43.889 -11.486   4.218  1.00  0.00     0.043 A 
HETATM   26  C   UNL     1      43.546 -12.527   3.354  1.00  0.00     0.012 A 
ENDBRANCH   1  20
TORSDOF 4
ENDMDL
MODEL 5
REMARK VINA RESULT:      -7.7      2.980      6.989
REMARK  4 active torsions:
REMARK  status: ('A' for Active; 'I' for Inactive)
REMARK    1  A    between atoms: C_5  and  C_6 
REMARK    2  A    between atoms: C_6  and  N_7 
REMARK    3  A    between atoms: C_6  and  C_18 
REMARK    4  A    between atoms: N_7  and  C_8 
ROOT
HETATM    1  C   UNL     1      42.174 -14.714   4.415  1.00  0.00     0.288 C 
ENDROOT
BRANCH   1   2
HETATM    2  C   UNL     1      42.750 -16.019   4.944  1.00  0.00    -0.003 A 
HETATM    3  C   UNL     1      42.435 -16.431   6.240  1.00  0.00     0.126 A 
HETATM    4  N   UNL     1      42.910 -17.554   6.824  1.00  0.00    -0.272 NA
HETATM    5  C   UNL     1      43.732 -18.327   6.087  1.00  0.00     0.116 A 
HETATM    6  C   UNL     1      44.113 -18.018   4.795  1.00  0.00     0.020 A 
HETATM    7  C   UNL     1      43.620 -16.846   4.222  1.00  0.00     0.012 A 
ENDBRANCH   1   2
BRANCH   1   8
HETATM    8  N   UNL     1      43.101 -13.568   4.603  1.00  0.00     0.101 NA
HETATM    9  H   UNL     1      42.951 -12.949   3.803  1.00  0.00     0.317 HD
BRANCH   8  10
HETATM   10  C   UNL     1      43.043 -12.783   5.843  1.00  0.00     0.225 C 
HETATM   11  C   UNL     1      44.428 -12.367   6.384  1.00  0.00     0.069 C 
HETATM   12  C   UNL     1      44.273 -11.427   7.563  1.00  0.00     0.190 C 
HETATM   13  N   UNL     1      43.507 -10.216   7.112  1.00  0.00    -0.067 N 
HETATM   14  C   UNL     1      45.537 -10.792   8.107  1.00  0.00     0.035 C 
HETATM   15  H   UNL     1      43.982  -9.834   6.280  1.00  0.00     0.280 HD
HETATM   16  C   UNL     1      42.111 -10.552   6.708  1.00  0.00     0.237 C 
HETATM   17  C   UNL     1      43.688  -9.191   8.201  1.00  0.00     0.235 C 
HETATM   18  C   UNL     1      42.183 -11.530   5.537  1.00  0.00     0.063 C 
HETATM   19  C   UNL     1      45.008  -9.579   8.869  1.00  0.00     0.030 C 
ENDBRANCH   8  10
ENDBRANCH   1   8
BRANCH   1  20
HETATM   20  C   UNL     1      41.456 -14.723   3.060  1.00  0.00    -0.021 A 
HETATM   21  C   UNL     1      41.736 -13.804   2.031  1.00  0.00     0.012 A 
HETATM   22  C   UNL     1      41.069 -13.873   0.803  1.00  0.00     0.043 A 
HETATM   23  C   UNL     1      40.142 -14.881   0.577  1.00  0.00     0.116 A 
HETATM   24  F   UNL     1      39.503 -14.941  -0.597  1.00  0.00    -0.206 F 
HETATM   25  C   UNL     1      39.880 -15.834   1.549  1.00  0.00     0.043 A 
HETATM   26  C   UNL     1      40.542 -15.762   2.775  1.00  0.00     0.012 A 
ENDBRANCH   1  20
TORSDOF 4
ENDMDL
MODEL 6
REMARK VINA RESULT:      -7.6      4.628      7.047
REMARK  4 active torsions:
REMARK  status: ('A' for Active; 'I' for Inactive)
REMARK    1  A    between atoms: C_5  and  C_6 
REMARK    2  A    between atoms: C_6  and  N_7 
REMARK    3  A    between atoms: C_6  and  C_18 
REMARK    4  A    between atoms: N_7  and  C_8 
ROOT
HETATM    1  C   UNL     1      42.824 -12.826   6.196  1.00  0.00     0.288 C 
ENDROOT
BRANCH   1   2
HETATM    2  C   UNL     1      41.456 -12.241   5.876  1.00  0.00    -0.003 A 
HETATM    3  C   UNL     1      40.307 -12.931   6.268  1.00  0.00     0.126 A 
HETATM    4  N   UNL     1      39.044 -12.523   6.013  1.00  0.00    -0.272 NA
HETATM    5  C   UNL     1      38.898 -11.360   5.349  1.00  0.00     0.116 A 
HETATM    6  C   UNL     1      39.963 -10.593   4.912  1.00  0.00     0.020 A 
HETATM    7  C   UNL     1      41.255 -11.045   5.174  1.00  0.00     0.012 A 
ENDBRANCH   1   2
BRANCH   1   8
HETATM    8  N   UNL     1      43.350 -13.671   5.092  1.00  0.00     0.101 NA
HETATM    9  H   UNL     1      44.359 -13.505   5.066  1.00  0.00     0.317 HD
BRANCH   8  10
HETATM   10  C   UNL     1      43.095 -15.116   5.098  1.00  0.00     0.225 C 
HETATM   11  C   UNL     1      43.267 -15.788   3.719  1.00  0.00     0.069 C 
HETATM   12  C   UNL     1      43.150 -17.294   3.846  1.00  0.00     0.190 C 
HETATM   13  N   UNL     1      44.209 -17.778   4.794  1.00  0.00    -0.067 N 
HETATM   14  C   UNL     1      43.461 -18.114   2.610  1.00  0.00     0.035 C 
HETATM   15  H   UNL     1      45.118 -17.414   4.465  1.00  0.00     0.280 HD
HETATM   16  C   UNL     1      44.003 -17.262   6.179  1.00  0.00     0.237 C 
HETATM   17  C   UNL     1      44.268 -19.272   4.610  1.00  0.00     0.235 C 
HETATM   18  C   UNL     1      44.074 -15.737   6.128  1.00  0.00     0.063 C 
HETATM   19  C   UNL     1      43.759 -19.497   3.186  1.00  0.00     0.030 C 
ENDBRANCH   8  10
ENDBRANCH   1   8
BRANCH   1  20
HETATM   20  C   UNL     1      43.876 -11.923   6.850  1.00  0.00    -0.021 A 
HETATM   21  C   UNL     1      45.193 -11.797   6.369  1.00  0.00     0.012 A 
HETATM   22  C   UNL     1      46.106 -10.937   6.989  1.00  0.00     0.043 A 
HETATM   23  C   UNL     1      45.704 -10.169   8.072  1.00  0.00     0.116 A 
HETATM   24  F   UNL     1      46.582  -9.351   8.666  1.00  0.00    -0.206 F 
HETATM   25  C   UNL     1      44.401 -10.229   8.539  1.00  0.00     0.043 A 
HETATM   26  C   UNL     1      43.491 -11.089   7.924  1.00  0.00     0.012 A 
ENDBRANCH   1  20
TORSDOF 4
ENDMDL
MODEL 7
REMARK VINA RESULT:      -7.6      2.647      6.055
REMARK  4 active torsions:
REMARK  status: ('A' for Active; 'I' for Inactive)
REMARK    1  A    between atoms: C_5  and  C_6 
REMARK    2  A    between atoms: C_6  and  N_7 
REMARK    3  A    between atoms: C_6  and  C_18 
REMARK    4  A    between atoms: N_7  and  C_8 
ROOT
HETATM    1  C   UNL     1      41.007 -13.699   1.934  1.00  0.00     0.288 C 
ENDROOT
BRANCH   1   2
HETATM    2  C   UNL     1      41.434 -12.473   2.729  1.00  0.00    -0.003 A 
HETATM    3  C   UNL     1      42.793 -12.188   2.870  1.00  0.00     0.126 A 
HETATM    4  N   UNL     1      43.287 -11.146   3.576  1.00  0.00    -0.272 NA
HETATM    5  C   UNL     1      42.395 -10.326   4.165  1.00  0.00     0.116 A 
HETATM    6  C   UNL     1      41.027 -10.512   4.094  1.00  0.00     0.020 A 
HETATM    7  C   UNL     1      40.544 -11.603   3.372  1.00  0.00     0.012 A 
ENDBRANCH   1   2
BRANCH   1   8
HETATM    8  N   UNL     1      40.131 -14.606   2.721  1.00  0.00     0.101 NA
HETATM    9  H   UNL     1      39.363 -14.867   2.097  1.00  0.00     0.317 HD
BRANCH   8  10
HETATM   10  C   UNL     1      40.697 -15.817   3.327  1.00  0.00     0.225 C 
HETATM   11  C   UNL     1      41.890 -16.409   2.545  1.00  0.00     0.069 C 
HETATM   12  C   UNL     1      42.517 -17.550   3.322  1.00  0.00     0.190 C 
HETATM   13  N   UNL     1      42.977 -17.027   4.653  1.00  0.00    -0.067 N 
HETATM   14  C   UNL     1      43.804 -18.131   2.771  1.00  0.00     0.035 C 
HETATM   15  H   UNL     1      43.578 -16.206   4.479  1.00  0.00     0.280 HD
HETATM   16  C   UNL     1      41.839 -16.570   5.502  1.00  0.00     0.237 C 
HETATM   17  C   UNL     1      43.882 -18.091   5.217  1.00  0.00     0.235 C 
HETATM   18  C   UNL     1      41.130 -15.434   4.766  1.00  0.00     0.063 C 
HETATM   19  C   UNL     1      44.409 -18.830   3.986  1.00  0.00     0.030 C 
ENDBRANCH   8  10
ENDBRANCH   1   8
BRANCH   1  20
HETATM   20  C   UNL     1      40.571 -13.516   0.476  1.00  0.00    -0.021 A 
HETATM   21  C   UNL     1      40.910 -12.389  -0.297  1.00  0.00     0.012 A 
HETATM   22  C   UNL     1      40.508 -12.285  -1.633  1.00  0.00     0.043 A 
HETATM   23  C   UNL     1      39.793 -13.318  -2.220  1.00  0.00     0.116 A 
HETATM   24  F   UNL     1      39.405 -13.213  -3.497  1.00  0.00    -0.206 F 
HETATM   25  C   UNL     1      39.486 -14.465  -1.505  1.00  0.00     0.043 A 
HETATM   26  C   UNL     1      39.884 -14.568  -0.171  1.00  0.00     0.012 A 
ENDBRANCH   1  20
TORSDOF 4
ENDMDL
MODEL 8
REMARK VINA RESULT:      -7.5      1.461      2.102
REMARK  4 active torsions:
REMARK  status: ('A' for Active; 'I' for Inactive)
REMARK    1  A    between atoms: C_5  and  C_6 
REMARK    2  A    between atoms: C_6  and  N_7 
REMARK    3  A    between atoms: C_6  and  C_18 
REMARK    4  A    between atoms: N_7  and  C_8 
ROOT
HETATM    1  C   UNL     1      41.968 -14.500   2.605  1.00  0.00     0.288 C 
ENDROOT
BRANCH   1   2
HETATM    2  C   UNL     1      42.282 -13.226   3.375  1.00  0.00    -0.003 A 
HETATM    3  C   UNL     1      43.448 -12.517   3.081  1.00  0.00     0.126 A 
HETATM    4  N   UNL     1      43.842 -11.392   3.718  1.00  0.00    -0.272 NA
HETATM    5  C   UNL     1      43.036 -10.924   4.691  1.00  0.00     0.116 A 
HETATM    6  C   UNL     1      41.858 -11.543   5.068  1.00  0.00     0.020 A 
HETATM    7  C   UNL     1      41.483 -12.711   4.404  1.00  0.00     0.012 A 
ENDBRANCH   1   2
BRANCH   1   8
HETATM    8  N   UNL     1      41.909 -14.275   1.137  1.00  0.00     0.101 NA
HETATM    9  H   UNL     1      41.999 -15.198   0.706  1.00  0.00     0.317 HD
BRANCH   8  10
HETATM   10  C   UNL     1      40.756 -13.577   0.556  1.00  0.00     0.225 C 
HETATM   11  C   UNL     1      41.095 -12.188  -0.026  1.00  0.00     0.069 C 
HETATM   12  C   UNL     1      39.895 -11.610  -0.750  1.00  0.00     0.190 C 
HETATM   13  N   UNL     1      39.502 -12.553  -1.852  1.00  0.00    -0.067 N 
HETATM   14  C   UNL     1      40.110 -10.325  -1.523  1.00  0.00     0.035 C 
HETATM   15  H   UNL     1      40.340 -12.734  -2.426  1.00  0.00     0.280 HD
HETATM   16  C   UNL     1      39.034 -13.869  -1.327  1.00  0.00     0.237 C 
HETATM   17  C   UNL     1      38.556 -11.779  -2.732  1.00  0.00     0.235 C 
HETATM   18  C   UNL     1      40.186 -14.502  -0.550  1.00  0.00     0.063 C 
HETATM   19  C   UNL     1      38.938 -10.316  -2.502  1.00  0.00     0.030 C 
ENDBRANCH   8  10
ENDBRANCH   1   8
BRANCH   1  20
HETATM   20  C   UNL     1      42.675 -15.799   3.012  1.00  0.00    -0.021 A 
HETATM   21  C   UNL     1      43.224 -16.013   4.290  1.00  0.00     0.012 A 
HETATM   22  C   UNL     1      43.836 -17.228   4.616  1.00  0.00     0.043 A 
HETATM   23  C   UNL     1      43.875 -18.253   3.683  1.00  0.00     0.116 A 
HETATM   24  F   UNL     1      44.466 -19.412   3.996  1.00  0.00    -0.206 F 
HETATM   25  C   UNL     1      43.299 -18.095   2.432  1.00  0.00     0.043 A 
HETATM   26  C   UNL     1      42.692 -16.882   2.104  1.00  0.00     0.012 A 
ENDBRANCH   1  20
TORSDOF 4
ENDMDL
MODEL 9
REMARK VINA RESULT:      -7.5     15.012     17.099
REMARK  4 active torsions:
REMARK  status: ('A' for Active; 'I' for Inactive)
REMARK    1  A    between atoms: C_5  and  C_6 
REMARK    2  A    between atoms: C_6  and  N_7 
REMARK    3  A    between atoms: C_6  and  C_18 
REMARK    4  A    between atoms: N_7  and  C_8 
ROOT
HETATM    1  C   UNL     1      45.015 -29.418  -0.456  1.00  0.00     0.288 C 
ENDROOT
BRANCH   1   2
HETATM    2  C   UNL     1      44.861 -29.349  -1.969  1.00  0.00    -0.003 A 
HETATM    3  C   UNL     1      44.381 -30.462  -2.660  1.00  0.00     0.126 A 
HETATM    4  N   UNL     1      44.232 -30.525  -4.001  1.00  0.00    -0.272 NA
HETATM    5  C   UNL     1      44.558 -29.424  -4.707  1.00  0.00     0.116 A 
HETATM    6  C   UNL     1      45.045 -28.266  -4.130  1.00  0.00     0.020 A 
HETATM    7  C   UNL     1      45.203 -28.233  -2.745  1.00  0.00     0.012 A 
ENDBRANCH   1   2
BRANCH   1   8
HETATM    8  N   UNL     1      45.669 -28.205   0.102  1.00  0.00     0.101 NA
HETATM    9  H   UNL     1      45.008 -27.814   0.778  1.00  0.00     0.317 HD
BRANCH   8  10
HETATM   10  C   UNL     1      46.994 -28.316   0.724  1.00  0.00     0.225 C 
HETATM   11  C   UNL     1      46.951 -28.684   2.223  1.00  0.00     0.069 C 
HETATM   12  C   UNL     1      48.352 -28.941   2.744  1.00  0.00     0.190 C 
HETATM   13  N   UNL     1      48.958 -30.064   1.950  1.00  0.00    -0.067 N 
HETATM   14  C   UNL     1      48.473 -29.478   4.155  1.00  0.00     0.035 C 
HETATM   15  H   UNL     1      48.305 -30.861   1.980  1.00  0.00     0.280 HD
HETATM   16  C   UNL     1      49.147 -29.701   0.515  1.00  0.00     0.237 C 
HETATM   17  C   UNL     1      50.177 -30.496   2.723  1.00  0.00     0.235 C 
HETATM   18  C   UNL     1      47.773 -29.392  -0.075  1.00  0.00     0.063 C 
HETATM   19  C   UNL     1      49.870 -30.094   4.167  1.00  0.00     0.030 C 
ENDBRANCH   8  10
ENDBRANCH   1   8
BRANCH   1  20
HETATM   20  C   UNL     1      43.839 -29.936   0.380  1.00  0.00    -0.021 A 
HETATM   21  C   UNL     1      43.651 -31.296   0.691  1.00  0.00     0.012 A 
HETATM   22  C   UNL     1      42.574 -31.712   1.481  1.00  0.00     0.043 A 
HETATM   23  C   UNL     1      41.694 -30.772   1.997  1.00  0.00     0.116 A 
HETATM   24  F   UNL     1      40.662 -31.174   2.748  1.00  0.00    -0.206 F 
HETATM   25  C   UNL     1      41.877 -29.420   1.754  1.00  0.00     0.043 A 
HETATM   26  C   UNL     1      42.949 -29.005   0.963  1.00  0.00     0.012 A 
ENDBRANCH   1  20
TORSDOF 4
ENDMDL
MODEL 10
REMARK VINA RESULT:      -7.5     15.073     17.201
REMARK  4 active torsions:
REMARK  status: ('A' for Active; 'I' for Inactive)
REMARK    1  A    between atoms: C_5  and  C_6 
REMARK    2  A    between atoms: C_6  and  N_7 
REMARK    3  A    between atoms: C_6  and  C_18 
REMARK    4  A    between atoms: N_7  and  C_8 
ROOT
HETATM    1  C   UNL     1      44.346 -28.636  -0.582  1.00  0.00     0.288 C 
ENDROOT
BRANCH   1   2
HETATM    2  C   UNL     1      43.541 -29.529   0.352  1.00  0.00    -0.003 A 
HETATM    3  C   UNL     1      42.433 -29.002   1.017  1.00  0.00     0.126 A 
HETATM    4  N   UNL     1      41.664 -29.691   1.889  1.00  0.00    -0.272 NA
HETATM    5  C   UNL     1      41.991 -30.979   2.110  1.00  0.00     0.116 A 
HETATM    6  C   UNL     1      43.068 -31.605   1.509  1.00  0.00     0.020 A 
HETATM    7  C   UNL     1      43.854 -30.867   0.625  1.00  0.00     0.012 A 
ENDBRANCH   1   2
BRANCH   1   8
HETATM    8  N   UNL     1      45.624 -28.184   0.029  1.00  0.00     0.101 NA
HETATM    9  H   UNL     1      45.364 -27.639   0.854  1.00  0.00     0.317 HD
BRANCH   8  10
HETATM   10  C   UNL     1      46.641 -29.175   0.400  1.00  0.00     0.225 C 
HETATM   11  C   UNL     1      47.765 -29.338  -0.646  1.00  0.00     0.069 C 
HETATM   12  C   UNL     1      48.854 -30.249  -0.114  1.00  0.00     0.190 C 
HETATM   13  N   UNL     1      49.403 -29.650   1.150  1.00  0.00    -0.067 N 
HETATM   14  C   UNL     1      50.111 -30.380  -0.950  1.00  0.00     0.035 C 
HETATM   15  H   UNL     1      49.679 -28.677   0.945  1.00  0.00     0.280 HD
HETATM   16  C   UNL     1      48.384 -29.600   2.238  1.00  0.00     0.237 C 
HETATM   17  C   UNL     1      50.683 -30.395   1.430  1.00  0.00     0.235 C 
HETATM   18  C   UNL     1      47.230 -28.721   1.761  1.00  0.00     0.063 C 
HETATM   19  C   UNL     1      51.138 -30.892   0.057  1.00  0.00     0.030 C 
ENDBRANCH   8  10
ENDBRANCH   1   8
BRANCH   1  20
HETATM   20  C   UNL     1      44.463 -29.031  -2.059  1.00  0.00    -0.021 A 
HETATM   21  C   UNL     1      44.999 -28.184  -3.046  1.00  0.00     0.012 A 
HETATM   22  C   UNL     1      45.107 -28.605  -4.376  1.00  0.00     0.043 A 
HETATM   23  C   UNL     1      44.714 -29.888  -4.727  1.00  0.00     0.116 A 
HETATM   24  F   UNL     1      44.813 -30.286  -6.000  1.00  0.00    -0.206 F 
HETATM   25  C   UNL     1      44.229 -30.768  -3.771  1.00  0.00     0.043 A 
HETATM   26  C   UNL     1      44.117 -30.346  -2.445  1.00  0.00     0.012 A 
ENDBRANCH   1  20
TORSDOF 4
ENDMDL
