MODEL 1
REMARK VINA RESULT:      -7.1      0.000      0.000
REMARK  6 active torsions:
REMARK  status: ('A' for Active; 'I' for Inactive)
REMARK    1  A    between atoms: C_2  and  O_3 
REMARK    2  A    between atoms: O_3  and  C_4 
REMARK    3  A    between atoms: C_4  and  C_5 
REMARK    4  A    between atoms: C_10  and  C_11 
REMARK    5  A    between atoms: C_11  and  N_12 
REMARK    6  A    between atoms: C_11  and  C_16 
ROOT
HETATM    1  C   UNL     1      43.268 -15.914   5.778  1.00  0.00     0.118 A 
HETATM    2  N   UNL     1      44.143 -16.960   5.614  1.00  0.00    -0.350 N 
HETATM    3  H   UNL     1      44.898 -17.176   6.254  1.00  0.00     0.166 HD
HETATM    4  C   UNL     1      43.874 -17.647   4.460  1.00  0.00     0.043 A 
HETATM    5  C   UNL     1      42.758 -17.055   3.867  1.00  0.00     0.002 A 
HETATM    6  C   UNL     1      42.357 -15.954   4.715  1.00  0.00     0.022 A 
HETATM    7  C   UNL     1      44.542 -18.750   3.915  1.00  0.00     0.030 A 
HETATM    8  C   UNL     1      44.059 -19.277   2.718  1.00  0.00     0.002 A 
HETATM    9  C   UNL     1      42.947 -18.724   2.097  1.00  0.00     0.001 A 
HETATM   10  C   UNL     1      42.289 -17.620   2.658  1.00  0.00     0.014 A 
ENDROOT
BRANCH   6  11
HETATM   11  C   UNL     1      41.223 -14.980   4.528  1.00  0.00     0.252 C 
BRANCH  11  12
HETATM   12  N   UNL     1      40.302 -14.869   5.676  1.00  0.00    -0.067 N 
HETATM   13  H   UNL     1      40.294 -15.738   6.213  1.00  0.00     0.275 HD
HETATM   14  H   UNL     1      40.623 -14.123   6.302  1.00  0.00     0.275 HD
HETATM   15  H   UNL     1      39.354 -14.653   5.354  1.00  0.00     0.275 HD
ENDBRANCH  11  12
BRANCH  11  16
HETATM   16  C   UNL     1      41.814 -13.631   4.172  1.00  0.00    -0.024 A 
HETATM   17  C   UNL     1      41.239 -12.466   4.714  1.00  0.00     0.009 A 
HETATM   18  C   UNL     1      41.788 -11.209   4.459  1.00  0.00     0.001 A 
HETATM   19  C   UNL     1      42.922 -11.091   3.661  1.00  0.00     0.000 A 
HETATM   20  C   UNL     1      43.506 -12.228   3.114  1.00  0.00     0.001 A 
HETATM   21  C   UNL     1      42.961 -13.490   3.368  1.00  0.00     0.009 A 
ENDBRANCH  11  16
ENDBRANCH   6  11
BRANCH   1  22
HETATM   22  C   UNL     1      43.343 -14.980   6.881  1.00  0.00     0.310 C 
HETATM   23  O   UNL     1      42.671 -15.065   7.899  1.00  0.00    -0.258 OA
BRANCH  22  24
HETATM   24  O   UNL     1      44.233 -13.996   6.589  1.00  0.00    -0.317 OA
BRANCH  24  25
HETATM   25  C   UNL     1      43.929 -12.695   7.117  1.00  0.00     0.175 C 
HETATM   26  C   UNL     1      45.012 -11.708   6.723  1.00  0.00     0.034 C 
ENDBRANCH  24  25
ENDBRANCH  22  24
ENDBRANCH   1  22
TORSDOF 6
ENDMDL
MODEL 2
REMARK VINA RESULT:      -7.0      4.305      6.136
REMARK  6 active torsions:
REMARK  status: ('A' for Active; 'I' for Inactive)
REMARK    1  A    between atoms: C_2  and  O_3 
REMARK    2  A    between atoms: O_3  and  C_4 
REMARK    3  A    between atoms: C_4  and  C_5 
REMARK    4  A    between atoms: C_10  and  C_11 
REMARK    5  A    between atoms: C_11  and  N_12 
REMARK    6  A    between atoms: C_11  and  C_16 
ROOT
HETATM    1  C   UNL     1      41.087 -11.599   0.953  1.00  0.00     0.118 A 
HETATM    2  N   UNL     1      41.061 -11.215  -0.365  1.00  0.00    -0.350 N 
HETATM    3  H   UNL     1      41.393 -10.319  -0.703  1.00  0.00     0.166 HD
HETATM    4  C   UNL     1      40.506 -12.190  -1.149  1.00  0.00     0.043 A 
HETATM    5  C   UNL     1      40.191 -13.269  -0.321  1.00  0.00     0.002 A 
HETATM    6  C   UNL     1      40.575 -12.901   1.024  1.00  0.00     0.022 A 
HETATM    7  C   UNL     1      40.270 -12.185  -2.529  1.00  0.00     0.030 A 
HETATM    8  C   UNL     1      39.692 -13.319  -3.096  1.00  0.00     0.002 A 
HETATM    9  C   UNL     1      39.369 -14.418  -2.310  1.00  0.00     0.001 A 
HETATM   10  C   UNL     1      39.614 -14.408  -0.930  1.00  0.00     0.014 A 
ENDROOT
BRANCH   6  11
HETATM   11  C   UNL     1      40.440 -13.695   2.297  1.00  0.00     0.252 C 
BRANCH  11  12
HETATM   12  N   UNL     1      39.079 -14.188   2.583  1.00  0.00    -0.067 N 
HETATM   13  H   UNL     1      38.917 -15.082   2.115  1.00  0.00     0.275 HD
HETATM   14  H   UNL     1      38.975 -14.345   3.590  1.00  0.00     0.275 HD
HETATM   15  H   UNL     1      38.380 -13.506   2.274  1.00  0.00     0.275 HD
ENDBRANCH  11  12
BRANCH  11  16
HETATM   16  C   UNL     1      41.434 -14.837   2.247  1.00  0.00    -0.024 A 
HETATM   17  C   UNL     1      41.034 -16.113   2.688  1.00  0.00     0.009 A 
HETATM   18  C   UNL     1      41.899 -17.206   2.604  1.00  0.00     0.001 A 
HETATM   19  C   UNL     1      43.176 -17.046   2.077  1.00  0.00     0.000 A 
HETATM   20  C   UNL     1      43.593 -15.794   1.637  1.00  0.00     0.001 A 
HETATM   21  C   UNL     1      42.730 -14.698   1.716  1.00  0.00     0.009 A 
ENDBRANCH  11  16
ENDBRANCH   6  11
BRANCH   1  22
HETATM   22  C   UNL     1      41.570 -10.749   2.020  1.00  0.00     0.310 C 
HETATM   23  O   UNL     1      40.966  -9.775   2.448  1.00  0.00    -0.258 OA
BRANCH  22  24
HETATM   24  O   UNL     1      42.791 -11.177   2.431  1.00  0.00    -0.317 OA
BRANCH  24  25
HETATM   25  C   UNL     1      43.062 -11.052   3.837  1.00  0.00     0.175 C 
HETATM   26  C   UNL     1      43.199 -12.427   4.464  1.00  0.00     0.034 C 
ENDBRANCH  24  25
ENDBRANCH  22  24
ENDBRANCH   1  22
TORSDOF 6
ENDMDL
MODEL 3
REMARK VINA RESULT:      -7.0      2.087      4.796
REMARK  6 active torsions:
REMARK  status: ('A' for Active; 'I' for Inactive)
REMARK    1  A    between atoms: C_2  and  O_3 
REMARK    2  A    between atoms: O_3  and  C_4 
REMARK    3  A    between atoms: C_4  and  C_5 
REMARK    4  A    between atoms: C_10  and  C_11 
REMARK    5  A    between atoms: C_11  and  N_12 
REMARK    6  A    between atoms: C_11  and  C_16 
ROOT
HETATM    1  C   UNL     1      43.429 -16.363   6.003  1.00  0.00     0.118 A 
HETATM    2  N   UNL     1      44.223 -15.393   6.563  1.00  0.00    -0.350 N 
HETATM    3  H   UNL     1      45.116 -15.574   7.005  1.00  0.00     0.166 HD
HETATM    4  C   UNL     1      43.632 -14.161   6.468  1.00  0.00     0.043 A 
HETATM    5  C   UNL     1      42.426 -14.324   5.786  1.00  0.00     0.002 A 
HETATM    6  C   UNL     1      42.297 -15.730   5.472  1.00  0.00     0.022 A 
HETATM    7  C   UNL     1      44.092 -12.924   6.935  1.00  0.00     0.030 A 
HETATM    8  C   UNL     1      43.297 -11.803   6.701  1.00  0.00     0.002 A 
HETATM    9  C   UNL     1      42.092 -11.918   6.020  1.00  0.00     0.001 A 
HETATM   10  C   UNL     1      41.648 -13.164   5.557  1.00  0.00     0.014 A 
ENDROOT
BRANCH   6  11
HETATM   11  C   UNL     1      41.178 -16.443   4.759  1.00  0.00     0.252 C 
BRANCH  11  12
HETATM   12  N   UNL     1      39.847 -16.288   5.378  1.00  0.00    -0.067 N 
HETATM   13  H   UNL     1      39.258 -15.677   4.810  1.00  0.00     0.275 HD
HETATM   14  H   UNL     1      39.385 -17.202   5.428  1.00  0.00     0.275 HD
HETATM   15  H   UNL     1      39.935 -15.903   6.322  1.00  0.00     0.275 HD
ENDBRANCH  11  12
BRANCH  11  16
HETATM   16  C   UNL     1      41.167 -15.977   3.318  1.00  0.00    -0.024 A 
HETATM   17  C   UNL     1      39.938 -15.645   2.715  1.00  0.00     0.009 A 
HETATM   18  C   UNL     1      39.888 -15.156   1.409  1.00  0.00     0.001 A 
HETATM   19  C   UNL     1      41.062 -14.985   0.681  1.00  0.00     0.000 A 
HETATM   20  C   UNL     1      42.287 -15.308   1.257  1.00  0.00     0.001 A 
HETATM   21  C   UNL     1      42.342 -15.796   2.565  1.00  0.00     0.009 A 
ENDBRANCH  11  16
ENDBRANCH   6  11
BRANCH   1  22
HETATM   22  C   UNL     1      43.771 -17.770   6.004  1.00  0.00     0.310 C 
HETATM   23  O   UNL     1      43.415 -18.561   6.866  1.00  0.00    -0.258 OA
BRANCH  22  24
HETATM   24  O   UNL     1      44.565 -18.051   4.939  1.00  0.00    -0.317 OA
BRANCH  24  25
HETATM   25  C   UNL     1      44.313 -19.301   4.278  1.00  0.00     0.175 C 
HETATM   26  C   UNL     1      43.711 -19.052   2.907  1.00  0.00     0.034 C 
ENDBRANCH  24  25
ENDBRANCH  22  24
ENDBRANCH   1  22
TORSDOF 6
ENDMDL
MODEL 4
REMARK VINA RESULT:      -6.9      2.946      4.290
REMARK  6 active torsions:
REMARK  status: ('A' for Active; 'I' for Inactive)
REMARK    1  A    between atoms: C_2  and  O_3 
REMARK    2  A    between atoms: O_3  and  C_4 
REMARK    3  A    between atoms: C_4  and  C_5 
REMARK    4  A    between atoms: C_10  and  C_11 
REMARK    5  A    between atoms: C_11  and  N_12 
REMARK    6  A    between atoms: C_11  and  C_16 
ROOT
HETATM    1  C   UNL     1      41.086 -15.551   2.718  1.00  0.00     0.118 A 
HETATM    2  N   UNL     1      41.710 -16.593   2.077  1.00  0.00    -0.350 N 
HETATM    3  H   UNL     1      41.515 -16.872   1.123  1.00  0.00     0.166 HD
HETATM    4  C   UNL     1      42.603 -17.215   2.907  1.00  0.00     0.043 A 
HETATM    5  C   UNL     1      42.594 -16.533   4.124  1.00  0.00     0.002 A 
HETATM    6  C   UNL     1      41.635 -15.456   4.004  1.00  0.00     0.022 A 
HETATM    7  C   UNL     1      43.415 -18.327   2.654  1.00  0.00     0.030 A 
HETATM    8  C   UNL     1      44.255 -18.767   3.677  1.00  0.00     0.002 A 
HETATM    9  C   UNL     1      44.283 -18.113   4.901  1.00  0.00     0.001 A 
HETATM   10  C   UNL     1      43.464 -17.000   5.137  1.00  0.00     0.014 A 
ENDROOT
BRANCH   6  11
HETATM   11  C   UNL     1      41.229 -14.431   5.030  1.00  0.00     0.252 C 
BRANCH  11  12
HETATM   12  N   UNL     1      40.716 -14.987   6.297  1.00  0.00    -0.067 N 
HETATM   13  H   UNL     1      41.242 -15.822   6.560  1.00  0.00     0.275 HD
HETATM   14  H   UNL     1      40.836 -14.298   7.047  1.00  0.00     0.275 HD
HETATM   15  H   UNL     1      39.722 -15.219   6.208  1.00  0.00     0.275 HD
ENDBRANCH  11  12
BRANCH  11  16
HETATM   16  C   UNL     1      42.412 -13.517   5.275  1.00  0.00    -0.024 A 
HETATM   17  C   UNL     1      42.756 -12.565   4.297  1.00  0.00     0.009 A 
HETATM   18  C   UNL     1      43.802 -11.664   4.507  1.00  0.00     0.001 A 
HETATM   19  C   UNL     1      44.520 -11.695   5.698  1.00  0.00     0.000 A 
HETATM   20  C   UNL     1      44.198 -12.628   6.678  1.00  0.00     0.001 A 
HETATM   21  C   UNL     1      43.151 -13.530   6.473  1.00  0.00     0.009 A 
ENDBRANCH  11  16
ENDBRANCH   6  11
BRANCH   1  22
HETATM   22  C   UNL     1      40.053 -14.744   2.105  1.00  0.00     0.310 C 
HETATM   23  O   UNL     1      39.457 -13.843   2.678  1.00  0.00    -0.258 OA
BRANCH  22  24
HETATM   24  O   UNL     1      39.833 -15.168   0.834  1.00  0.00    -0.317 OA
BRANCH  24  25
HETATM   25  C   UNL     1      40.108 -14.214  -0.204  1.00  0.00     0.175 C 
HETATM   26  C   UNL     1      39.278 -14.530  -1.435  1.00  0.00     0.034 C 
ENDBRANCH  24  25
ENDBRANCH  22  24
ENDBRANCH   1  22
TORSDOF 6
ENDMDL
MODEL 5
REMARK VINA RESULT:      -6.9      2.671      5.927
REMARK  6 active torsions:
REMARK  status: ('A' for Active; 'I' for Inactive)
REMARK    1  A    between atoms: C_2  and  O_3 
REMARK    2  A    between atoms: O_3  and  C_4 
REMARK    3  A    between atoms: C_4  and  C_5 
REMARK    4  A    between atoms: C_10  and  C_11 
REMARK    5  A    between atoms: C_11  and  N_12 
REMARK    6  A    between atoms: C_11  and  C_16 
ROOT
HETATM    1  C   UNL     1      41.428 -13.659   3.460  1.00  0.00     0.118 A 
HETATM    2  N   UNL     1      42.047 -12.434   3.506  1.00  0.00    -0.350 N 
HETATM    3  H   UNL     1      41.884 -11.690   2.838  1.00  0.00     0.166 HD
HETATM    4  C   UNL     1      42.927 -12.368   4.553  1.00  0.00     0.043 A 
HETATM    5  C   UNL     1      42.854 -13.579   5.242  1.00  0.00     0.002 A 
HETATM    6  C   UNL     1      41.884 -14.405   4.555  1.00  0.00     0.022 A 
HETATM    7  C   UNL     1      43.770 -11.317   4.931  1.00  0.00     0.030 A 
HETATM    8  C   UNL     1      44.574 -11.499   6.055  1.00  0.00     0.002 A 
HETATM    9  C   UNL     1      44.528 -12.686   6.774  1.00  0.00     0.001 A 
HETATM   10  C   UNL     1      43.676 -13.728   6.383  1.00  0.00     0.014 A 
ENDROOT
BRANCH   6  11
HETATM   11  C   UNL     1      41.439 -15.808   4.874  1.00  0.00     0.252 C 
BRANCH  11  12
HETATM   12  N   UNL     1      40.036 -16.110   4.530  1.00  0.00    -0.067 N 
HETATM   13  H   UNL     1      39.992 -16.844   3.821  1.00  0.00     0.275 HD
HETATM   14  H   UNL     1      39.546 -16.456   5.362  1.00  0.00     0.275 HD
HETATM   15  H   UNL     1      39.564 -15.269   4.186  1.00  0.00     0.275 HD
ENDBRANCH  11  12
BRANCH  11  16
HETATM   16  C   UNL     1      42.388 -16.770   4.189  1.00  0.00    -0.024 A 
HETATM   17  C   UNL     1      43.464 -17.308   4.920  1.00  0.00     0.009 A 
HETATM   18  C   UNL     1      44.327 -18.242   4.346  1.00  0.00     0.001 A 
HETATM   19  C   UNL     1      44.130 -18.660   3.033  1.00  0.00     0.000 A 
HETATM   20  C   UNL     1      43.074 -18.140   2.292  1.00  0.00     0.001 A 
HETATM   21  C   UNL     1      42.206 -17.206   2.863  1.00  0.00     0.009 A 
ENDBRANCH  11  16
ENDBRANCH   6  11
BRANCH   1  22
HETATM   22  C   UNL     1      40.486 -14.037   2.428  1.00  0.00     0.310 C 
HETATM   23  O   UNL     1      39.281 -14.143   2.606  1.00  0.00    -0.258 OA
BRANCH  22  24
HETATM   24  O   UNL     1      41.149 -14.284   1.269  1.00  0.00    -0.317 OA
BRANCH  24  25
HETATM   25  C   UNL     1      40.771 -13.477   0.142  1.00  0.00     0.175 C 
HETATM   26  C   UNL     1      39.892 -14.279  -0.800  1.00  0.00     0.034 C 
ENDBRANCH  24  25
ENDBRANCH  22  24
ENDBRANCH   1  22
TORSDOF 6
ENDMDL
MODEL 6
REMARK VINA RESULT:      -6.7      1.810      2.442
REMARK  6 active torsions:
REMARK  status: ('A' for Active; 'I' for Inactive)
REMARK    1  A    between atoms: C_2  and  O_3 
REMARK    2  A    between atoms: O_3  and  C_4 
REMARK    3  A    between atoms: C_4  and  C_5 
REMARK    4  A    between atoms: C_10  and  C_11 
REMARK    5  A    between atoms: C_11  and  N_12 
REMARK    6  A    between atoms: C_11  and  C_16 
ROOT
HETATM    1  C   UNL     1      43.543 -15.693   5.847  1.00  0.00     0.118 A 
HETATM    2  N   UNL     1      44.006 -16.978   5.994  1.00  0.00    -0.350 N 
HETATM    3  H   UNL     1      44.388 -17.350   6.855  1.00  0.00     0.166 HD
HETATM    4  C   UNL     1      43.908 -17.671   4.817  1.00  0.00     0.043 A 
HETATM    5  C   UNL     1      43.323 -16.824   3.876  1.00  0.00     0.002 A 
HETATM    6  C   UNL     1      43.073 -15.560   4.534  1.00  0.00     0.022 A 
HETATM    7  C   UNL     1      44.292 -18.988   4.535  1.00  0.00     0.030 A 
HETATM    8  C   UNL     1      44.075 -19.467   3.244  1.00  0.00     0.002 A 
HETATM    9  C   UNL     1      43.489 -18.660   2.278  1.00  0.00     0.001 A 
HETATM   10  C   UNL     1      43.108 -17.345   2.578  1.00  0.00     0.014 A 
ENDROOT
BRANCH   6  11
HETATM   11  C   UNL     1      42.471 -14.300   3.968  1.00  0.00     0.252 C 
BRANCH  11  12
HETATM   12  N   UNL     1      43.447 -13.259   3.592  1.00  0.00    -0.067 N 
HETATM   13  H   UNL     1      44.364 -13.467   3.992  1.00  0.00     0.275 HD
HETATM   14  H   UNL     1      43.553 -13.240   2.572  1.00  0.00     0.275 HD
HETATM   15  H   UNL     1      43.130 -12.340   3.914  1.00  0.00     0.275 HD
ENDBRANCH  11  12
BRANCH  11  16
HETATM   16  C   UNL     1      41.601 -14.683   2.789  1.00  0.00    -0.024 A 
HETATM   17  C   UNL     1      40.427 -15.426   3.017  1.00  0.00     0.009 A 
HETATM   18  C   UNL     1      39.566 -15.749   1.967  1.00  0.00     0.001 A 
HETATM   19  C   UNL     1      39.859 -15.335   0.672  1.00  0.00     0.000 A 
HETATM   20  C   UNL     1      41.015 -14.602   0.423  1.00  0.00     0.001 A 
HETATM   21  C   UNL     1      41.878 -14.274   1.471  1.00  0.00     0.009 A 
ENDBRANCH  11  16
ENDBRANCH   6  11
BRANCH   1  22
HETATM   22  C   UNL     1      43.573 -14.711   6.910  1.00  0.00     0.310 C 
HETATM   23  O   UNL     1      42.976 -14.830   7.971  1.00  0.00    -0.258 OA
BRANCH  22  24
HETATM   24  O   UNL     1      44.322 -13.644   6.528  1.00  0.00    -0.317 OA
BRANCH  24  25
HETATM   25  C   UNL     1      44.019 -12.398   7.175  1.00  0.00     0.175 C 
HETATM   26  C   UNL     1      45.178 -11.432   7.010  1.00  0.00     0.034 C 
ENDBRANCH  24  25
ENDBRANCH  22  24
ENDBRANCH   1  22
TORSDOF 6
ENDMDL
MODEL 7
REMARK VINA RESULT:      -6.4     14.622     15.908
REMARK  6 active torsions:
REMARK  status: ('A' for Active; 'I' for Inactive)
REMARK    1  A    between atoms: C_2  and  O_3 
REMARK    2  A    between atoms: O_3  and  C_4 
REMARK    3  A    between atoms: C_4  and  C_5 
REMARK    4  A    between atoms: C_10  and  C_11 
REMARK    5  A    between atoms: C_11  and  N_12 
REMARK    6  A    between atoms: C_11  and  C_16 
ROOT
HETATM    1  C   UNL     1      45.490 -29.267   2.083  1.00  0.00     0.118 A 
HETATM    2  N   UNL     1      44.449 -29.091   2.962  1.00  0.00    -0.350 N 
HETATM    3  H   UNL     1      44.486 -28.484   3.772  1.00  0.00     0.166 HD
HETATM    4  C   UNL     1      43.374 -29.862   2.609  1.00  0.00     0.043 A 
HETATM    5  C   UNL     1      43.708 -30.539   1.436  1.00  0.00     0.002 A 
HETATM    6  C   UNL     1      45.056 -30.150   1.086  1.00  0.00     0.022 A 
HETATM    7  C   UNL     1      42.137 -29.995   3.250  1.00  0.00     0.030 A 
HETATM    8  C   UNL     1      41.196 -30.849   2.679  1.00  0.00     0.002 A 
HETATM    9  C   UNL     1      41.483 -31.538   1.507  1.00  0.00     0.001 A 
HETATM   10  C   UNL     1      42.726 -31.391   0.877  1.00  0.00     0.014 A 
ENDROOT
BRANCH   6  11
HETATM   11  C   UNL     1      45.899 -30.600  -0.079  1.00  0.00     0.252 C 
BRANCH  11  12
HETATM   12  N   UNL     1      45.984 -32.062  -0.259  1.00  0.00    -0.067 N 
HETATM   13  H   UNL     1      46.176 -32.521   0.634  1.00  0.00     0.275 HD
HETATM   14  H   UNL     1      45.086 -32.418  -0.601  1.00  0.00     0.275 HD
HETATM   15  H   UNL     1      46.719 -32.297  -0.932  1.00  0.00     0.275 HD
ENDBRANCH  11  12
BRANCH  11  16
HETATM   16  C   UNL     1      45.370 -29.927  -1.330  1.00  0.00    -0.024 A 
HETATM   17  C   UNL     1      45.847 -28.648  -1.673  1.00  0.00     0.009 A 
HETATM   18  C   UNL     1      45.430 -28.018  -2.847  1.00  0.00     0.001 A 
HETATM   19  C   UNL     1      44.534 -28.653  -3.700  1.00  0.00     0.000 A 
HETATM   20  C   UNL     1      44.048 -29.917  -3.380  1.00  0.00     0.001 A 
HETATM   21  C   UNL     1      44.464 -30.553  -2.207  1.00  0.00     0.009 A 
ENDBRANCH  11  16
ENDBRANCH   6  11
BRANCH   1  22
HETATM   22  C   UNL     1      46.777 -28.621   2.233  1.00  0.00     0.310 C 
HETATM   23  O   UNL     1      47.147 -27.668   1.562  1.00  0.00    -0.258 OA
BRANCH  22  24
HETATM   24  O   UNL     1      47.500 -29.255   3.191  1.00  0.00    -0.317 OA
BRANCH  24  25
HETATM   25  C   UNL     1      48.781 -28.681   3.496  1.00  0.00     0.175 C 
HETATM   26  C   UNL     1      49.729 -29.759   3.991  1.00  0.00     0.034 C 
ENDBRANCH  24  25
ENDBRANCH  22  24
ENDBRANCH   1  22
TORSDOF 6
ENDMDL
MODEL 8
REMARK VINA RESULT:      -6.3      6.460      9.831
REMARK  6 active torsions:
REMARK  status: ('A' for Active; 'I' for Inactive)
REMARK    1  A    between atoms: C_2  and  O_3 
REMARK    2  A    between atoms: O_3  and  C_4 
REMARK    3  A    between atoms: C_4  and  C_5 
REMARK    4  A    between atoms: C_10  and  C_11 
REMARK    5  A    between atoms: C_11  and  N_12 
REMARK    6  A    between atoms: C_11  and  C_16 
ROOT
HETATM    1  C   UNL     1      43.049  -9.559   9.757  1.00  0.00     0.118 A 
HETATM    2  N   UNL     1      42.498  -8.908   8.681  1.00  0.00    -0.350 N 
HETATM    3  H   UNL     1      42.986  -8.733   7.811  1.00  0.00     0.166 HD
HETATM    4  C   UNL     1      41.218  -8.506   8.955  1.00  0.00     0.043 A 
HETATM    5  C   UNL     1      40.905  -8.944  10.243  1.00  0.00     0.002 A 
HETATM    6  C   UNL     1      42.069  -9.633  10.756  1.00  0.00     0.022 A 
HETATM    7  C   UNL     1      40.325  -7.793   8.146  1.00  0.00     0.030 A 
HETATM    8  C   UNL     1      39.061  -7.512   8.662  1.00  0.00     0.002 A 
HETATM    9  C   UNL     1      38.705  -7.935   9.935  1.00  0.00     0.001 A 
HETATM   10  C   UNL     1      39.610  -8.649  10.732  1.00  0.00     0.014 A 
ENDROOT
BRANCH   6  11
HETATM   11  C   UNL     1      42.269 -10.283  12.100  1.00  0.00     0.252 C 
BRANCH  11  12
HETATM   12  N   UNL     1      43.421 -11.202  12.182  1.00  0.00    -0.067 N 
HETATM   13  H   UNL     1      43.102 -12.169  12.263  1.00  0.00     0.275 HD
HETATM   14  H   UNL     1      43.977 -11.132  11.323  1.00  0.00     0.275 HD
HETATM   15  H   UNL     1      44.010 -10.964  12.985  1.00  0.00     0.275 HD
ENDBRANCH  11  12
BRANCH  11  16
HETATM   16  C   UNL     1      42.369  -9.188  13.142  1.00  0.00    -0.024 A 
HETATM   17  C   UNL     1      43.323  -8.167  12.972  1.00  0.00     0.009 A 
HETATM   18  C   UNL     1      43.409  -7.108  13.877  1.00  0.00     0.001 A 
HETATM   19  C   UNL     1      42.545  -7.047  14.966  1.00  0.00     0.000 A 
HETATM   20  C   UNL     1      41.596  -8.046  15.154  1.00  0.00     0.001 A 
HETATM   21  C   UNL     1      41.504  -9.107  14.249  1.00  0.00     0.009 A 
ENDBRANCH  11  16
ENDBRANCH   6  11
BRANCH   1  22
HETATM   22  C   UNL     1      44.411 -10.051   9.777  1.00  0.00     0.310 C 
HETATM   23  O   UNL     1      45.332  -9.494  10.359  1.00  0.00    -0.258 OA
BRANCH  22  24
HETATM   24  O   UNL     1      44.502 -11.181   9.031  1.00  0.00    -0.317 OA
BRANCH  24  25
HETATM   25  C   UNL     1      45.278 -11.078   7.826  1.00  0.00     0.175 C 
HETATM   26  C   UNL     1      44.669 -11.948   6.741  1.00  0.00     0.034 C 
ENDBRANCH  24  25
ENDBRANCH  22  24
ENDBRANCH   1  22
TORSDOF 6
ENDMDL
MODEL 9
REMARK VINA RESULT:      -6.2      6.402      9.401
REMARK  6 active torsions:
REMARK  status: ('A' for Active; 'I' for Inactive)
REMARK    1  A    between atoms: C_2  and  O_3 
REMARK    2  A    between atoms: O_3  and  C_4 
REMARK    3  A    between atoms: C_4  and  C_5 
REMARK    4  A    between atoms: C_10  and  C_11 
REMARK    5  A    between atoms: C_11  and  N_12 
REMARK    6  A    between atoms: C_11  and  C_16 
ROOT
HETATM    1  C   UNL     1      41.874  -9.062   9.221  1.00  0.00     0.118 A 
HETATM    2  N   UNL     1      42.304 -10.202   8.589  1.00  0.00    -0.350 N 
HETATM    3  H   UNL     1      41.707 -10.992   8.372  1.00  0.00     0.166 HD
HETATM    4  C   UNL     1      43.645 -10.138   8.321  1.00  0.00     0.043 A 
HETATM    5  C   UNL     1      44.103  -8.895   8.758  1.00  0.00     0.002 A 
HETATM    6  C   UNL     1      42.970  -8.195   9.322  1.00  0.00     0.022 A 
HETATM    7  C   UNL     1      44.471 -11.095   7.718  1.00  0.00     0.030 A 
HETATM    8  C   UNL     1      45.818 -10.779   7.550  1.00  0.00     0.002 A 
HETATM    9  C   UNL     1      46.315  -9.551   7.963  1.00  0.00     0.001 A 
HETATM   10  C   UNL     1      45.474  -8.603   8.563  1.00  0.00     0.014 A 
ENDROOT
BRANCH   6  11
HETATM   11  C   UNL     1      42.918  -6.825   9.946  1.00  0.00     0.252 C 
BRANCH  11  12
HETATM   12  N   UNL     1      41.978  -5.884   9.306  1.00  0.00    -0.067 N 
HETATM   13  H   UNL     1      41.843  -6.127   8.323  1.00  0.00     0.275 HD
HETATM   14  H   UNL     1      41.065  -5.944   9.767  1.00  0.00     0.275 HD
HETATM   15  H   UNL     1      42.329  -4.925   9.379  1.00  0.00     0.275 HD
ENDBRANCH  11  12
BRANCH  11  16
HETATM   16  C   UNL     1      42.605  -6.991  11.419  1.00  0.00    -0.024 A 
HETATM   17  C   UNL     1      43.290  -7.973  12.159  1.00  0.00     0.009 A 
HETATM   18  C   UNL     1      43.075  -8.120  13.530  1.00  0.00     0.001 A 
HETATM   19  C   UNL     1      42.175  -7.288  14.189  1.00  0.00     0.000 A 
HETATM   20  C   UNL     1      41.486  -6.312  13.477  1.00  0.00     0.001 A 
HETATM   21  C   UNL     1      41.699  -6.159  12.105  1.00  0.00     0.009 A 
ENDBRANCH  11  16
ENDBRANCH   6  11
BRANCH   1  22
HETATM   22  C   UNL     1      40.513  -8.868   9.675  1.00  0.00     0.310 C 
HETATM   23  O   UNL     1      39.775  -7.982   9.270  1.00  0.00    -0.258 OA
BRANCH  22  24
HETATM   24  O   UNL     1      40.212  -9.787  10.629  1.00  0.00    -0.317 OA
BRANCH  24  25
HETATM   25  C   UNL     1      39.711  -9.266  11.870  1.00  0.00     0.175 C 
HETATM   26  C   UNL     1      40.044 -10.216  13.005  1.00  0.00     0.034 C 
ENDBRANCH  24  25
ENDBRANCH  22  24
ENDBRANCH   1  22
TORSDOF 6
ENDMDL
MODEL 10
REMARK VINA RESULT:      -6.1     15.551     16.927
REMARK  6 active torsions:
REMARK  status: ('A' for Active; 'I' for Inactive)
REMARK    1  A    between atoms: C_2  and  O_3 
REMARK    2  A    between atoms: O_3  and  C_4 
REMARK    3  A    between atoms: C_4  and  C_5 
REMARK    4  A    between atoms: C_10  and  C_11 
REMARK    5  A    between atoms: C_11  and  N_12 
REMARK    6  A    between atoms: C_11  and  C_16 
ROOT
HETATM    1  C   UNL     1      46.149 -30.349   0.139  1.00  0.00     0.118 A 
HETATM    2  N   UNL     1      45.013 -30.719  -0.538  1.00  0.00    -0.350 N 
HETATM    3  H   UNL     1      44.374 -31.440  -0.225  1.00  0.00     0.166 HD
HETATM    4  C   UNL     1      44.880 -30.005  -1.698  1.00  0.00     0.043 A 
HETATM    5  C   UNL     1      45.946 -29.107  -1.766  1.00  0.00     0.002 A 
HETATM    6  C   UNL     1      46.754 -29.312  -0.584  1.00  0.00     0.022 A 
HETATM    7  C   UNL     1      43.886 -30.096  -2.681  1.00  0.00     0.030 A 
HETATM    8  C   UNL     1      43.974 -29.241  -3.777  1.00  0.00     0.002 A 
HETATM    9  C   UNL     1      45.014 -28.326  -3.882  1.00  0.00     0.001 A 
HETATM   10  C   UNL     1      46.000 -28.247  -2.888  1.00  0.00     0.014 A 
ENDROOT
BRANCH   6  11
HETATM   11  C   UNL     1      48.025 -28.616  -0.173  1.00  0.00     0.252 C 
BRANCH  11  12
HETATM   12  N   UNL     1      48.051 -28.142   1.225  1.00  0.00    -0.067 N 
HETATM   13  H   UNL     1      47.658 -28.849   1.849  1.00  0.00     0.275 HD
HETATM   14  H   UNL     1      49.022 -27.981   1.514  1.00  0.00     0.275 HD
HETATM   15  H   UNL     1      47.524 -27.269   1.316  1.00  0.00     0.275 HD
ENDBRANCH  11  12
BRANCH  11  16
HETATM   16  C   UNL     1      49.185 -29.548  -0.455  1.00  0.00    -0.024 A 
HETATM   17  C   UNL     1      49.558 -29.792  -1.790  1.00  0.00     0.009 A 
HETATM   18  C   UNL     1      50.658 -30.598  -2.092  1.00  0.00     0.001 A 
HETATM   19  C   UNL     1      51.405 -31.171  -1.069  1.00  0.00     0.000 A 
HETATM   20  C   UNL     1      51.053 -30.945   0.258  1.00  0.00     0.001 A 
HETATM   21  C   UNL     1      49.955 -30.137   0.566  1.00  0.00     0.009 A 
ENDBRANCH  11  16
ENDBRANCH   6  11
BRANCH   1  22
HETATM   22  C   UNL     1      46.578 -30.971   1.374  1.00  0.00     0.310 C 
HETATM   23  O   UNL     1      47.108 -32.071   1.439  1.00  0.00    -0.258 OA
BRANCH  22  24
HETATM   24  O   UNL     1      46.267 -30.169   2.425  1.00  0.00    -0.317 OA
BRANCH  24  25
HETATM   25  C   UNL     1      46.574 -30.690   3.728  1.00  0.00     0.175 C 
HETATM   26  C   UNL     1      47.848 -30.056   4.254  1.00  0.00     0.034 C 
ENDBRANCH  24  25
ENDBRANCH  22  24
ENDBRANCH   1  22
TORSDOF 6
ENDMDL
