MODEL 1
REMARK VINA RESULT:      -9.0      0.000      0.000
REMARK  8 active torsions:
REMARK  status: ('A' for Active; 'I' for Inactive)
REMARK    1  A    between atoms: C_2  and  C_3 
REMARK    2  A    between atoms: C_4  and  O_5 
REMARK    3  A    between atoms: O_5  and  C_6 
REMARK    4  A    between atoms: C_6  and  C_7 
REMARK    5  A    between atoms: C_15  and  O_16 
REMARK    6  A    between atoms: C_17  and  C_18 
REMARK    7  A    between atoms: C_22  and  N_23 
REMARK    8  A    between atoms: C_24  and  C_25 
ROOT
HETATM    1  C   UNL     1      42.647 -14.441   6.173  1.00  0.00    -0.024 A 
HETATM    2  C   UNL     1      42.431 -14.380   4.789  1.00  0.00     0.078 A 
HETATM    3  C   UNL     1      42.873 -13.285   4.042  1.00  0.00     0.074 A 
HETATM    4  C   UNL     1      43.601 -12.268   4.666  1.00  0.00     0.081 A 
HETATM    5  C   UNL     1      43.889 -12.335   6.036  1.00  0.00     0.029 A 
HETATM    6  C   UNL     1      43.395 -13.418   6.781  1.00  0.00     0.026 A 
ENDROOT
BRANCH   5   7
HETATM    7  C   UNL     1      44.726 -11.336   6.695  1.00  0.00     0.107 A 
HETATM    8  N   UNL     1      46.064 -11.405   6.566  1.00  0.00    -0.172 NA
HETATM    9  N   UNL     1      46.515 -10.368   7.279  1.00  0.00    -0.262 N 
HETATM   10  H   UNL     1      47.513 -10.211   7.314  1.00  0.00     0.191 HD
HETATM   11  C   UNL     1      45.539  -9.646   7.909  1.00  0.00     0.131 A 
HETATM   12  C   UNL     1      44.349 -10.261   7.562  1.00  0.00     0.076 A 
BRANCH  11  13
HETATM   13  N   UNL     1      45.859  -8.586   8.683  1.00  0.00    -0.384 N 
HETATM   14  H   UNL     1      46.665  -8.573   9.301  1.00  0.00     0.157 HD
HETATM   15  H   UNL     1      45.524  -7.655   8.438  1.00  0.00     0.157 HD
ENDBRANCH  11  13
BRANCH  12  16
HETATM   16  C   UNL     1      42.969  -9.876   8.005  1.00  0.00     0.114 A 
HETATM   17  S   UNL     1      41.623  -9.719   6.937  1.00  0.00    -0.079 SA
HETATM   18  C   UNL     1      40.627  -9.262   8.250  1.00  0.00     0.078 A 
HETATM   19  C   UNL     1      41.359  -9.261   9.419  1.00  0.00     0.038 A 
HETATM   20  C   UNL     1      40.868  -8.922  10.778  1.00  0.00     0.071 C 
HETATM   21  N   UNL     1      42.689  -9.610   9.266  1.00  0.00    -0.245 NA
ENDBRANCH  12  16
ENDBRANCH   5   7
BRANCH   4  22
HETATM   22  O   UNL     1      44.018 -11.192   3.927  1.00  0.00    -0.360 OA
HETATM   23  H   UNL     1      43.332 -10.964   3.282  1.00  0.00     0.217 HD
ENDBRANCH   4  22
BRANCH   1  24
HETATM   24  C   UNL     1      42.100 -15.563   7.019  1.00  0.00     0.037 C 
HETATM   25  C   UNL     1      43.163 -16.182   7.915  1.00  0.00     0.010 C 
ENDBRANCH   1  24
BRANCH   2  26
HETATM   26  O   UNL     1      41.721 -15.390   4.187  1.00  0.00    -0.346 OA
BRANCH  26  27
HETATM   27  C   UNL     1      42.374 -15.842   2.992  1.00  0.00     0.214 C 
BRANCH  27  28
HETATM   28  C   UNL     1      43.045 -17.177   3.233  1.00  0.00    -0.034 A 
HETATM   29  C   UNL     1      42.974 -18.205   2.281  1.00  0.00     0.016 A 
HETATM   30  C   UNL     1      43.549 -19.460   2.524  1.00  0.00    -0.061 A 
HETATM   31  C   UNL     1      43.451 -20.559   1.509  1.00  0.00     0.048 C 
HETATM   32  C   UNL     1      44.186 -19.690   3.749  1.00  0.00     0.007 A 
HETATM   33  C   UNL     1      44.256 -18.681   4.708  1.00  0.00     0.001 A 
HETATM   34  C   UNL     1      43.685 -17.433   4.454  1.00  0.00     0.009 A 
ENDBRANCH  27  28
ENDBRANCH  26  27
ENDBRANCH   2  26
TORSDOF 8
ENDMDL
MODEL 2
REMARK VINA RESULT:      -8.6      2.192      3.474
REMARK  8 active torsions:
REMARK  status: ('A' for Active; 'I' for Inactive)
REMARK    1  A    between atoms: C_2  and  C_3 
REMARK    2  A    between atoms: C_4  and  O_5 
REMARK    3  A    between atoms: O_5  and  C_6 
REMARK    4  A    between atoms: C_6  and  C_7 
REMARK    5  A    between atoms: C_15  and  O_16 
REMARK    6  A    between atoms: C_17  and  C_18 
REMARK    7  A    between atoms: C_22  and  N_23 
REMARK    8  A    between atoms: C_24  and  C_25 
ROOT
HETATM    1  C   UNL     1      40.521 -14.741   5.367  1.00  0.00    -0.024 A 
HETATM    2  C   UNL     1      40.455 -14.728   3.967  1.00  0.00     0.078 A 
HETATM    3  C   UNL     1      40.191 -13.544   3.273  1.00  0.00     0.074 A 
HETATM    4  C   UNL     1      40.060 -12.343   3.975  1.00  0.00     0.081 A 
HETATM    5  C   UNL     1      40.185 -12.315   5.370  1.00  0.00     0.029 A 
HETATM    6  C   UNL     1      40.401 -13.522   6.056  1.00  0.00     0.026 A 
ENDROOT
BRANCH   5   7
HETATM    7  C   UNL     1      40.146 -11.063   6.121  1.00  0.00     0.107 A 
HETATM    8  N   UNL     1      38.966 -10.445   6.316  1.00  0.00    -0.172 NA
HETATM    9  N   UNL     1      39.282  -9.353   7.020  1.00  0.00    -0.262 N 
HETATM   10  H   UNL     1      38.534  -8.733   7.299  1.00  0.00     0.191 HD
HETATM   11  C   UNL     1      40.620  -9.199   7.258  1.00  0.00     0.131 A 
HETATM   12  C   UNL     1      41.223 -10.296   6.668  1.00  0.00     0.076 A 
BRANCH  11  13
HETATM   13  N   UNL     1      41.079  -8.125   7.937  1.00  0.00    -0.384 N 
HETATM   14  H   UNL     1      41.535  -7.336   7.487  1.00  0.00     0.157 HD
HETATM   15  H   UNL     1      40.697  -7.899   8.854  1.00  0.00     0.157 HD
ENDBRANCH  11  13
BRANCH  12  16
HETATM   16  C   UNL     1      42.691 -10.604   6.619  1.00  0.00     0.114 A 
HETATM   17  S   UNL     1      43.482 -11.313   5.260  1.00  0.00    -0.079 SA
HETATM   18  C   UNL     1      44.966 -11.296   6.107  1.00  0.00     0.078 A 
HETATM   19  C   UNL     1      44.787 -10.751   7.361  1.00  0.00     0.038 A 
HETATM   20  C   UNL     1      45.824 -10.557   8.406  1.00  0.00     0.071 C 
HETATM   21  N   UNL     1      43.489 -10.363   7.641  1.00  0.00    -0.245 NA
ENDBRANCH  12  16
ENDBRANCH   5   7
BRANCH   4  22
HETATM   22  O   UNL     1      39.788 -11.190   3.286  1.00  0.00    -0.360 OA
HETATM   23  H   UNL     1      39.129 -11.377   2.600  1.00  0.00     0.217 HD
ENDBRANCH   4  22
BRANCH   1  24
HETATM   24  C   UNL     1      40.709 -16.018   6.147  1.00  0.00     0.037 C 
HETATM   25  C   UNL     1      41.878 -15.934   7.118  1.00  0.00     0.010 C 
ENDBRANCH   1  24
BRANCH   2  26
HETATM   26  O   UNL     1      40.594 -15.913   3.288  1.00  0.00    -0.346 OA
BRANCH  26  27
HETATM   27  C   UNL     1      41.772 -15.908   2.469  1.00  0.00     0.214 C 
BRANCH  27  28
HETATM   28  C   UNL     1      42.717 -17.008   2.902  1.00  0.00    -0.034 A 
HETATM   29  C   UNL     1      42.792 -18.217   2.193  1.00  0.00     0.016 A 
HETATM   30  C   UNL     1      43.627 -19.258   2.621  1.00  0.00    -0.061 A 
HETATM   31  C   UNL     1      43.686 -20.554   1.869  1.00  0.00     0.048 C 
HETATM   32  C   UNL     1      44.380 -19.090   3.789  1.00  0.00     0.007 A 
HETATM   33  C   UNL     1      44.308 -17.898   4.508  1.00  0.00     0.001 A 
HETATM   34  C   UNL     1      43.478 -16.865   4.070  1.00  0.00     0.009 A 
ENDBRANCH  27  28
ENDBRANCH  26  27
ENDBRANCH   2  26
TORSDOF 8
ENDMDL
MODEL 3
REMARK VINA RESULT:      -8.5      4.506      5.802
REMARK  8 active torsions:
REMARK  status: ('A' for Active; 'I' for Inactive)
REMARK    1  A    between atoms: C_2  and  C_3 
REMARK    2  A    between atoms: C_4  and  O_5 
REMARK    3  A    between atoms: O_5  and  C_6 
REMARK    4  A    between atoms: C_6  and  C_7 
REMARK    5  A    between atoms: C_15  and  O_16 
REMARK    6  A    between atoms: C_17  and  C_18 
REMARK    7  A    between atoms: C_22  and  N_23 
REMARK    8  A    between atoms: C_24  and  C_25 
ROOT
HETATM    1  C   UNL     1      40.953 -15.925   4.415  1.00  0.00    -0.024 A 
HETATM    2  C   UNL     1      42.354 -15.884   4.418  1.00  0.00     0.078 A 
HETATM    3  C   UNL     1      43.059 -15.386   3.319  1.00  0.00     0.074 A 
HETATM    4  C   UNL     1      42.361 -14.857   2.229  1.00  0.00     0.081 A 
HETATM    5  C   UNL     1      40.961 -14.826   2.227  1.00  0.00     0.029 A 
HETATM    6  C   UNL     1      40.268 -15.375   3.318  1.00  0.00     0.026 A 
ENDROOT
BRANCH   5   7
HETATM    7  C   UNL     1      40.208 -14.195   1.146  1.00  0.00     0.107 A 
HETATM    8  N   UNL     1      39.936 -14.899   0.031  1.00  0.00    -0.172 NA
HETATM    9  N   UNL     1      39.253 -14.043  -0.737  1.00  0.00    -0.262 N 
HETATM   10  H   UNL     1      38.926 -14.368  -1.637  1.00  0.00     0.191 HD
HETATM   11  C   UNL     1      39.103 -12.795  -0.200  1.00  0.00     0.131 A 
HETATM   12  C   UNL     1      39.732 -12.851   1.032  1.00  0.00     0.076 A 
BRANCH  11  13
HETATM   13  N   UNL     1      38.454 -11.826  -0.882  1.00  0.00    -0.384 N 
HETATM   14  H   UNL     1      38.153 -10.954  -0.456  1.00  0.00     0.157 HD
HETATM   15  H   UNL     1      38.538 -11.771  -1.895  1.00  0.00     0.157 HD
ENDBRANCH  11  13
BRANCH  12  16
HETATM   16  C   UNL     1      39.877 -11.735   2.025  1.00  0.00     0.114 A 
HETATM   17  S   UNL     1      40.930 -10.386   1.812  1.00  0.00    -0.079 SA
HETATM   18  C   UNL     1      40.455  -9.767   3.333  1.00  0.00     0.078 A 
HETATM   19  C   UNL     1      39.526 -10.605   3.914  1.00  0.00     0.038 A 
HETATM   20  C   UNL     1      38.865 -10.428   5.231  1.00  0.00     0.071 C 
HETATM   21  N   UNL     1      39.207 -11.721   3.161  1.00  0.00    -0.245 NA
ENDBRANCH  12  16
ENDBRANCH   5   7
BRANCH   4  22
HETATM   22  O   UNL     1      43.062 -14.385   1.151  1.00  0.00    -0.360 OA
HETATM   23  H   UNL     1      43.190 -13.429   1.248  1.00  0.00     0.217 HD
ENDBRANCH   4  22
BRANCH   1  24
HETATM   24  C   UNL     1      40.168 -16.542   5.546  1.00  0.00     0.037 C 
HETATM   25  C   UNL     1      40.062 -15.615   6.748  1.00  0.00     0.010 C 
ENDBRANCH   1  24
BRANCH   2  26
HETATM   26  O   UNL     1      43.027 -16.399   5.499  1.00  0.00    -0.346 OA
BRANCH  26  27
HETATM   27  C   UNL     1      44.289 -16.958   5.106  1.00  0.00     0.214 C 
BRANCH  27  28
HETATM   28  C   UNL     1      44.122 -18.410   4.714  1.00  0.00    -0.034 A 
HETATM   29  C   UNL     1      44.015 -18.787   3.367  1.00  0.00     0.016 A 
HETATM   30  C   UNL     1      43.806 -20.125   3.003  1.00  0.00    -0.061 A 
HETATM   31  C   UNL     1      43.674 -20.517   1.562  1.00  0.00     0.048 C 
HETATM   32  C   UNL     1      43.682 -21.092   4.008  1.00  0.00     0.007 A 
HETATM   33  C   UNL     1      43.777 -20.729   5.351  1.00  0.00     0.001 A 
HETATM   34  C   UNL     1      43.990 -19.395   5.702  1.00  0.00     0.009 A 
ENDBRANCH  27  28
ENDBRANCH  26  27
ENDBRANCH   2  26
TORSDOF 8
ENDMDL
MODEL 4
REMARK VINA RESULT:      -8.4      3.691      5.418
REMARK  8 active torsions:
REMARK  status: ('A' for Active; 'I' for Inactive)
REMARK    1  A    between atoms: C_2  and  C_3 
REMARK    2  A    between atoms: C_4  and  O_5 
REMARK    3  A    between atoms: O_5  and  C_6 
REMARK    4  A    between atoms: C_6  and  C_7 
REMARK    5  A    between atoms: C_15  and  O_16 
REMARK    6  A    between atoms: C_17  and  C_18 
REMARK    7  A    between atoms: C_22  and  N_23 
REMARK    8  A    between atoms: C_24  and  C_25 
ROOT
HETATM    1  C   UNL     1      41.310 -15.015   3.616  1.00  0.00    -0.024 A 
HETATM    2  C   UNL     1      42.596 -15.012   4.175  1.00  0.00     0.078 A 
HETATM    3  C   UNL     1      43.024 -13.953   4.981  1.00  0.00     0.074 A 
HETATM    4  C   UNL     1      42.140 -12.916   5.292  1.00  0.00     0.081 A 
HETATM    5  C   UNL     1      40.828 -12.927   4.800  1.00  0.00     0.029 A 
HETATM    6  C   UNL     1      40.430 -13.972   3.952  1.00  0.00     0.026 A 
ENDROOT
BRANCH   5   7
HETATM    7  C   UNL     1      39.855 -11.907   5.184  1.00  0.00     0.107 A 
HETATM    8  N   UNL     1      39.418 -11.856   6.456  1.00  0.00    -0.172 NA
HETATM    9  N   UNL     1      38.555 -10.834   6.464  1.00  0.00    -0.262 N 
HETATM   10  H   UNL     1      38.105 -10.597   7.337  1.00  0.00     0.191 HD
HETATM   11  C   UNL     1      38.370 -10.239   5.246  1.00  0.00     0.131 A 
HETATM   12  C   UNL     1      39.196 -10.927   4.375  1.00  0.00     0.076 A 
BRANCH  11  13
HETATM   13  N   UNL     1      37.507  -9.209   5.108  1.00  0.00    -0.384 N 
HETATM   14  H   UNL     1      37.728  -8.365   4.587  1.00  0.00     0.157 HD
HETATM   15  H   UNL     1      36.506  -9.363   5.219  1.00  0.00     0.157 HD
ENDBRANCH  11  13
BRANCH  12  16
HETATM   16  C   UNL     1      39.358 -10.689   2.903  1.00  0.00     0.114 A 
HETATM   17  S   UNL     1      40.373  -9.467   2.230  1.00  0.00    -0.079 SA
HETATM   18  C   UNL     1      39.895  -9.929   0.655  1.00  0.00     0.078 A 
HETATM   19  C   UNL     1      39.005 -10.982   0.722  1.00  0.00     0.038 A 
HETATM   20  C   UNL     1      38.355 -11.674  -0.420  1.00  0.00     0.071 C 
HETATM   21  N   UNL     1      38.707 -11.403   2.005  1.00  0.00    -0.245 NA
ENDBRANCH  12  16
ENDBRANCH   5   7
BRANCH   4  22
HETATM   22  O   UNL     1      42.574 -11.877   6.072  1.00  0.00    -0.360 OA
HETATM   23  H   UNL     1      42.848 -12.220   6.936  1.00  0.00     0.217 HD
ENDBRANCH   4  22
BRANCH   1  24
HETATM   24  C   UNL     1      40.854 -16.095   2.667  1.00  0.00     0.037 C 
HETATM   25  C   UNL     1      40.209 -15.526   1.412  1.00  0.00     0.010 C 
ENDBRANCH   1  24
BRANCH   2  26
HETATM   26  O   UNL     1      43.452 -16.040   3.868  1.00  0.00    -0.346 OA
BRANCH  26  27
HETATM   27  C   UNL     1      43.739 -16.840   5.025  1.00  0.00     0.214 C 
BRANCH  27  28
HETATM   28  C   UNL     1      43.822 -18.302   4.645  1.00  0.00    -0.034 A 
HETATM   29  C   UNL     1      43.716 -18.708   3.306  1.00  0.00     0.016 A 
HETATM   30  C   UNL     1      43.738 -20.065   2.956  1.00  0.00    -0.061 A 
HETATM   31  C   UNL     1      43.605 -20.492   1.524  1.00  0.00     0.048 C 
HETATM   32  C   UNL     1      43.848 -21.027   3.967  1.00  0.00     0.007 A 
HETATM   33  C   UNL     1      43.945 -20.638   5.302  1.00  0.00     0.001 A 
HETATM   34  C   UNL     1      43.927 -19.284   5.639  1.00  0.00     0.009 A 
ENDBRANCH  27  28
ENDBRANCH  26  27
ENDBRANCH   2  26
TORSDOF 8
ENDMDL
MODEL 5
REMARK VINA RESULT:      -8.4      1.636      2.337
REMARK  8 active torsions:
REMARK  status: ('A' for Active; 'I' for Inactive)
REMARK    1  A    between atoms: C_2  and  C_3 
REMARK    2  A    between atoms: C_4  and  O_5 
REMARK    3  A    between atoms: O_5  and  C_6 
REMARK    4  A    between atoms: C_6  and  C_7 
REMARK    5  A    between atoms: C_15  and  O_16 
REMARK    6  A    between atoms: C_17  and  C_18 
REMARK    7  A    between atoms: C_22  and  N_23 
REMARK    8  A    between atoms: C_24  and  C_25 
ROOT
HETATM    1  C   UNL     1      42.519 -14.803   5.947  1.00  0.00    -0.024 A 
HETATM    2  C   UNL     1      42.673 -14.716   4.556  1.00  0.00     0.078 A 
HETATM    3  C   UNL     1      43.117 -13.534   3.956  1.00  0.00     0.074 A 
HETATM    4  C   UNL     1      43.479 -12.445   4.754  1.00  0.00     0.081 A 
HETATM    5  C   UNL     1      43.396 -12.526   6.150  1.00  0.00     0.029 A 
HETATM    6  C   UNL     1      42.902 -13.703   6.734  1.00  0.00     0.026 A 
ENDROOT
BRANCH   5   7
HETATM    7  C   UNL     1      43.855 -11.439   7.011  1.00  0.00     0.107 A 
HETATM    8  N   UNL     1      44.985 -11.592   7.726  1.00  0.00    -0.172 NA
HETATM    9  N   UNL     1      45.111 -10.439   8.390  1.00  0.00    -0.262 N 
HETATM   10  H   UNL     1      45.914 -10.321   8.993  1.00  0.00     0.191 HD
HETATM   11  C   UNL     1      44.092  -9.551   8.182  1.00  0.00     0.131 A 
HETATM   12  C   UNL     1      43.238 -10.178   7.292  1.00  0.00     0.076 A 
BRANCH  11  13
HETATM   13  N   UNL     1      44.082  -8.355   8.811  1.00  0.00    -0.384 N 
HETATM   14  H   UNL     1      44.663  -8.149   9.620  1.00  0.00     0.157 HD
HETATM   15  H   UNL     1      43.765  -7.521   8.320  1.00  0.00     0.157 HD
ENDBRANCH  11  13
BRANCH  12  16
HETATM   16  C   UNL     1      41.946  -9.643   6.747  1.00  0.00     0.114 A 
HETATM   17  S   UNL     1      40.526  -9.402   7.697  1.00  0.00    -0.079 SA
HETATM   18  C   UNL     1      39.685  -8.859   6.311  1.00  0.00     0.078 A 
HETATM   19  C   UNL     1      40.520  -8.883   5.213  1.00  0.00     0.038 A 
HETATM   20  C   UNL     1      40.176  -8.490   3.824  1.00  0.00     0.071 C 
HETATM   21  N   UNL     1      41.802  -9.332   5.474  1.00  0.00    -0.245 NA
ENDBRANCH  12  16
ENDBRANCH   5   7
BRANCH   4  22
HETATM   22  O   UNL     1      43.899 -11.287   4.155  1.00  0.00    -0.360 OA
HETATM   23  H   UNL     1      43.747 -11.349   3.199  1.00  0.00     0.217 HD
ENDBRANCH   4  22
BRANCH   1  24
HETATM   24  C   UNL     1      41.953 -16.032   6.613  1.00  0.00     0.037 C 
HETATM   25  C   UNL     1      40.432 -16.024   6.641  1.00  0.00     0.010 C 
ENDBRANCH   1  24
BRANCH   2  26
HETATM   26  O   UNL     1      42.323 -15.796   3.784  1.00  0.00    -0.346 OA
BRANCH  26  27
HETATM   27  C   UNL     1      43.451 -16.303   3.056  1.00  0.00     0.214 C 
BRANCH  27  28
HETATM   28  C   UNL     1      43.474 -17.815   3.108  1.00  0.00    -0.034 A 
HETATM   29  C   UNL     1      43.861 -18.492   4.275  1.00  0.00     0.016 A 
HETATM   30  C   UNL     1      43.934 -19.892   4.310  1.00  0.00    -0.061 A 
HETATM   31  C   UNL     1      44.368 -20.607   5.555  1.00  0.00     0.048 C 
HETATM   32  C   UNL     1      43.634 -20.618   3.152  1.00  0.00     0.007 A 
HETATM   33  C   UNL     1      43.257 -19.958   1.983  1.00  0.00     0.001 A 
HETATM   34  C   UNL     1      43.182 -18.564   1.960  1.00  0.00     0.009 A 
ENDBRANCH  27  28
ENDBRANCH  26  27
ENDBRANCH   2  26
TORSDOF 8
ENDMDL
MODEL 6
REMARK VINA RESULT:      -8.2      1.976      3.013
REMARK  8 active torsions:
REMARK  status: ('A' for Active; 'I' for Inactive)
REMARK    1  A    between atoms: C_2  and  C_3 
REMARK    2  A    between atoms: C_4  and  O_5 
REMARK    3  A    between atoms: O_5  and  C_6 
REMARK    4  A    between atoms: C_6  and  C_7 
REMARK    5  A    between atoms: C_15  and  O_16 
REMARK    6  A    between atoms: C_17  and  C_18 
REMARK    7  A    between atoms: C_22  and  N_23 
REMARK    8  A    between atoms: C_24  and  C_25 
ROOT
HETATM    1  C   UNL     1      42.255 -14.529   5.813  1.00  0.00    -0.024 A 
HETATM    2  C   UNL     1      43.007 -14.703   4.643  1.00  0.00     0.078 A 
HETATM    3  C   UNL     1      43.165 -13.655   3.731  1.00  0.00     0.074 A 
HETATM    4  C   UNL     1      42.627 -12.398   4.018  1.00  0.00     0.081 A 
HETATM    5  C   UNL     1      41.925 -12.179   5.211  1.00  0.00     0.029 A 
HETATM    6  C   UNL     1      41.733 -13.255   6.093  1.00  0.00     0.026 A 
ENDROOT
BRANCH   5   7
HETATM    7  C   UNL     1      41.433 -10.855   5.580  1.00  0.00     0.107 A 
HETATM    8  N   UNL     1      40.360 -10.346   4.946  1.00  0.00    -0.172 NA
HETATM    9  N   UNL     1      40.183  -9.148   5.512  1.00  0.00    -0.262 N 
HETATM   10  H   UNL     1      39.407  -8.581   5.195  1.00  0.00     0.191 HD
HETATM   11  C   UNL     1      41.117  -8.824   6.456  1.00  0.00     0.131 A 
HETATM   12  C   UNL     1      41.965  -9.915   6.519  1.00  0.00     0.076 A 
BRANCH  11  13
HETATM   13  N   UNL     1      41.069  -7.631   7.089  1.00  0.00    -0.384 N 
HETATM   14  H   UNL     1      41.854  -6.985   7.115  1.00  0.00     0.157 HD
HETATM   15  H   UNL     1      40.172  -7.183   7.269  1.00  0.00     0.157 HD
ENDBRANCH  11  13
BRANCH  12  16
HETATM   16  C   UNL     1      43.179 -10.068   7.387  1.00  0.00     0.114 A 
HETATM   17  S   UNL     1      44.640 -10.830   6.876  1.00  0.00    -0.079 SA
HETATM   18  C   UNL     1      45.326 -10.565   8.419  1.00  0.00     0.078 A 
HETATM   19  C   UNL     1      44.423  -9.911   9.231  1.00  0.00     0.038 A 
HETATM   20  C   UNL     1      44.628  -9.497  10.641  1.00  0.00     0.071 C 
HETATM   21  N   UNL     1      43.205  -9.635   8.633  1.00  0.00    -0.245 NA
ENDBRANCH  12  16
ENDBRANCH   5   7
BRANCH   4  22
HETATM   22  O   UNL     1      42.776 -11.382   3.111  1.00  0.00    -0.360 OA
HETATM   23  H   UNL     1      41.944 -10.891   3.044  1.00  0.00     0.217 HD
ENDBRANCH   4  22
BRANCH   1  24
HETATM   24  C   UNL     1      41.988 -15.666   6.768  1.00  0.00     0.037 C 
HETATM   25  C   UNL     1      42.988 -15.703   7.915  1.00  0.00     0.010 C 
ENDBRANCH   1  24
BRANCH   2  26
HETATM   26  O   UNL     1      43.539 -15.941   4.377  1.00  0.00    -0.346 OA
BRANCH  26  27
HETATM   27  C   UNL     1      42.965 -16.508   3.190  1.00  0.00     0.214 C 
BRANCH  27  28
HETATM   28  C   UNL     1      43.200 -18.003   3.157  1.00  0.00    -0.034 A 
HETATM   29  C   UNL     1      43.686 -18.684   4.283  1.00  0.00     0.016 A 
HETATM   30  C   UNL     1      43.955 -20.059   4.239  1.00  0.00    -0.061 A 
HETATM   31  C   UNL     1      44.493 -20.775   5.442  1.00  0.00     0.048 C 
HETATM   32  C   UNL     1      43.752 -20.753   3.041  1.00  0.00     0.007 A 
HETATM   33  C   UNL     1      43.278 -20.087   1.912  1.00  0.00     0.001 A 
HETATM   34  C   UNL     1      43.008 -18.719   1.968  1.00  0.00     0.009 A 
ENDBRANCH  27  28
ENDBRANCH  26  27
ENDBRANCH   2  26
TORSDOF 8
ENDMDL
MODEL 7
REMARK VINA RESULT:      -8.1      5.575      7.403
REMARK  8 active torsions:
REMARK  status: ('A' for Active; 'I' for Inactive)
REMARK    1  A    between atoms: C_2  and  C_3 
REMARK    2  A    between atoms: C_4  and  O_5 
REMARK    3  A    between atoms: O_5  and  C_6 
REMARK    4  A    between atoms: C_6  and  C_7 
REMARK    5  A    between atoms: C_15  and  O_16 
REMARK    6  A    between atoms: C_17  and  C_18 
REMARK    7  A    between atoms: C_22  and  N_23 
REMARK    8  A    between atoms: C_24  and  C_25 
ROOT
HETATM    1  C   UNL     1      41.843 -13.956   2.157  1.00  0.00    -0.024 A 
HETATM    2  C   UNL     1      41.535 -15.288   2.467  1.00  0.00     0.078 A 
HETATM    3  C   UNL     1      40.595 -15.999   1.717  1.00  0.00     0.074 A 
HETATM    4  C   UNL     1      40.002 -15.402   0.601  1.00  0.00     0.081 A 
HETATM    5  C   UNL     1      40.339 -14.095   0.229  1.00  0.00     0.029 A 
HETATM    6  C   UNL     1      41.249 -13.377   1.022  1.00  0.00     0.026 A 
ENDROOT
BRANCH   5   7
HETATM    7  C   UNL     1      39.807 -13.479  -0.984  1.00  0.00     0.107 A 
HETATM    8  N   UNL     1      39.964 -14.103  -2.166  1.00  0.00    -0.172 NA
HETATM    9  N   UNL     1      39.377 -13.287  -3.047  1.00  0.00    -0.262 N 
HETATM   10  H   UNL     1      39.361 -13.566  -4.019  1.00  0.00     0.191 HD
HETATM   11  C   UNL     1      38.882 -12.132  -2.507  1.00  0.00     0.131 A 
HETATM   12  C   UNL     1      39.159 -12.214  -1.154  1.00  0.00     0.076 A 
BRANCH  11  13
HETATM   13  N   UNL     1      38.285 -11.207  -3.291  1.00  0.00    -0.384 N 
HETATM   14  H   UNL     1      37.290 -11.215  -3.499  1.00  0.00     0.157 HD
HETATM   15  H   UNL     1      38.717 -10.294  -3.423  1.00  0.00     0.157 HD
ENDBRANCH  11  13
BRANCH  12  16
HETATM   16  C   UNL     1      38.845 -11.192  -0.102  1.00  0.00     0.114 A 
HETATM   17  S   UNL     1      37.411 -11.207   0.858  1.00  0.00    -0.079 SA
HETATM   18  C   UNL     1      37.915  -9.774   1.642  1.00  0.00     0.078 A 
HETATM   19  C   UNL     1      39.136  -9.368   1.145  1.00  0.00     0.038 A 
HETATM   20  C   UNL     1      39.915  -8.174   1.559  1.00  0.00     0.071 C 
HETATM   21  N   UNL     1      39.653 -10.182   0.153  1.00  0.00    -0.245 NA
ENDBRANCH  12  16
ENDBRANCH   5   7
BRANCH   4  22
HETATM   22  O   UNL     1      39.071 -16.104  -0.119  1.00  0.00    -0.360 OA
HETATM   23  H   UNL     1      38.531 -16.633   0.489  1.00  0.00     0.217 HD
ENDBRANCH   4  22
BRANCH   1  24
HETATM   24  C   UNL     1      42.782 -13.134   3.004  1.00  0.00     0.037 C 
HETATM   25  C   UNL     1      42.653 -11.643   2.727  1.00  0.00     0.010 C 
ENDBRANCH   1  24
BRANCH   2  26
HETATM   26  O   UNL     1      42.131 -15.866   3.561  1.00  0.00    -0.346 OA
BRANCH  26  27
HETATM   27  C   UNL     1      43.451 -16.332   3.248  1.00  0.00     0.214 C 
BRANCH  27  28
HETATM   28  C   UNL     1      43.479 -17.845   3.214  1.00  0.00    -0.034 A 
HETATM   29  C   UNL     1      43.880 -18.586   4.336  1.00  0.00     0.016 A 
HETATM   30  C   UNL     1      43.959 -19.985   4.291  1.00  0.00    -0.061 A 
HETATM   31  C   UNL     1      44.407 -20.768   5.488  1.00  0.00     0.048 C 
HETATM   32  C   UNL     1      43.650 -20.645   3.096  1.00  0.00     0.007 A 
HETATM   33  C   UNL     1      43.259 -19.920   1.971  1.00  0.00     0.001 A 
HETATM   34  C   UNL     1      43.179 -18.528   2.028  1.00  0.00     0.009 A 
ENDBRANCH  27  28
ENDBRANCH  26  27
ENDBRANCH   2  26
TORSDOF 8
ENDMDL
MODEL 8
REMARK VINA RESULT:      -8.1      2.244      3.077
REMARK  8 active torsions:
REMARK  status: ('A' for Active; 'I' for Inactive)
REMARK    1  A    between atoms: C_2  and  C_3 
REMARK    2  A    between atoms: C_4  and  O_5 
REMARK    3  A    between atoms: O_5  and  C_6 
REMARK    4  A    between atoms: C_6  and  C_7 
REMARK    5  A    between atoms: C_15  and  O_16 
REMARK    6  A    between atoms: C_17  and  C_18 
REMARK    7  A    between atoms: C_22  and  N_23 
REMARK    8  A    between atoms: C_24  and  C_25 
ROOT
HETATM    1  C   UNL     1      41.580 -14.368   6.330  1.00  0.00    -0.024 A 
HETATM    2  C   UNL     1      42.900 -14.709   6.654  1.00  0.00     0.078 A 
HETATM    3  C   UNL     1      43.928 -13.766   6.558  1.00  0.00     0.074 A 
HETATM    4  C   UNL     1      43.629 -12.448   6.203  1.00  0.00     0.081 A 
HETATM    5  C   UNL     1      42.308 -12.064   5.937  1.00  0.00     0.029 A 
HETATM    6  C   UNL     1      41.295 -13.034   5.990  1.00  0.00     0.026 A 
ENDROOT
BRANCH   5   7
HETATM    7  C   UNL     1      41.954 -10.675   5.655  1.00  0.00     0.107 A 
HETATM    8  N   UNL     1      41.653 -10.311   4.395  1.00  0.00    -0.172 NA
HETATM    9  N   UNL     1      41.385  -9.004   4.487  1.00  0.00    -0.262 N 
HETATM   10  H   UNL     1      41.115  -8.513   3.645  1.00  0.00     0.191 HD
HETATM   11  C   UNL     1      41.541  -8.481   5.740  1.00  0.00     0.131 A 
HETATM   12  C   UNL     1      41.930  -9.545   6.534  1.00  0.00     0.076 A 
BRANCH  11  13
HETATM   13  N   UNL     1      41.327  -7.166   5.968  1.00  0.00    -0.384 N 
HETATM   14  H   UNL     1      40.517  -6.666   5.613  1.00  0.00     0.157 HD
HETATM   15  H   UNL     1      41.766  -6.707   6.765  1.00  0.00     0.157 HD
ENDBRANCH  11  13
BRANCH  12  16
HETATM   16  C   UNL     1      42.255  -9.511   7.998  1.00  0.00     0.114 A 
HETATM   17  S   UNL     1      41.108  -9.132   9.231  1.00  0.00    -0.079 SA
HETATM   18  C   UNL     1      42.323  -9.304  10.422  1.00  0.00     0.078 A 
HETATM   19  C   UNL     1      43.521  -9.644   9.828  1.00  0.00     0.038 A 
HETATM   20  C   UNL     1      44.818  -9.884  10.509  1.00  0.00     0.071 C 
HETATM   21  N   UNL     1      43.469  -9.757   8.450  1.00  0.00    -0.245 NA
ENDBRANCH  12  16
ENDBRANCH   5   7
BRANCH   4  22
HETATM   22  O   UNL     1      44.646 -11.535   6.099  1.00  0.00    -0.360 OA
HETATM   23  H   UNL     1      45.428 -11.877   6.558  1.00  0.00     0.217 HD
ENDBRANCH   4  22
BRANCH   1  24
HETATM   24  C   UNL     1      40.467 -15.387   6.333  1.00  0.00     0.037 C 
HETATM   25  C   UNL     1      40.423 -16.195   5.043  1.00  0.00     0.010 C 
ENDBRANCH   1  24
BRANCH   2  26
HETATM   26  O   UNL     1      43.180 -16.005   7.010  1.00  0.00    -0.346 OA
BRANCH  26  27
HETATM   27  C   UNL     1      44.393 -16.463   6.396  1.00  0.00     0.214 C 
BRANCH  27  28
HETATM   28  C   UNL     1      44.093 -17.121   5.067  1.00  0.00    -0.034 A 
HETATM   29  C   UNL     1      43.676 -16.362   3.962  1.00  0.00     0.016 A 
HETATM   30  C   UNL     1      43.346 -16.974   2.745  1.00  0.00    -0.061 A 
HETATM   31  C   UNL     1      42.882 -16.158   1.576  1.00  0.00     0.048 C 
HETATM   32  C   UNL     1      43.417 -18.368   2.643  1.00  0.00     0.007 A 
HETATM   33  C   UNL     1      43.822 -19.135   3.736  1.00  0.00     0.001 A 
HETATM   34  C   UNL     1      44.153 -18.515   4.941  1.00  0.00     0.009 A 
ENDBRANCH  27  28
ENDBRANCH  26  27
ENDBRANCH   2  26
TORSDOF 8
ENDMDL
MODEL 9
REMARK VINA RESULT:      -8.1      3.441      5.565
REMARK  8 active torsions:
REMARK  status: ('A' for Active; 'I' for Inactive)
REMARK    1  A    between atoms: C_2  and  C_3 
REMARK    2  A    between atoms: C_4  and  O_5 
REMARK    3  A    between atoms: O_5  and  C_6 
REMARK    4  A    between atoms: C_6  and  C_7 
REMARK    5  A    between atoms: C_15  and  O_16 
REMARK    6  A    between atoms: C_17  and  C_18 
REMARK    7  A    between atoms: C_22  and  N_23 
REMARK    8  A    between atoms: C_24  and  C_25 
ROOT
HETATM    1  C   UNL     1      43.301 -13.172   6.326  1.00  0.00    -0.024 A 
HETATM    2  C   UNL     1      42.894 -14.492   6.564  1.00  0.00     0.078 A 
HETATM    3  C   UNL     1      41.539 -14.836   6.562  1.00  0.00     0.074 A 
HETATM    4  C   UNL     1      40.579 -13.870   6.250  1.00  0.00     0.081 A 
HETATM    5  C   UNL     1      40.961 -12.558   5.945  1.00  0.00     0.029 A 
HETATM    6  C   UNL     1      42.322 -12.217   6.000  1.00  0.00     0.026 A 
ENDROOT
BRANCH   5   7
HETATM    7  C   UNL     1      39.988 -11.552   5.525  1.00  0.00     0.107 A 
HETATM    8  N   UNL     1      39.296 -10.871   6.457  1.00  0.00    -0.172 NA
HETATM    9  N   UNL     1      38.511 -10.053   5.748  1.00  0.00    -0.262 N 
HETATM   10  H   UNL     1      37.900  -9.424   6.252  1.00  0.00     0.191 HD
HETATM   11  C   UNL     1      38.621 -10.196   4.393  1.00  0.00     0.131 A 
HETATM   12  C   UNL     1      39.572 -11.183   4.206  1.00  0.00     0.076 A 
BRANCH  11  13
HETATM   13  N   UNL     1      37.866  -9.447   3.559  1.00  0.00    -0.384 N 
HETATM   14  H   UNL     1      37.799  -8.435   3.628  1.00  0.00     0.157 HD
HETATM   15  H   UNL     1      37.611  -9.805   2.640  1.00  0.00     0.157 HD
ENDBRANCH  11  13
BRANCH  12  16
HETATM   16  C   UNL     1      40.054 -11.740   2.899  1.00  0.00     0.114 A 
HETATM   17  S   UNL     1      40.949 -10.833   1.736  1.00  0.00    -0.079 SA
HETATM   18  C   UNL     1      40.988 -12.191   0.698  1.00  0.00     0.078 A 
HETATM   19  C   UNL     1      40.332 -13.253   1.286  1.00  0.00     0.038 A 
HETATM   20  C   UNL     1      40.142 -14.610   0.715  1.00  0.00     0.071 C 
HETATM   21  N   UNL     1      39.805 -12.984   2.536  1.00  0.00    -0.245 NA
ENDBRANCH  12  16
ENDBRANCH   5   7
BRANCH   4  22
HETATM   22  O   UNL     1      39.253 -14.215   6.264  1.00  0.00    -0.360 OA
HETATM   23  H   UNL     1      39.017 -14.607   5.410  1.00  0.00     0.217 HD
ENDBRANCH   4  22
BRANCH   1  24
HETATM   24  C   UNL     1      44.746 -12.752   6.416  1.00  0.00     0.037 C 
HETATM   25  C   UNL     1      44.905 -11.239   6.476  1.00  0.00     0.010 C 
ENDBRANCH   1  24
BRANCH   2  26
HETATM   26  O   UNL     1      43.848 -15.434   6.861  1.00  0.00    -0.346 OA
BRANCH  26  27
HETATM   27  C   UNL     1      43.304 -16.761   6.804  1.00  0.00     0.214 C 
BRANCH  27  28
HETATM   28  C   UNL     1      43.556 -17.374   5.444  1.00  0.00    -0.034 A 
HETATM   29  C   UNL     1      43.347 -16.636   4.268  1.00  0.00     0.016 A 
HETATM   30  C   UNL     1      43.528 -17.218   3.006  1.00  0.00    -0.061 A 
HETATM   31  C   UNL     1      43.284 -16.428   1.754  1.00  0.00     0.048 C 
HETATM   32  C   UNL     1      43.904 -18.563   2.924  1.00  0.00     0.007 A 
HETATM   33  C   UNL     1      44.106 -19.310   4.084  1.00  0.00     0.001 A 
HETATM   34  C   UNL     1      43.928 -18.721   5.336  1.00  0.00     0.009 A 
ENDBRANCH  27  28
ENDBRANCH  26  27
ENDBRANCH   2  26
TORSDOF 8
ENDMDL
MODEL 10
REMARK VINA RESULT:      -8.0      5.120      7.345
REMARK  8 active torsions:
REMARK  status: ('A' for Active; 'I' for Inactive)
REMARK    1  A    between atoms: C_2  and  C_3 
REMARK    2  A    between atoms: C_4  and  O_5 
REMARK    3  A    between atoms: O_5  and  C_6 
REMARK    4  A    between atoms: C_6  and  C_7 
REMARK    5  A    between atoms: C_15  and  O_16 
REMARK    6  A    between atoms: C_17  and  C_18 
REMARK    7  A    between atoms: C_22  and  N_23 
REMARK    8  A    between atoms: C_24  and  C_25 
ROOT
HETATM    1  C   UNL     1      41.318 -14.804   2.118  1.00  0.00    -0.024 A 
HETATM    2  C   UNL     1      40.513 -14.705   3.262  1.00  0.00     0.078 A 
HETATM    3  C   UNL     1      39.983 -13.476   3.662  1.00  0.00     0.074 A 
HETATM    4  C   UNL     1      40.197 -12.340   2.876  1.00  0.00     0.081 A 
HETATM    5  C   UNL     1      40.942 -12.422   1.694  1.00  0.00     0.029 A 
HETATM    6  C   UNL     1      41.509 -13.654   1.332  1.00  0.00     0.026 A 
ENDROOT
BRANCH   5   7
HETATM    7  C   UNL     1      41.103 -11.273   0.806  1.00  0.00     0.107 A 
HETATM    8  N   UNL     1      41.920 -10.266   1.167  1.00  0.00    -0.172 NA
HETATM    9  N   UNL     1      41.836  -9.397   0.154  1.00  0.00    -0.262 N 
HETATM   10  H   UNL     1      42.390  -8.553   0.203  1.00  0.00     0.191 HD
HETATM   11  C   UNL     1      40.966  -9.763  -0.835  1.00  0.00     0.131 A 
HETATM   12  C   UNL     1      40.452 -10.984  -0.436  1.00  0.00     0.076 A 
BRANCH  11  13
HETATM   13  N   UNL     1      40.766  -8.963  -1.906  1.00  0.00    -0.384 N 
HETATM   14  H   UNL     1      40.028  -8.266  -1.948  1.00  0.00     0.157 HD
HETATM   15  H   UNL     1      41.527  -8.784  -2.559  1.00  0.00     0.157 HD
ENDBRANCH  11  13
BRANCH  12  16
HETATM   16  C   UNL     1      39.432 -11.816  -1.156  1.00  0.00     0.114 A 
HETATM   17  S   UNL     1      37.772 -11.377  -1.320  1.00  0.00    -0.079 SA
HETATM   18  C   UNL     1      37.466 -12.828  -2.171  1.00  0.00     0.078 A 
HETATM   19  C   UNL     1      38.630 -13.558  -2.292  1.00  0.00     0.038 A 
HETATM   20  C   UNL     1      38.793 -14.873  -2.962  1.00  0.00     0.071 C 
HETATM   21  N   UNL     1      39.741 -12.973  -1.710  1.00  0.00    -0.245 NA
ENDBRANCH  12  16
ENDBRANCH   5   7
BRANCH   4  22
HETATM   22  O   UNL     1      39.683 -11.137   3.285  1.00  0.00    -0.360 OA
HETATM   23  H   UNL     1      40.388 -10.612   3.694  1.00  0.00     0.217 HD
ENDBRANCH   4  22
BRANCH   1  24
HETATM   24  C   UNL     1      41.981 -16.097   1.716  1.00  0.00     0.037 C 
HETATM   25  C   UNL     1      43.494 -15.965   1.624  1.00  0.00     0.010 C 
ENDBRANCH   1  24
BRANCH   2  26
HETATM   26  O   UNL     1      40.304 -15.831   4.021  1.00  0.00    -0.346 OA
BRANCH  26  27
HETATM   27  C   UNL     1      40.694 -15.618   5.385  1.00  0.00     0.214 C 
BRANCH  27  28
HETATM   28  C   UNL     1      42.147 -15.995   5.581  1.00  0.00    -0.034 A 
HETATM   29  C   UNL     1      42.679 -17.152   4.990  1.00  0.00     0.016 A 
HETATM   30  C   UNL     1      44.010 -17.532   5.213  1.00  0.00    -0.061 A 
HETATM   31  C   UNL     1      44.565 -18.780   4.594  1.00  0.00     0.048 C 
HETATM   32  C   UNL     1      44.809 -16.751   6.055  1.00  0.00     0.007 A 
HETATM   33  C   UNL     1      44.290 -15.605   6.656  1.00  0.00     0.001 A 
HETATM   34  C   UNL     1      42.966 -15.232   6.423  1.00  0.00     0.009 A 
ENDBRANCH  27  28
ENDBRANCH  26  27
ENDBRANCH   2  26
TORSDOF 8
ENDMDL
