MODEL 1
REMARK VINA RESULT:      -7.6      0.000      0.000
REMARK  10 active torsions:
REMARK  status: ('A' for Active; 'I' for Inactive)
REMARK    1  A    between atoms: C_2  and  C_3 
REMARK    2  A    between atoms: C_3  and  C_4 
REMARK    3  A    between atoms: C_4  and  N_5 
REMARK    4  A    between atoms: C_4  and  C_22 
REMARK    5  A    between atoms: N_5  and  C_6 
REMARK    6  A    between atoms: C_8  and  C_9 
REMARK    7  A    between atoms: C_16  and  C_17 
REMARK       I    between atoms: C_22  and  N_23 
REMARK    8  A    between atoms: N_23  and  C_24 
REMARK    9  A    between atoms: C_24  and  C_25 
REMARK   10  A    between atoms: C_25  and  O_26 
ROOT
HETATM    1  C   UNL     1      42.500 -14.749   2.301  1.00  0.00     0.108 A 
HETATM    2  N   UNL     1      42.772 -16.057   2.256  1.00  0.00    -0.215 NA
HETATM    3  C   UNL     1      43.164 -16.668   3.395  1.00  0.00     0.180 A 
HETATM    4  N   UNL     1      43.316 -16.027   4.569  1.00  0.00    -0.222 NA
HETATM    5  C   UNL     1      43.065 -14.698   4.592  1.00  0.00     0.146 A 
HETATM    6  C   UNL     1      42.637 -14.021   3.463  1.00  0.00     0.080 A 
ENDROOT
BRANCH   1   7
HETATM    7  N   UNL     1      42.117 -14.064   1.132  1.00  0.00    -0.264 NA
HETATM    8  H   UNL     1      42.864 -13.424   0.878  1.00  0.00     0.130 HD
BRANCH   7   9
HETATM    9  C   UNL     1      40.797 -13.377   1.211  1.00  0.00     0.154 C 
BRANCH   9  10
HETATM   10  C   UNL     1      40.987 -11.859   1.026  1.00  0.00     0.033 C 
BRANCH  10  11
HETATM   11  C   UNL     1      40.600 -10.991   2.242  1.00  0.00    -0.021 C 
HETATM   12  C   UNL     1      41.817 -10.491   3.024  1.00  0.00     0.009 C 
HETATM   13  C   UNL     1      39.685 -11.791   3.173  1.00  0.00     0.009 C 
ENDBRANCH  10  11
ENDBRANCH   9  10
BRANCH   9  14
HETATM   14  C   UNL     1      39.855 -13.877   0.084  1.00  0.00     0.235 C 
HETATM   15  N   UNL     1      38.996 -12.904  -0.392  1.00  0.00    -0.358 N 
HETATM   16  H   UNL     1      39.334 -11.958  -0.227  1.00  0.00     0.162 HD
HETATM   17  O   UNL     1      39.824 -15.048  -0.287  1.00  0.00    -0.272 OA
BRANCH  15  18
HETATM   18  C   UNL     1      38.240 -13.109  -1.610  1.00  0.00     0.148 C 
BRANCH  18  19
HETATM   19  C   UNL     1      39.056 -12.719  -2.840  1.00  0.00     0.186 C 
BRANCH  19  20
HETATM   20  O   UNL     1      39.267 -13.887  -3.644  1.00  0.00    -0.394 OA
HETATM   21  C   UNL     1      38.204 -14.820  -3.505  1.00  0.00     0.201 C 
ENDBRANCH  19  20
ENDBRANCH  18  19
ENDBRANCH  15  18
ENDBRANCH   9  14
ENDBRANCH   7   9
ENDBRANCH   1   7
BRANCH   3  22
HETATM   22  C   UNL     1      43.414 -18.131   3.338  1.00  0.00     0.104 A 
HETATM   23  N   UNL     1      43.930 -18.725   4.453  1.00  0.00    -0.257 NA
HETATM   24  C   UNL     1      44.146 -20.057   4.425  1.00  0.00     0.117 A 
HETATM   25  C   UNL     1      43.871 -20.860   3.334  1.00  0.00     0.019 A 
HETATM   26  C   UNL     1      43.347 -20.260   2.197  1.00  0.00     0.004 A 
HETATM   27  C   UNL     1      43.118 -18.885   2.197  1.00  0.00     0.036 A 
ENDBRANCH   3  22
BRANCH   5  28
HETATM   28  C   UNL     1      43.249 -13.918   5.881  1.00  0.00     0.434 C 
HETATM   29  F   UNL     1      42.092 -13.554   6.500  1.00  0.00    -0.165 F 
HETATM   30  F   UNL     1      43.964 -14.615   6.813  1.00  0.00    -0.165 F 
HETATM   31  F   UNL     1      43.949 -12.760   5.686  1.00  0.00    -0.165 F 
ENDBRANCH   5  28
TORSDOF 10
ENDMDL
MODEL 2
REMARK VINA RESULT:      -7.5      4.113      7.035
REMARK  10 active torsions:
REMARK  status: ('A' for Active; 'I' for Inactive)
REMARK    1  A    between atoms: C_2  and  C_3 
REMARK    2  A    between atoms: C_3  and  C_4 
REMARK    3  A    between atoms: C_4  and  N_5 
REMARK    4  A    between atoms: C_4  and  C_22 
REMARK    5  A    between atoms: N_5  and  C_6 
REMARK    6  A    between atoms: C_8  and  C_9 
REMARK    7  A    between atoms: C_16  and  C_17 
REMARK       I    between atoms: C_22  and  N_23 
REMARK    8  A    between atoms: N_23  and  C_24 
REMARK    9  A    between atoms: C_24  and  C_25 
REMARK   10  A    between atoms: C_25  and  O_26 
ROOT
HETATM    1  C   UNL     1      42.799 -14.518   3.593  1.00  0.00     0.108 A 
HETATM    2  N   UNL     1      43.205 -15.778   3.778  1.00  0.00    -0.215 NA
HETATM    3  C   UNL     1      42.692 -16.739   2.981  1.00  0.00     0.180 A 
HETATM    4  N   UNL     1      41.774 -16.501   2.024  1.00  0.00    -0.222 NA
HETATM    5  C   UNL     1      41.350 -15.226   1.868  1.00  0.00     0.146 A 
HETATM    6  C   UNL     1      41.859 -14.194   2.638  1.00  0.00     0.080 A 
ENDROOT
BRANCH   1   7
HETATM    7  N   UNL     1      43.285 -13.487   4.419  1.00  0.00    -0.264 NA
HETATM    8  H   UNL     1      44.300 -13.496   4.376  1.00  0.00     0.130 HD
BRANCH   7   9
HETATM    9  C   UNL     1      42.786 -13.519   5.822  1.00  0.00     0.154 C 
BRANCH   9  10
HETATM   10  C   UNL     1      43.714 -14.394   6.686  1.00  0.00     0.033 C 
BRANCH  10  11
HETATM   11  C   UNL     1      43.009 -15.485   7.519  1.00  0.00    -0.021 C 
HETATM   12  C   UNL     1      43.807 -16.789   7.584  1.00  0.00     0.009 C 
HETATM   13  C   UNL     1      41.621 -15.761   6.934  1.00  0.00     0.009 C 
ENDBRANCH  10  11
ENDBRANCH   9  10
BRANCH   9  14
HETATM   14  C   UNL     1      42.779 -12.092   6.431  1.00  0.00     0.235 C 
HETATM   15  N   UNL     1      43.594 -11.958   7.539  1.00  0.00    -0.358 N 
HETATM   16  H   UNL     1      44.336 -12.654   7.576  1.00  0.00     0.162 HD
HETATM   17  O   UNL     1      42.053 -11.193   6.012  1.00  0.00    -0.272 OA
BRANCH  15  18
HETATM   18  C   UNL     1      43.918 -10.652   8.073  1.00  0.00     0.148 C 
BRANCH  18  19
HETATM   19  C   UNL     1      45.351 -10.610   8.599  1.00  0.00     0.186 C 
BRANCH  19  20
HETATM   20  O   UNL     1      45.316 -10.583  10.033  1.00  0.00    -0.394 OA
HETATM   21  C   UNL     1      44.001 -10.358  10.522  1.00  0.00     0.201 C 
ENDBRANCH  19  20
ENDBRANCH  18  19
ENDBRANCH  15  18
ENDBRANCH   9  14
ENDBRANCH   7   9
ENDBRANCH   1   7
BRANCH   3  22
HETATM   22  C   UNL     1      43.192 -18.125   3.168  1.00  0.00     0.104 A 
HETATM   23  N   UNL     1      43.751 -18.435   4.374  1.00  0.00    -0.257 NA
HETATM   24  C   UNL     1      44.193 -19.696   4.568  1.00  0.00     0.117 A 
HETATM   25  C   UNL     1      44.110 -20.696   3.617  1.00  0.00     0.019 A 
HETATM   26  C   UNL     1      43.543 -20.385   2.389  1.00  0.00     0.004 A 
HETATM   27  C   UNL     1      43.082 -19.090   2.160  1.00  0.00     0.036 A 
ENDBRANCH   3  22
BRANCH   5  28
HETATM   28  C   UNL     1      40.296 -14.904   0.825  1.00  0.00     0.434 C 
HETATM   29  F   UNL     1      39.487 -15.945   0.488  1.00  0.00    -0.165 F 
HETATM   30  F   UNL     1      39.461 -13.900   1.224  1.00  0.00    -0.165 F 
HETATM   31  F   UNL     1      40.848 -14.465  -0.345  1.00  0.00    -0.165 F 
ENDBRANCH   5  28
TORSDOF 10
ENDMDL
MODEL 3
REMARK VINA RESULT:      -7.0      3.587      5.372
REMARK  10 active torsions:
REMARK  status: ('A' for Active; 'I' for Inactive)
REMARK    1  A    between atoms: C_2  and  C_3 
REMARK    2  A    between atoms: C_3  and  C_4 
REMARK    3  A    between atoms: C_4  and  N_5 
REMARK    4  A    between atoms: C_4  and  C_22 
REMARK    5  A    between atoms: N_5  and  C_6 
REMARK    6  A    between atoms: C_8  and  C_9 
REMARK    7  A    between atoms: C_16  and  C_17 
REMARK       I    between atoms: C_22  and  N_23 
REMARK    8  A    between atoms: N_23  and  C_24 
REMARK    9  A    between atoms: C_24  and  C_25 
REMARK   10  A    between atoms: C_25  and  O_26 
ROOT
HETATM    1  C   UNL     1      42.793 -13.260   2.570  1.00  0.00     0.108 A 
HETATM    2  N   UNL     1      43.233 -14.415   3.077  1.00  0.00    -0.215 NA
HETATM    3  C   UNL     1      42.713 -15.564   2.595  1.00  0.00     0.180 A 
HETATM    4  N   UNL     1      41.758 -15.609   1.647  1.00  0.00    -0.222 NA
HETATM    5  C   UNL     1      41.301 -14.431   1.164  1.00  0.00     0.146 A 
HETATM    6  C   UNL     1      41.814 -13.221   1.601  1.00  0.00     0.080 A 
ENDROOT
BRANCH   1   7
HETATM    7  N   UNL     1      43.286 -12.035   3.063  1.00  0.00    -0.264 NA
HETATM    8  H   UNL     1      44.269 -11.966   2.819  1.00  0.00     0.130 HD
BRANCH   7   9
HETATM    9  C   UNL     1      43.053 -11.805   4.516  1.00  0.00     0.154 C 
BRANCH   9  10
HETATM   10  C   UNL     1      44.391 -11.490   5.214  1.00  0.00     0.033 C 
BRANCH  10  11
HETATM   11  C   UNL     1      44.654 -12.268   6.521  1.00  0.00    -0.021 C 
HETATM   12  C   UNL     1      43.672 -13.422   6.732  1.00  0.00     0.009 C 
HETATM   13  C   UNL     1      44.581 -11.308   7.713  1.00  0.00     0.009 C 
ENDBRANCH  10  11
ENDBRANCH   9  10
BRANCH   9  14
HETATM   14  C   UNL     1      42.111 -10.592   4.731  1.00  0.00     0.235 C 
HETATM   15  N   UNL     1      41.873  -9.864   3.581  1.00  0.00    -0.358 N 
HETATM   16  H   UNL     1      42.020 -10.403   2.730  1.00  0.00     0.162 HD
HETATM   17  O   UNL     1      41.687 -10.267   5.838  1.00  0.00    -0.272 OA
BRANCH  15  18
HETATM   18  C   UNL     1      40.821  -8.870   3.532  1.00  0.00     0.148 C 
BRANCH  18  19
HETATM   19  C   UNL     1      39.625  -9.370   2.724  1.00  0.00     0.186 C 
BRANCH  19  20
HETATM   20  O   UNL     1      38.722 -10.049   3.607  1.00  0.00    -0.394 OA
HETATM   21  C   UNL     1      38.424  -9.268   4.756  1.00  0.00     0.201 C 
ENDBRANCH  19  20
ENDBRANCH  18  19
ENDBRANCH  15  18
ENDBRANCH   9  14
ENDBRANCH   7   9
ENDBRANCH   1   7
BRANCH   3  22
HETATM   22  C   UNL     1      43.250 -16.840   3.135  1.00  0.00     0.104 A 
HETATM   23  N   UNL     1      43.736 -16.829   4.410  1.00  0.00    -0.257 NA
HETATM   24  C   UNL     1      44.210 -17.984   4.924  1.00  0.00     0.117 A 
HETATM   25  C   UNL     1      44.229 -19.183   4.235  1.00  0.00     0.019 A 
HETATM   26  C   UNL     1      43.737 -19.198   2.938  1.00  0.00     0.004 A 
HETATM   27  C   UNL     1      43.245 -18.019   2.381  1.00  0.00     0.036 A 
ENDBRANCH   3  22
BRANCH   5  28
HETATM   28  C   UNL     1      40.205 -14.420   0.116  1.00  0.00     0.434 C 
HETATM   29  F   UNL     1      39.262 -13.452   0.283  1.00  0.00    -0.165 F 
HETATM   30  F   UNL     1      40.696 -14.245  -1.147  1.00  0.00    -0.165 F 
HETATM   31  F   UNL     1      39.522 -15.603   0.073  1.00  0.00    -0.165 F 
ENDBRANCH   5  28
TORSDOF 10
ENDMDL
MODEL 4
REMARK VINA RESULT:      -6.9      2.939      5.646
REMARK  10 active torsions:
REMARK  status: ('A' for Active; 'I' for Inactive)
REMARK    1  A    between atoms: C_2  and  C_3 
REMARK    2  A    between atoms: C_3  and  C_4 
REMARK    3  A    between atoms: C_4  and  N_5 
REMARK    4  A    between atoms: C_4  and  C_22 
REMARK    5  A    between atoms: N_5  and  C_6 
REMARK    6  A    between atoms: C_8  and  C_9 
REMARK    7  A    between atoms: C_16  and  C_17 
REMARK       I    between atoms: C_22  and  N_23 
REMARK    8  A    between atoms: N_23  and  C_24 
REMARK    9  A    between atoms: C_24  and  C_25 
REMARK   10  A    between atoms: C_25  and  O_26 
ROOT
HETATM    1  C   UNL     1      42.420 -13.658   4.807  1.00  0.00     0.108 A 
HETATM    2  N   UNL     1      42.990 -12.670   5.503  1.00  0.00    -0.215 NA
HETATM    3  C   UNL     1      43.856 -12.997   6.486  1.00  0.00     0.180 A 
HETATM    4  N   UNL     1      44.161 -14.266   6.818  1.00  0.00    -0.222 NA
HETATM    5  C   UNL     1      43.555 -15.256   6.124  1.00  0.00     0.146 A 
HETATM    6  C   UNL     1      42.676 -14.983   5.089  1.00  0.00     0.080 A 
ENDROOT
BRANCH   1   7
HETATM    7  N   UNL     1      41.489 -13.366   3.793  1.00  0.00    -0.264 NA
HETATM    8  H   UNL     1      40.615 -13.833   4.018  1.00  0.00     0.130 HD
BRANCH   7   9
HETATM    9  C   UNL     1      41.948 -13.677   2.410  1.00  0.00     0.154 C 
BRANCH   9  10
HETATM   10  C   UNL     1      41.263 -14.964   1.911  1.00  0.00     0.033 C 
BRANCH  10  11
HETATM   11  C   UNL     1      42.216 -16.122   1.545  1.00  0.00    -0.021 C 
HETATM   12  C   UNL     1      42.089 -17.316   2.493  1.00  0.00     0.009 C 
HETATM   13  C   UNL     1      43.662 -15.616   1.547  1.00  0.00     0.009 C 
ENDBRANCH  10  11
ENDBRANCH   9  10
BRANCH   9  14
HETATM   14  C   UNL     1      41.565 -12.531   1.438  1.00  0.00     0.235 C 
HETATM   15  N   UNL     1      41.269 -12.964   0.159  1.00  0.00    -0.358 N 
HETATM   16  H   UNL     1      40.982 -13.940   0.124  1.00  0.00     0.162 HD
HETATM   17  O   UNL     1      41.604 -11.345   1.759  1.00  0.00    -0.272 OA
BRANCH  15  18
HETATM   18  C   UNL     1      40.641 -12.080  -0.800  1.00  0.00     0.148 C 
BRANCH  18  19
HETATM   19  C   UNL     1      39.125 -12.266  -0.814  1.00  0.00     0.186 C 
BRANCH  19  20
HETATM   20  O   UNL     1      38.797 -13.316  -1.734  1.00  0.00    -0.394 OA
HETATM   21  C   UNL     1      37.490 -13.157  -2.268  1.00  0.00     0.201 C 
ENDBRANCH  19  20
ENDBRANCH  18  19
ENDBRANCH  15  18
ENDBRANCH   9  14
ENDBRANCH   7   9
ENDBRANCH   1   7
BRANCH   3  22
HETATM   22  C   UNL     1      44.518 -11.885   7.216  1.00  0.00     0.104 A 
HETATM   23  N   UNL     1      43.935 -11.458   8.374  1.00  0.00    -0.257 NA
HETATM   24  C   UNL     1      44.533 -10.461   9.061  1.00  0.00     0.117 A 
HETATM   25  C   UNL     1      45.706  -9.847   8.663  1.00  0.00     0.019 A 
HETATM   26  C   UNL     1      46.301 -10.278   7.486  1.00  0.00     0.004 A 
HETATM   27  C   UNL     1      45.703 -11.302   6.754  1.00  0.00     0.036 A 
ENDBRANCH   3  22
BRANCH   5  28
HETATM   28  C   UNL     1      43.837 -16.705   6.474  1.00  0.00     0.434 C 
HETATM   29  F   UNL     1      44.291 -17.466   5.441  1.00  0.00    -0.165 F 
HETATM   30  F   UNL     1      44.772 -16.828   7.463  1.00  0.00    -0.165 F 
HETATM   31  F   UNL     1      42.728 -17.345   6.951  1.00  0.00    -0.165 F 
ENDBRANCH   5  28
TORSDOF 10
ENDMDL
MODEL 5
REMARK VINA RESULT:      -6.9      3.933      6.323
REMARK  10 active torsions:
REMARK  status: ('A' for Active; 'I' for Inactive)
REMARK    1  A    between atoms: C_2  and  C_3 
REMARK    2  A    between atoms: C_3  and  C_4 
REMARK    3  A    between atoms: C_4  and  N_5 
REMARK    4  A    between atoms: C_4  and  C_22 
REMARK    5  A    between atoms: N_5  and  C_6 
REMARK    6  A    between atoms: C_8  and  C_9 
REMARK    7  A    between atoms: C_16  and  C_17 
REMARK       I    between atoms: C_22  and  N_23 
REMARK    8  A    between atoms: N_23  and  C_24 
REMARK    9  A    between atoms: C_24  and  C_25 
REMARK   10  A    between atoms: C_25  and  O_26 
ROOT
HETATM    1  C   UNL     1      42.296 -14.780   4.162  1.00  0.00     0.108 A 
HETATM    2  N   UNL     1      42.776 -16.027   4.211  1.00  0.00    -0.215 NA
HETATM    3  C   UNL     1      42.494 -16.861   3.188  1.00  0.00     0.180 A 
HETATM    4  N   UNL     1      41.737 -16.513   2.130  1.00  0.00    -0.222 NA
HETATM    5  C   UNL     1      41.233 -15.258   2.108  1.00  0.00     0.146 A 
HETATM    6  C   UNL     1      41.508 -14.349   3.116  1.00  0.00     0.080 A 
ENDROOT
BRANCH   1   7
HETATM    7  N   UNL     1      42.539 -13.884   5.220  1.00  0.00    -0.264 NA
HETATM    8  H   UNL     1      41.922 -14.126   5.991  1.00  0.00     0.130 HD
BRANCH   7   9
HETATM    9  C   UNL     1      42.440 -12.442   4.857  1.00  0.00     0.154 C 
BRANCH   9  10
HETATM   10  C   UNL     1      41.567 -11.704   5.889  1.00  0.00     0.033 C 
BRANCH  10  11
HETATM   11  C   UNL     1      40.677 -10.578   5.319  1.00  0.00    -0.021 C 
HETATM   12  C   UNL     1      39.612 -10.106   6.310  1.00  0.00     0.009 C 
HETATM   13  C   UNL     1      40.003 -11.060   4.031  1.00  0.00     0.009 C 
ENDBRANCH  10  11
ENDBRANCH   9  10
BRANCH   9  14
HETATM   14  C   UNL     1      43.843 -11.781   4.865  1.00  0.00     0.235 C 
HETATM   15  N   UNL     1      44.375 -11.626   6.131  1.00  0.00    -0.358 N 
HETATM   16  H   UNL     1      43.980 -12.270   6.812  1.00  0.00     0.162 HD
HETATM   17  O   UNL     1      44.387 -11.363   3.845  1.00  0.00    -0.272 OA
BRANCH  15  18
HETATM   18  C   UNL     1      45.769 -11.278   6.316  1.00  0.00     0.148 C 
BRANCH  18  19
HETATM   19  C   UNL     1      46.008 -10.669   7.696  1.00  0.00     0.186 C 
BRANCH  19  20
HETATM   20  O   UNL     1      44.848  -9.916   8.076  1.00  0.00    -0.394 OA
HETATM   21  C   UNL     1      45.189  -8.602   8.498  1.00  0.00     0.201 C 
ENDBRANCH  19  20
ENDBRANCH  18  19
ENDBRANCH  15  18
ENDBRANCH   9  14
ENDBRANCH   7   9
ENDBRANCH   1   7
BRANCH   3  22
HETATM   22  C   UNL     1      43.077 -18.227   3.235  1.00  0.00     0.104 A 
HETATM   23  N   UNL     1      43.692 -18.608   4.392  1.00  0.00    -0.257 NA
HETATM   24  C   UNL     1      44.211 -19.853   4.460  1.00  0.00     0.117 A 
HETATM   25  C   UNL     1      44.153 -20.769   3.425  1.00  0.00     0.019 A 
HETATM   26  C   UNL     1      43.529 -20.384   2.247  1.00  0.00     0.004 A 
HETATM   27  C   UNL     1      42.988 -19.104   2.148  1.00  0.00     0.036 A 
ENDBRANCH   3  22
BRANCH   5  28
HETATM   28  C   UNL     1      40.349 -14.820   0.956  1.00  0.00     0.434 C 
HETATM   29  F   UNL     1      39.545 -15.794   0.448  1.00  0.00    -0.165 F 
HETATM   30  F   UNL     1      39.515 -13.794   1.302  1.00  0.00    -0.165 F 
HETATM   31  F   UNL     1      41.076 -14.347  -0.100  1.00  0.00    -0.165 F 
ENDBRANCH   5  28
TORSDOF 10
ENDMDL
MODEL 6
REMARK VINA RESULT:      -6.9     14.926     16.996
REMARK  10 active torsions:
REMARK  status: ('A' for Active; 'I' for Inactive)
REMARK    1  A    between atoms: C_2  and  C_3 
REMARK    2  A    between atoms: C_3  and  C_4 
REMARK    3  A    between atoms: C_4  and  N_5 
REMARK    4  A    between atoms: C_4  and  C_22 
REMARK    5  A    between atoms: N_5  and  C_6 
REMARK    6  A    between atoms: C_8  and  C_9 
REMARK    7  A    between atoms: C_16  and  C_17 
REMARK       I    between atoms: C_22  and  N_23 
REMARK    8  A    between atoms: N_23  and  C_24 
REMARK    9  A    between atoms: C_24  and  C_25 
REMARK   10  A    between atoms: C_25  and  O_26 
ROOT
HETATM    1  C   UNL     1      47.700 -28.624  -0.036  1.00  0.00     0.108 A 
HETATM    2  N   UNL     1      48.705 -29.397  -0.460  1.00  0.00    -0.215 NA
HETATM    3  C   UNL     1      48.675 -29.843  -1.733  1.00  0.00     0.180 A 
HETATM    4  N   UNL     1      47.676 -29.571  -2.595  1.00  0.00    -0.222 NA
HETATM    5  C   UNL     1      46.652 -28.812  -2.143  1.00  0.00     0.146 A 
HETATM    6  C   UNL     1      46.639 -28.305  -0.854  1.00  0.00     0.080 A 
ENDROOT
BRANCH   1   7
HETATM    7  N   UNL     1      47.675 -28.160   1.293  1.00  0.00    -0.264 NA
HETATM    8  H   UNL     1      48.407 -27.464   1.402  1.00  0.00     0.130 HD
BRANCH   7   9
HETATM    9  C   UNL     1      47.758 -29.225   2.332  1.00  0.00     0.154 C 
BRANCH   9  10
HETATM   10  C   UNL     1      48.591 -28.723   3.527  1.00  0.00     0.033 C 
BRANCH  10  11
HETATM   11  C   UNL     1      49.851 -29.553   3.851  1.00  0.00    -0.021 C 
HETATM   12  C   UNL     1      50.669 -29.898   2.604  1.00  0.00     0.009 C 
HETATM   13  C   UNL     1      49.446 -30.842   4.572  1.00  0.00     0.009 C 
ENDBRANCH  10  11
ENDBRANCH   9  10
BRANCH   9  14
HETATM   14  C   UNL     1      46.344 -29.584   2.858  1.00  0.00     0.235 C 
HETATM   15  N   UNL     1      45.351 -28.740   2.399  1.00  0.00    -0.358 N 
HETATM   16  H   UNL     1      45.598 -28.266   1.532  1.00  0.00     0.162 HD
HETATM   17  O   UNL     1      46.145 -30.484   3.671  1.00  0.00    -0.272 OA
BRANCH  15  18
HETATM   18  C   UNL     1      43.952 -29.074   2.567  1.00  0.00     0.148 C 
BRANCH  18  19
HETATM   19  C   UNL     1      43.326 -29.514   1.245  1.00  0.00     0.186 C 
BRANCH  19  20
HETATM   20  O   UNL     1      41.899 -29.514   1.386  1.00  0.00    -0.394 OA
HETATM   21  C   UNL     1      41.411 -30.790   1.779  1.00  0.00     0.201 C 
ENDBRANCH  19  20
ENDBRANCH  18  19
ENDBRANCH  15  18
ENDBRANCH   9  14
ENDBRANCH   7   9
ENDBRANCH   1   7
BRANCH   3  22
HETATM   22  C   UNL     1      49.825 -30.659  -2.202  1.00  0.00     0.104 A 
HETATM   23  N   UNL     1      51.078 -30.177  -1.960  1.00  0.00    -0.257 NA
HETATM   24  C   UNL     1      52.135 -30.915  -2.362  1.00  0.00     0.117 A 
HETATM   25  C   UNL     1      52.023 -32.136  -3.002  1.00  0.00     0.019 A 
HETATM   26  C   UNL     1      50.750 -32.629  -3.251  1.00  0.00     0.004 A 
HETATM   27  C   UNL     1      49.641 -31.886  -2.850  1.00  0.00     0.036 A 
ENDBRANCH   3  22
BRANCH   5  28
HETATM   28  C   UNL     1      45.484 -28.498  -3.059  1.00  0.00     0.434 C 
HETATM   29  F   UNL     1      45.350 -27.183  -3.385  1.00  0.00    -0.165 F 
HETATM   30  F   UNL     1      45.561 -29.168  -4.247  1.00  0.00    -0.165 F 
HETATM   31  F   UNL     1      44.288 -28.872  -2.515  1.00  0.00    -0.165 F 
ENDBRANCH   5  28
TORSDOF 10
ENDMDL
MODEL 7
REMARK VINA RESULT:      -6.8      2.550      3.937
REMARK  10 active torsions:
REMARK  status: ('A' for Active; 'I' for Inactive)
REMARK    1  A    between atoms: C_2  and  C_3 
REMARK    2  A    between atoms: C_3  and  C_4 
REMARK    3  A    between atoms: C_4  and  N_5 
REMARK    4  A    between atoms: C_4  and  C_22 
REMARK    5  A    between atoms: N_5  and  C_6 
REMARK    6  A    between atoms: C_8  and  C_9 
REMARK    7  A    between atoms: C_16  and  C_17 
REMARK       I    between atoms: C_22  and  N_23 
REMARK    8  A    between atoms: N_23  and  C_24 
REMARK    9  A    between atoms: C_24  and  C_25 
REMARK   10  A    between atoms: C_25  and  O_26 
ROOT
HETATM    1  C   UNL     1      40.154 -14.427   1.988  1.00  0.00     0.108 A 
HETATM    2  N   UNL     1      41.020 -15.443   2.053  1.00  0.00    -0.215 NA
HETATM    3  C   UNL     1      41.590 -15.722   3.245  1.00  0.00     0.180 A 
HETATM    4  N   UNL     1      41.350 -15.018   4.368  1.00  0.00    -0.222 NA
HETATM    5  C   UNL     1      40.493 -13.975   4.280  1.00  0.00     0.146 A 
HETATM    6  C   UNL     1      39.859 -13.656   3.091  1.00  0.00     0.080 A 
ENDROOT
BRANCH   1   7
HETATM    7  N   UNL     1      39.558 -14.081   0.760  1.00  0.00    -0.264 NA
HETATM    8  H   UNL     1      39.212 -14.931   0.323  1.00  0.00     0.130 HD
BRANCH   7   9
HETATM    9  C   UNL     1      40.426 -13.294  -0.159  1.00  0.00     0.154 C 
BRANCH   9  10
HETATM   10  C   UNL     1      40.208 -13.762  -1.611  1.00  0.00     0.033 C 
BRANCH  10  11
HETATM   11  C   UNL     1      38.745 -14.064  -1.996  1.00  0.00    -0.021 C 
HETATM   12  C   UNL     1      38.604 -15.329  -2.845  1.00  0.00     0.009 C 
HETATM   13  C   UNL     1      38.156 -12.870  -2.753  1.00  0.00     0.009 C 
ENDBRANCH  10  11
ENDBRANCH   9  10
BRANCH   9  14
HETATM   14  C   UNL     1      40.067 -11.786  -0.090  1.00  0.00     0.235 C 
HETATM   15  N   UNL     1      41.019 -10.963  -0.659  1.00  0.00    -0.358 N 
HETATM   16  H   UNL     1      41.602 -11.439  -1.345  1.00  0.00     0.162 HD
HETATM   17  O   UNL     1      39.069 -11.366   0.491  1.00  0.00    -0.272 OA
BRANCH  15  18
HETATM   18  C   UNL     1      40.736  -9.567  -0.923  1.00  0.00     0.148 C 
BRANCH  18  19
HETATM   19  C   UNL     1      41.721  -8.656  -0.194  1.00  0.00     0.186 C 
BRANCH  19  20
HETATM   20  O   UNL     1      42.963  -8.650  -0.911  1.00  0.00    -0.394 OA
HETATM   21  C   UNL     1      42.892  -7.846  -2.080  1.00  0.00     0.201 C 
ENDBRANCH  19  20
ENDBRANCH  18  19
ENDBRANCH  15  18
ENDBRANCH   9  14
ENDBRANCH   7   9
ENDBRANCH   1   7
BRANCH   3  22
HETATM   22  C   UNL     1      42.512 -16.885   3.309  1.00  0.00     0.104 A 
HETATM   23  N   UNL     1      43.271 -17.024   4.435  1.00  0.00    -0.257 NA
HETATM   24  C   UNL     1      44.101 -18.086   4.519  1.00  0.00     0.117 A 
HETATM   25  C   UNL     1      44.225 -19.046   3.532  1.00  0.00     0.019 A 
HETATM   26  C   UNL     1      43.456 -18.907   2.386  1.00  0.00     0.004 A 
HETATM   27  C   UNL     1      42.594 -17.818   2.270  1.00  0.00     0.036 A 
ENDBRANCH   3  22
BRANCH   5  28
HETATM   28  C   UNL     1      40.207 -13.129   5.507  1.00  0.00     0.434 C 
HETATM   29  F   UNL     1      39.029 -12.448   5.471  1.00  0.00    -0.165 F 
HETATM   30  F   UNL     1      40.172 -13.870   6.653  1.00  0.00    -0.165 F 
HETATM   31  F   UNL     1      41.176 -12.188   5.719  1.00  0.00    -0.165 F 
ENDBRANCH   5  28
TORSDOF 10
ENDMDL
MODEL 8
REMARK VINA RESULT:      -6.7      4.176      6.316
REMARK  10 active torsions:
REMARK  status: ('A' for Active; 'I' for Inactive)
REMARK    1  A    between atoms: C_2  and  C_3 
REMARK    2  A    between atoms: C_3  and  C_4 
REMARK    3  A    between atoms: C_4  and  N_5 
REMARK    4  A    between atoms: C_4  and  C_22 
REMARK    5  A    between atoms: N_5  and  C_6 
REMARK    6  A    between atoms: C_8  and  C_9 
REMARK    7  A    between atoms: C_16  and  C_17 
REMARK       I    between atoms: C_22  and  N_23 
REMARK    8  A    between atoms: N_23  and  C_24 
REMARK    9  A    between atoms: C_24  and  C_25 
REMARK   10  A    between atoms: C_25  and  O_26 
ROOT
HETATM    1  C   UNL     1      42.372 -13.254   2.752  1.00  0.00     0.108 A 
HETATM    2  N   UNL     1      42.884 -14.402   3.206  1.00  0.00    -0.215 NA
HETATM    3  C   UNL     1      42.531 -15.548   2.587  1.00  0.00     0.180 A 
HETATM    4  N   UNL     1      41.675 -15.601   1.550  1.00  0.00    -0.222 NA
HETATM    5  C   UNL     1      41.142 -14.435   1.119  1.00  0.00     0.146 A 
HETATM    6  C   UNL     1      41.485 -13.224   1.698  1.00  0.00     0.080 A 
ENDROOT
BRANCH   1   7
HETATM    7  N   UNL     1      42.689 -12.036   3.384  1.00  0.00    -0.264 NA
HETATM    8  H   UNL     1      43.660 -11.816   3.185  1.00  0.00     0.130 HD
BRANCH   7   9
HETATM    9  C   UNL     1      42.395 -11.993   4.845  1.00  0.00     0.154 C 
BRANCH   9  10
HETATM   10  C   UNL     1      43.467 -11.154   5.567  1.00  0.00     0.033 C 
BRANCH  10  11
HETATM   11  C   UNL     1      44.379 -11.938   6.536  1.00  0.00    -0.021 C 
HETATM   12  C   UNL     1      43.939 -13.392   6.718  1.00  0.00     0.009 C 
HETATM   13  C   UNL     1      44.405 -11.235   7.896  1.00  0.00     0.009 C 
ENDBRANCH  10  11
ENDBRANCH   9  10
BRANCH   9  14
HETATM   14  C   UNL     1      41.019 -11.326   5.104  1.00  0.00     0.235 C 
HETATM   15  N   UNL     1      40.455 -11.674   6.317  1.00  0.00    -0.358 N 
HETATM   16  H   UNL     1      41.140 -11.989   7.001  1.00  0.00     0.162 HD
HETATM   17  O   UNL     1      40.453 -10.623   4.271  1.00  0.00    -0.272 OA
BRANCH  15  18
HETATM   18  C   UNL     1      39.314 -10.953   6.843  1.00  0.00     0.148 C 
BRANCH  18  19
HETATM   19  C   UNL     1      39.755  -9.825   7.774  1.00  0.00     0.186 C 
BRANCH  19  20
HETATM   20  O   UNL     1      39.100  -9.988   9.039  1.00  0.00    -0.394 OA
HETATM   21  C   UNL     1      38.957  -8.749   9.720  1.00  0.00     0.201 C 
ENDBRANCH  19  20
ENDBRANCH  18  19
ENDBRANCH  15  18
ENDBRANCH   9  14
ENDBRANCH   7   9
ENDBRANCH   1   7
BRANCH   3  22
HETATM   22  C   UNL     1      43.148 -16.809   3.075  1.00  0.00     0.104 A 
HETATM   23  N   UNL     1      43.701 -16.798   4.323  1.00  0.00    -0.257 NA
HETATM   24  C   UNL     1      44.248 -17.940   4.789  1.00  0.00     0.117 A 
HETATM   25  C   UNL     1      44.279 -19.126   4.079  1.00  0.00     0.019 A 
HETATM   26  C   UNL     1      43.719 -19.141   2.809  1.00  0.00     0.004 A 
HETATM   27  C   UNL     1      43.150 -17.975   2.301  1.00  0.00     0.036 A 
ENDBRANCH   3  22
BRANCH   5  28
HETATM   28  C   UNL     1      40.148 -14.437  -0.027  1.00  0.00     0.434 C 
HETATM   29  F   UNL     1      39.435 -15.588  -0.165  1.00  0.00    -0.165 F 
HETATM   30  F   UNL     1      39.223 -13.438   0.085  1.00  0.00    -0.165 F 
HETATM   31  F   UNL     1      40.755 -14.227  -1.234  1.00  0.00    -0.165 F 
ENDBRANCH   5  28
TORSDOF 10
ENDMDL
MODEL 9
REMARK VINA RESULT:      -6.7      4.381      8.491
REMARK  10 active torsions:
REMARK  status: ('A' for Active; 'I' for Inactive)
REMARK    1  A    between atoms: C_2  and  C_3 
REMARK    2  A    between atoms: C_3  and  C_4 
REMARK    3  A    between atoms: C_4  and  N_5 
REMARK    4  A    between atoms: C_4  and  C_22 
REMARK    5  A    between atoms: N_5  and  C_6 
REMARK    6  A    between atoms: C_8  and  C_9 
REMARK    7  A    between atoms: C_16  and  C_17 
REMARK       I    between atoms: C_22  and  N_23 
REMARK    8  A    between atoms: N_23  and  C_24 
REMARK    9  A    between atoms: C_24  and  C_25 
REMARK   10  A    between atoms: C_25  and  O_26 
ROOT
HETATM    1  C   UNL     1      40.865 -13.570   0.309  1.00  0.00     0.108 A 
HETATM    2  N   UNL     1      41.287 -12.356  -0.058  1.00  0.00    -0.215 NA
HETATM    3  C   UNL     1      40.813 -11.836  -1.210  1.00  0.00     0.180 A 
HETATM    4  N   UNL     1      39.955 -12.482  -2.022  1.00  0.00    -0.222 NA
HETATM    5  C   UNL     1      39.560 -13.722  -1.653  1.00  0.00     0.146 A 
HETATM    6  C   UNL     1      39.992 -14.298  -0.470  1.00  0.00     0.080 A 
ENDROOT
BRANCH   1   7
HETATM    7  N   UNL     1      41.355 -14.165   1.487  1.00  0.00    -0.264 NA
HETATM    8  H   UNL     1      42.057 -14.853   1.229  1.00  0.00     0.130 HD
BRANCH   7   9
HETATM    9  C   UNL     1      40.310 -14.742   2.380  1.00  0.00     0.154 C 
BRANCH   9  10
HETATM   10  C   UNL     1      40.860 -15.998   3.082  1.00  0.00     0.033 C 
BRANCH  10  11
HETATM   11  C   UNL     1      42.337 -16.332   2.780  1.00  0.00    -0.021 C 
HETATM   12  C   UNL     1      42.534 -17.771   2.301  1.00  0.00     0.009 C 
HETATM   13  C   UNL     1      43.184 -16.087   4.033  1.00  0.00     0.009 C 
ENDBRANCH  10  11
ENDBRANCH   9  10
BRANCH   9  14
HETATM   14  C   UNL     1      39.911 -13.723   3.479  1.00  0.00     0.235 C 
HETATM   15  N   UNL     1      40.190 -14.154   4.762  1.00  0.00    -0.358 N 
HETATM   16  H   UNL     1      40.922 -14.860   4.795  1.00  0.00     0.162 HD
HETATM   17  O   UNL     1      39.326 -12.671   3.230  1.00  0.00    -0.272 OA
BRANCH  15  18
HETATM   18  C   UNL     1      40.134 -13.240   5.884  1.00  0.00     0.148 C 
BRANCH  18  19
HETATM   19  C   UNL     1      41.422 -12.428   6.000  1.00  0.00     0.186 C 
BRANCH  19  20
HETATM   20  O   UNL     1      42.526 -13.331   6.150  1.00  0.00    -0.394 OA
HETATM   21  C   UNL     1      43.620 -12.717   6.818  1.00  0.00     0.201 C 
ENDBRANCH  19  20
ENDBRANCH  18  19
ENDBRANCH  15  18
ENDBRANCH   9  14
ENDBRANCH   7   9
ENDBRANCH   1   7
BRANCH   3  22
HETATM   22  C   UNL     1      41.254 -10.465  -1.577  1.00  0.00     0.104 A 
HETATM   23  N   UNL     1      42.036  -9.795  -0.681  1.00  0.00    -0.257 NA
HETATM   24  C   UNL     1      42.462  -8.556  -1.006  1.00  0.00     0.117 A 
HETATM   25  C   UNL     1      42.157  -7.924  -2.198  1.00  0.00     0.019 A 
HETATM   26  C   UNL     1      41.361  -8.602  -3.111  1.00  0.00     0.004 A 
HETATM   27  C   UNL     1      40.904  -9.881  -2.799  1.00  0.00     0.036 A 
ENDBRANCH   3  22
BRANCH   5  28
HETATM   28  C   UNL     1      38.618 -14.510  -2.543  1.00  0.00     0.434 C 
HETATM   29  F   UNL     1      38.891 -14.435  -3.875  1.00  0.00    -0.165 F 
HETATM   30  F   UNL     1      38.609 -15.842  -2.241  1.00  0.00    -0.165 F 
HETATM   31  F   UNL     1      37.320 -14.105  -2.405  1.00  0.00    -0.165 F 
ENDBRANCH   5  28
TORSDOF 10
ENDMDL
MODEL 10
REMARK VINA RESULT:      -6.7      3.593      7.048
REMARK  10 active torsions:
REMARK  status: ('A' for Active; 'I' for Inactive)
REMARK    1  A    between atoms: C_2  and  C_3 
REMARK    2  A    between atoms: C_3  and  C_4 
REMARK    3  A    between atoms: C_4  and  N_5 
REMARK    4  A    between atoms: C_4  and  C_22 
REMARK    5  A    between atoms: N_5  and  C_6 
REMARK    6  A    between atoms: C_8  and  C_9 
REMARK    7  A    between atoms: C_16  and  C_17 
REMARK       I    between atoms: C_22  and  N_23 
REMARK    8  A    between atoms: N_23  and  C_24 
REMARK    9  A    between atoms: C_24  and  C_25 
REMARK   10  A    between atoms: C_25  and  O_26 
ROOT
HETATM    1  C   UNL     1      40.318 -14.330   3.452  1.00  0.00     0.108 A 
HETATM    2  N   UNL     1      40.093 -13.797   2.247  1.00  0.00    -0.215 NA
HETATM    3  C   UNL     1      40.650 -14.392   1.171  1.00  0.00     0.180 A 
HETATM    4  N   UNL     1      41.440 -15.480   1.247  1.00  0.00    -0.222 NA
HETATM    5  C   UNL     1      41.683 -15.991   2.476  1.00  0.00     0.146 A 
HETATM    6  C   UNL     1      41.119 -15.440   3.614  1.00  0.00     0.080 A 
ENDROOT
BRANCH   1   7
HETATM    7  N   UNL     1      39.781 -13.727   4.606  1.00  0.00    -0.264 NA
HETATM    8  H   UNL     1      38.782 -13.911   4.627  1.00  0.00     0.130 HD
BRANCH   7   9
HETATM    9  C   UNL     1      40.083 -12.276   4.754  1.00  0.00     0.154 C 
BRANCH   9  10
HETATM   10  C   UNL     1      39.304 -11.700   5.952  1.00  0.00     0.033 C 
BRANCH  10  11
HETATM   11  C   UNL     1      38.657 -10.319   5.719  1.00  0.00    -0.021 C 
HETATM   12  C   UNL     1      38.580  -9.944   4.237  1.00  0.00     0.009 C 
HETATM   13  C   UNL     1      39.444  -9.248   6.480  1.00  0.00     0.009 C 
ENDBRANCH  10  11
ENDBRANCH   9  10
BRANCH   9  14
HETATM   14  C   UNL     1      41.596 -12.060   5.026  1.00  0.00     0.235 C 
HETATM   15  N   UNL     1      42.003 -12.500   6.270  1.00  0.00    -0.358 N 
HETATM   16  H   UNL     1      41.388 -13.210   6.664  1.00  0.00     0.162 HD
HETATM   17  O   UNL     1      42.336 -11.477   4.237  1.00  0.00    -0.272 OA
BRANCH  15  18
HETATM   18  C   UNL     1      43.410 -12.625   6.593  1.00  0.00     0.148 C 
BRANCH  18  19
HETATM   19  C   UNL     1      43.777 -11.770   7.804  1.00  0.00     0.186 C 
BRANCH  19  20
HETATM   20  O   UNL     1      45.180 -11.480   7.757  1.00  0.00    -0.394 OA
HETATM   21  C   UNL     1      45.650 -11.372   6.420  1.00  0.00     0.201 C 
ENDBRANCH  19  20
ENDBRANCH  18  19
ENDBRANCH  15  18
ENDBRANCH   9  14
ENDBRANCH   7   9
ENDBRANCH   1   7
BRANCH   3  22
HETATM   22  C   UNL     1      40.349 -13.816  -0.165  1.00  0.00     0.104 A 
HETATM   23  N   UNL     1      40.885 -12.595  -0.459  1.00  0.00    -0.257 NA
HETATM   24  C   UNL     1      40.637 -12.065  -1.675  1.00  0.00     0.117 A 
HETATM   25  C   UNL     1      39.874 -12.688  -2.646  1.00  0.00     0.019 A 
HETATM   26  C   UNL     1      39.327 -13.928  -2.351  1.00  0.00     0.004 A 
HETATM   27  C   UNL     1      39.563 -14.497  -1.101  1.00  0.00     0.036 A 
ENDBRANCH   3  22
BRANCH   5  28
HETATM   28  C   UNL     1      42.589 -17.198   2.626  1.00  0.00     0.434 C 
HETATM   29  F   UNL     1      42.076 -18.363   2.140  1.00  0.00    -0.165 F 
HETATM   30  F   UNL     1      43.788 -17.029   1.994  1.00  0.00    -0.165 F 
HETATM   31  F   UNL     1      42.905 -17.446   3.932  1.00  0.00    -0.165 F 
ENDBRANCH   5  28
TORSDOF 10
ENDMDL
