MODEL 1
REMARK VINA RESULT:      -8.8      0.000      0.000
REMARK  6 active torsions:
REMARK  status: ('A' for Active; 'I' for Inactive)
REMARK    1  A    between atoms: C_2  and  N_3 
REMARK    2  A    between atoms: C_2  and  C_25 
REMARK       I    between atoms: N_3  and  C_4 
REMARK    3  A    between atoms: C_4  and  C_5 
REMARK    4  A    between atoms: C_5  and  N_6 
REMARK    5  A    between atoms: C_10  and  N_11 
REMARK       I    between atoms: N_11  and  C_12 
REMARK       I    between atoms: C_12  and  N_13 
REMARK    6  A    between atoms: N_13  and  C_14 
ROOT
HETATM    1  N   UNL     1      44.240 -11.543   6.452  1.00  0.00    -0.063 N 
HETATM    2  H   UNL     1      43.566 -10.971   6.975  1.00  0.00     0.280 HD
HETATM    3  C   UNL     1      44.000 -11.279   4.979  1.00  0.00     0.237 C 
HETATM    4  C   UNL     1      42.547 -11.604   4.671  1.00  0.00     0.053 C 
HETATM    5  C   UNL     1      42.210 -13.069   4.987  1.00  0.00     0.089 C 
HETATM    6  C   UNL     1      42.518 -13.333   6.468  1.00  0.00     0.053 C 
HETATM    7  C   UNL     1      43.967 -12.987   6.809  1.00  0.00     0.237 C 
ENDROOT
BRANCH   1   8
HETATM    8  C   UNL     1      45.619 -11.055   6.914  1.00  0.00     0.337 C 
BRANCH   8   9
HETATM    9  C   UNL     1      45.634  -9.799   7.795  1.00  0.00     0.244 C 
HETATM   10  N   UNL     1      44.499  -9.618   8.549  1.00  0.00    -0.351 N 
HETATM   11  H   UNL     1      43.698 -10.233   8.464  1.00  0.00     0.163 HD
HETATM   12  O   UNL     1      46.592  -9.032   7.826  1.00  0.00    -0.272 OA
BRANCH  10  13
HETATM   13  C   UNL     1      44.312  -8.456   9.410  1.00  0.00     0.120 C 
HETATM   14  C   UNL     1      43.448  -7.393   8.734  1.00  0.00     0.038 C 
BRANCH  13  15
HETATM   15  C   UNL     1      43.709  -8.915  10.715  1.00  0.00     0.005 A 
HETATM   16  S   UNL     1      43.563 -10.585  11.106  1.00  0.00    -0.104 SA
HETATM   17  C   UNL     1      42.836 -10.241  12.612  1.00  0.00     0.050 A 
HETATM   18  C   UNL     1      42.694  -8.888  12.820  1.00  0.00     0.008 A 
HETATM   19  C   UNL     1      43.196  -8.123  11.727  1.00  0.00     0.017 A 
ENDBRANCH  13  15
ENDBRANCH  10  13
ENDBRANCH   8   9
ENDBRANCH   1   8
BRANCH   5  20
HETATM   20  N   UNL     1      42.858 -14.108   4.176  1.00  0.00    -0.338 N 
HETATM   21  C   UNL     1      42.572 -15.460   4.232  1.00  0.00     0.321 C 
HETATM   22  N   UNL     1      43.476 -16.180   3.481  1.00  0.00    -0.309 N 
HETATM   23  O   UNL     1      41.608 -15.906   4.834  1.00  0.00    -0.247 OA
HETATM   24  H   UNL     1      44.047 -15.653   2.837  1.00  0.00     0.170 HD
HETATM   25  H   UNL     1      43.845 -13.945   4.013  1.00  0.00     0.164 HD
BRANCH  22  26
HETATM   26  C   UNL     1      43.573 -17.584   3.377  1.00  0.00     0.036 A 
HETATM   27  C   UNL     1      43.128 -18.315   2.271  1.00  0.00     0.032 A 
HETATM   28  C   UNL     1      43.247 -19.708   2.249  1.00  0.00     0.044 A 
HETATM   29  C   UNL     1      43.808 -20.369   3.335  1.00  0.00     0.116 A 
HETATM   30  F   UNL     1      43.921 -21.702   3.313  1.00  0.00    -0.206 F 
HETATM   31  C   UNL     1      44.248 -19.662   4.446  1.00  0.00     0.044 A 
HETATM   32  C   UNL     1      44.129 -18.270   4.468  1.00  0.00     0.032 A 
ENDBRANCH  22  26
ENDBRANCH   5  20
TORSDOF 6
ENDMDL
MODEL 2
REMARK VINA RESULT:      -8.6      4.339     10.577
REMARK  6 active torsions:
REMARK  status: ('A' for Active; 'I' for Inactive)
REMARK    1  A    between atoms: C_2  and  N_3 
REMARK    2  A    between atoms: C_2  and  C_25 
REMARK       I    between atoms: N_3  and  C_4 
REMARK    3  A    between atoms: C_4  and  C_5 
REMARK    4  A    between atoms: C_5  and  N_6 
REMARK    5  A    between atoms: C_10  and  N_11 
REMARK       I    between atoms: N_11  and  C_12 
REMARK       I    between atoms: C_12  and  N_13 
REMARK    6  A    between atoms: N_13  and  C_14 
ROOT
HETATM    1  N   UNL     1      42.208 -13.110   5.649  1.00  0.00    -0.063 N 
HETATM    2  H   UNL     1      42.653 -12.935   4.741  1.00  0.00     0.280 HD
HETATM    3  C   UNL     1      41.601 -11.799   6.109  1.00  0.00     0.237 C 
HETATM    4  C   UNL     1      42.707 -10.758   6.156  1.00  0.00     0.053 C 
HETATM    5  C   UNL     1      43.832 -11.162   7.120  1.00  0.00     0.089 C 
HETATM    6  C   UNL     1      44.392 -12.521   6.675  1.00  0.00     0.053 C 
HETATM    7  C   UNL     1      43.294 -13.579   6.592  1.00  0.00     0.237 C 
ENDROOT
BRANCH   1   8
HETATM    8  C   UNL     1      41.144 -14.179   5.370  1.00  0.00     0.337 C 
BRANCH   8   9
HETATM    9  C   UNL     1      41.214 -14.866   4.000  1.00  0.00     0.244 C 
HETATM   10  N   UNL     1      42.266 -15.738   3.855  1.00  0.00    -0.351 N 
HETATM   11  H   UNL     1      42.969 -15.853   4.576  1.00  0.00     0.163 HD
HETATM   12  O   UNL     1      40.387 -14.655   3.118  1.00  0.00    -0.272 OA
BRANCH  10  13
HETATM   13  C   UNL     1      42.523 -16.448   2.607  1.00  0.00     0.120 C 
HETATM   14  C   UNL     1      43.459 -15.655   1.696  1.00  0.00     0.038 C 
BRANCH  13  15
HETATM   15  C   UNL     1      43.088 -17.809   2.934  1.00  0.00     0.005 A 
HETATM   16  S   UNL     1      43.881 -18.124   4.428  1.00  0.00    -0.104 SA
HETATM   17  C   UNL     1      44.186 -19.750   4.004  1.00  0.00     0.050 A 
HETATM   18  C   UNL     1      43.707 -20.055   2.750  1.00  0.00     0.008 A 
HETATM   19  C   UNL     1      43.075 -18.937   2.133  1.00  0.00     0.017 A 
ENDBRANCH  13  15
ENDBRANCH  10  13
ENDBRANCH   8   9
ENDBRANCH   1   8
BRANCH   5  20
HETATM   20  N   UNL     1      43.513 -11.229   8.552  1.00  0.00    -0.338 N 
HETATM   21  C   UNL     1      43.117 -10.158   9.334  1.00  0.00     0.321 C 
HETATM   22  N   UNL     1      43.071 -10.517  10.664  1.00  0.00    -0.309 N 
HETATM   23  O   UNL     1      42.809  -9.075   8.862  1.00  0.00    -0.247 OA
HETATM   24  H   UNL     1      43.096 -11.506  10.864  1.00  0.00     0.170 HD
HETATM   25  H   UNL     1      44.098 -11.871   9.073  1.00  0.00     0.164 HD
BRANCH  22  26
HETATM   26  C   UNL     1      42.813  -9.676  11.766  1.00  0.00     0.036 A 
HETATM   27  C   UNL     1      43.620  -8.590  12.123  1.00  0.00     0.032 A 
HETATM   28  C   UNL     1      43.304  -7.810  13.240  1.00  0.00     0.044 A 
HETATM   29  C   UNL     1      42.185  -8.121  14.002  1.00  0.00     0.116 A 
HETATM   30  F   UNL     1      41.884  -7.373  15.072  1.00  0.00    -0.206 F 
HETATM   31  C   UNL     1      41.377  -9.199  13.671  1.00  0.00     0.044 A 
HETATM   32  C   UNL     1      41.692  -9.978  12.554  1.00  0.00     0.032 A 
ENDBRANCH  22  26
ENDBRANCH   5  20
TORSDOF 6
ENDMDL
MODEL 3
REMARK VINA RESULT:      -8.0      4.148      9.483
REMARK  6 active torsions:
REMARK  status: ('A' for Active; 'I' for Inactive)
REMARK    1  A    between atoms: C_2  and  N_3 
REMARK    2  A    between atoms: C_2  and  C_25 
REMARK       I    between atoms: N_3  and  C_4 
REMARK    3  A    between atoms: C_4  and  C_5 
REMARK    4  A    between atoms: C_5  and  N_6 
REMARK    5  A    between atoms: C_10  and  N_11 
REMARK       I    between atoms: N_11  and  C_12 
REMARK       I    between atoms: C_12  and  N_13 
REMARK    6  A    between atoms: N_13  and  C_14 
ROOT
HETATM    1  N   UNL     1      40.904 -13.660   1.759  1.00  0.00    -0.063 N 
HETATM    2  H   UNL     1      40.409 -13.214   0.979  1.00  0.00     0.280 HD
HETATM    3  C   UNL     1      39.902 -13.832   2.884  1.00  0.00     0.237 C 
HETATM    4  C   UNL     1      39.328 -12.465   3.219  1.00  0.00     0.053 C 
HETATM    5  C   UNL     1      40.420 -11.480   3.659  1.00  0.00     0.089 C 
HETATM    6  C   UNL     1      41.460 -11.366   2.534  1.00  0.00     0.053 C 
HETATM    7  C   UNL     1      42.030 -12.733   2.158  1.00  0.00     0.237 C 
ENDROOT
BRANCH   1   8
HETATM    8  C   UNL     1      41.394 -15.003   1.204  1.00  0.00     0.337 C 
BRANCH   8   9
HETATM    9  C   UNL     1      42.652 -15.589   1.856  1.00  0.00     0.244 C 
HETATM   10  N   UNL     1      42.412 -16.357   2.970  1.00  0.00    -0.351 N 
HETATM   11  H   UNL     1      41.481 -16.459   3.358  1.00  0.00     0.163 HD
HETATM   12  O   UNL     1      43.776 -15.392   1.404  1.00  0.00    -0.272 OA
BRANCH  10  13
HETATM   13  C   UNL     1      43.488 -16.957   3.751  1.00  0.00     0.120 C 
HETATM   14  C   UNL     1      43.287 -16.726   5.247  1.00  0.00     0.038 C 
BRANCH  13  15
HETATM   15  C   UNL     1      43.561 -18.428   3.420  1.00  0.00     0.005 A 
HETATM   16  S   UNL     1      44.178 -19.577   4.543  1.00  0.00    -0.104 SA
HETATM   17  C   UNL     1      43.931 -20.873   3.459  1.00  0.00     0.050 A 
HETATM   18  C   UNL     1      43.400 -20.450   2.261  1.00  0.00     0.008 A 
HETATM   19  C   UNL     1      43.187 -19.042   2.238  1.00  0.00     0.017 A 
ENDBRANCH  13  15
ENDBRANCH  10  13
ENDBRANCH   8   9
ENDBRANCH   1   8
BRANCH   5  20
HETATM   20  N   UNL     1      41.119 -11.756   4.921  1.00  0.00    -0.338 N 
HETATM   21  C   UNL     1      41.909 -10.854   5.613  1.00  0.00     0.321 C 
HETATM   22  N   UNL     1      42.561 -11.477   6.654  1.00  0.00    -0.309 N 
HETATM   23  O   UNL     1      41.951  -9.666   5.334  1.00  0.00    -0.247 OA
HETATM   24  H   UNL     1      42.223 -12.391   6.914  1.00  0.00     0.170 HD
HETATM   25  H   UNL     1      41.488 -12.698   4.988  1.00  0.00     0.164 HD
BRANCH  22  26
HETATM   26  C   UNL     1      43.527 -10.914   7.515  1.00  0.00     0.036 A 
HETATM   27  C   UNL     1      44.902 -11.140   7.396  1.00  0.00     0.032 A 
HETATM   28  C   UNL     1      45.796 -10.555   8.298  1.00  0.00     0.044 A 
HETATM   29  C   UNL     1      45.313  -9.749   9.322  1.00  0.00     0.116 A 
HETATM   30  F   UNL     1      46.170  -9.190  10.185  1.00  0.00    -0.206 F 
HETATM   31  C   UNL     1      43.952  -9.519   9.463  1.00  0.00     0.044 A 
HETATM   32  C   UNL     1      43.058 -10.103   8.560  1.00  0.00     0.032 A 
ENDBRANCH  22  26
ENDBRANCH   5  20
TORSDOF 6
ENDMDL
MODEL 4
REMARK VINA RESULT:      -8.0      1.942      2.346
REMARK  6 active torsions:
REMARK  status: ('A' for Active; 'I' for Inactive)
REMARK    1  A    between atoms: C_2  and  N_3 
REMARK    2  A    between atoms: C_2  and  C_25 
REMARK       I    between atoms: N_3  and  C_4 
REMARK    3  A    between atoms: C_4  and  C_5 
REMARK    4  A    between atoms: C_5  and  N_6 
REMARK    5  A    between atoms: C_10  and  N_11 
REMARK       I    between atoms: N_11  and  C_12 
REMARK       I    between atoms: C_12  and  N_13 
REMARK    6  A    between atoms: N_13  and  C_14 
ROOT
HETATM    1  N   UNL     1      41.999 -11.191   5.511  1.00  0.00    -0.063 N 
HETATM    2  H   UNL     1      41.108 -10.681   5.497  1.00  0.00     0.280 HD
HETATM    3  C   UNL     1      42.568 -11.137   4.107  1.00  0.00     0.237 C 
HETATM    4  C   UNL     1      41.537 -11.725   3.157  1.00  0.00     0.053 C 
HETATM    5  C   UNL     1      41.197 -13.180   3.511  1.00  0.00     0.089 C 
HETATM    6  C   UNL     1      40.683 -13.224   4.958  1.00  0.00     0.053 C 
HETATM    7  C   UNL     1      41.690 -12.612   5.929  1.00  0.00     0.237 C 
ENDROOT
BRANCH   1   8
HETATM    8  C   UNL     1      42.872 -10.438   6.523  1.00  0.00     0.337 C 
BRANCH   8   9
HETATM    9  C   UNL     1      42.161  -9.385   7.382  1.00  0.00     0.244 C 
HETATM   10  N   UNL     1      41.681  -9.858   8.580  1.00  0.00    -0.351 N 
HETATM   11  H   UNL     1      41.737 -10.839   8.828  1.00  0.00     0.163 HD
HETATM   12  O   UNL     1      42.047  -8.217   7.025  1.00  0.00    -0.272 OA
BRANCH  10  13
HETATM   13  C   UNL     1      40.935  -9.016   9.508  1.00  0.00     0.120 C 
HETATM   14  C   UNL     1      39.508  -9.525   9.701  1.00  0.00     0.038 C 
BRANCH  13  15
HETATM   15  C   UNL     1      41.686  -8.957  10.816  1.00  0.00     0.005 A 
HETATM   16  S   UNL     1      41.079  -9.706  12.241  1.00  0.00    -0.104 SA
HETATM   17  C   UNL     1      42.419  -9.192  13.166  1.00  0.00     0.050 A 
HETATM   18  C   UNL     1      43.311  -8.457  12.419  1.00  0.00     0.008 A 
HETATM   19  C   UNL     1      42.889  -8.321  11.064  1.00  0.00     0.017 A 
ENDBRANCH  13  15
ENDBRANCH  10  13
ENDBRANCH   8   9
ENDBRANCH   1   8
BRANCH   5  20
HETATM   20  N   UNL     1      42.258 -14.184   3.356  1.00  0.00    -0.338 N 
HETATM   21  C   UNL     1      42.064 -15.554   3.330  1.00  0.00     0.321 C 
HETATM   22  N   UNL     1      43.272 -16.217   3.354  1.00  0.00    -0.309 N 
HETATM   23  O   UNL     1      40.957 -16.062   3.243  1.00  0.00    -0.247 OA
HETATM   24  H   UNL     1      44.093 -15.663   3.159  1.00  0.00     0.170 HD
HETATM   25  H   UNL     1      43.124 -13.942   3.823  1.00  0.00     0.164 HD
BRANCH  22  26
HETATM   26  C   UNL     1      43.480 -17.609   3.442  1.00  0.00     0.036 A 
HETATM   27  C   UNL     1      43.976 -18.252   4.580  1.00  0.00     0.032 A 
HETATM   28  C   UNL     1      44.167 -19.637   4.584  1.00  0.00     0.044 A 
HETATM   29  C   UNL     1      43.865 -20.378   3.448  1.00  0.00     0.116 A 
HETATM   30  F   UNL     1      44.049 -21.704   3.454  1.00  0.00    -0.206 F 
HETATM   31  C   UNL     1      43.380 -19.758   2.305  1.00  0.00     0.044 A 
HETATM   32  C   UNL     1      43.188 -18.374   2.301  1.00  0.00     0.032 A 
ENDBRANCH  22  26
ENDBRANCH   5  20
TORSDOF 6
ENDMDL
MODEL 5
REMARK VINA RESULT:      -7.8      5.378      8.436
REMARK  6 active torsions:
REMARK  status: ('A' for Active; 'I' for Inactive)
REMARK    1  A    between atoms: C_2  and  N_3 
REMARK    2  A    between atoms: C_2  and  C_25 
REMARK       I    between atoms: N_3  and  C_4 
REMARK    3  A    between atoms: C_4  and  C_5 
REMARK    4  A    between atoms: C_5  and  N_6 
REMARK    5  A    between atoms: C_10  and  N_11 
REMARK       I    between atoms: N_11  and  C_12 
REMARK       I    between atoms: C_12  and  N_13 
REMARK    6  A    between atoms: N_13  and  C_14 
ROOT
HETATM    1  N   UNL     1      41.109 -10.968   2.445  1.00  0.00    -0.063 N 
HETATM    2  H   UNL     1      40.439 -10.429   3.005  1.00  0.00     0.280 HD
HETATM    3  C   UNL     1      40.427 -12.267   2.062  1.00  0.00     0.237 C 
HETATM    4  C   UNL     1      39.990 -12.965   3.339  1.00  0.00     0.053 C 
HETATM    5  C   UNL     1      41.181 -13.270   4.260  1.00  0.00     0.089 C 
HETATM    6  C   UNL     1      41.896 -11.950   4.586  1.00  0.00     0.053 C 
HETATM    7  C   UNL     1      42.320 -11.214   3.316  1.00  0.00     0.237 C 
ENDROOT
BRANCH   1   8
HETATM    8  C   UNL     1      41.408 -10.086   1.226  1.00  0.00     0.337 C 
BRANCH   8   9
HETATM    9  C   UNL     1      40.356 -10.091   0.110  1.00  0.00     0.244 C 
HETATM   10  N   UNL     1      40.815 -10.547  -1.103  1.00  0.00    -0.351 N 
HETATM   11  H   UNL     1      41.789 -10.788  -1.249  1.00  0.00     0.163 HD
HETATM   12  O   UNL     1      39.199  -9.728   0.298  1.00  0.00    -0.272 OA
BRANCH  10  13
HETATM   13  C   UNL     1      39.973 -10.579  -2.293  1.00  0.00     0.120 C 
HETATM   14  C   UNL     1      40.722 -10.064  -3.521  1.00  0.00     0.038 C 
BRANCH  13  15
HETATM   15  C   UNL     1      39.479 -11.991  -2.496  1.00  0.00     0.005 A 
HETATM   16  S   UNL     1      37.799 -12.360  -2.556  1.00  0.00    -0.104 SA
HETATM   17  C   UNL     1      38.102 -14.026  -2.782  1.00  0.00     0.050 A 
HETATM   18  C   UNL     1      39.450 -14.307  -2.804  1.00  0.00     0.008 A 
HETATM   19  C   UNL     1      40.243 -13.135  -2.639  1.00  0.00     0.017 A 
ENDBRANCH  13  15
ENDBRANCH  10  13
ENDBRANCH   8   9
ENDBRANCH   1   8
BRANCH   5  20
HETATM   20  N   UNL     1      42.175 -14.243   3.790  1.00  0.00    -0.338 N 
HETATM   21  C   UNL     1      41.990 -15.613   3.737  1.00  0.00     0.321 C 
HETATM   22  N   UNL     1      43.170 -16.252   3.422  1.00  0.00    -0.309 N 
HETATM   23  O   UNL     1      40.900 -16.138   3.902  1.00  0.00    -0.247 OA
HETATM   24  H   UNL     1      43.912 -15.672   3.060  1.00  0.00     0.170 HD
HETATM   25  H   UNL     1      43.129 -14.008   4.039  1.00  0.00     0.164 HD
BRANCH  22  26
HETATM   26  C   UNL     1      43.402 -17.643   3.379  1.00  0.00     0.036 A 
HETATM   27  C   UNL     1      43.105 -18.447   2.274  1.00  0.00     0.032 A 
HETATM   28  C   UNL     1      43.354 -19.823   2.314  1.00  0.00     0.044 A 
HETATM   29  C   UNL     1      43.895 -20.393   3.460  1.00  0.00     0.116 A 
HETATM   30  F   UNL     1      44.132 -21.710   3.496  1.00  0.00    -0.206 F 
HETATM   31  C   UNL     1      44.189 -19.613   4.569  1.00  0.00     0.044 A 
HETATM   32  C   UNL     1      43.941 -18.238   4.530  1.00  0.00     0.032 A 
ENDBRANCH  22  26
ENDBRANCH   5  20
TORSDOF 6
ENDMDL
MODEL 6
REMARK VINA RESULT:      -7.8      4.252      7.048
REMARK  6 active torsions:
REMARK  status: ('A' for Active; 'I' for Inactive)
REMARK    1  A    between atoms: C_2  and  N_3 
REMARK    2  A    between atoms: C_2  and  C_25 
REMARK       I    between atoms: N_3  and  C_4 
REMARK    3  A    between atoms: C_4  and  C_5 
REMARK    4  A    between atoms: C_5  and  N_6 
REMARK    5  A    between atoms: C_10  and  N_11 
REMARK       I    between atoms: N_11  and  C_12 
REMARK       I    between atoms: C_12  and  N_13 
REMARK    6  A    between atoms: N_13  and  C_14 
ROOT
HETATM    1  N   UNL     1      41.386 -10.321   4.332  1.00  0.00    -0.063 N 
HETATM    2  H   UNL     1      41.370  -9.753   5.187  1.00  0.00     0.280 HD
HETATM    3  C   UNL     1      40.529 -11.544   4.594  1.00  0.00     0.237 C 
HETATM    4  C   UNL     1      41.082 -12.256   5.817  1.00  0.00     0.053 C 
HETATM    5  C   UNL     1      42.540 -12.692   5.613  1.00  0.00     0.089 C 
HETATM    6  C   UNL     1      43.382 -11.449   5.288  1.00  0.00     0.053 C 
HETATM    7  C   UNL     1      42.828 -10.699   4.077  1.00  0.00     0.237 C 
ENDROOT
BRANCH   1   8
HETATM    8  C   UNL     1      40.795  -9.418   3.243  1.00  0.00     0.337 C 
BRANCH   8   9
HETATM    9  C   UNL     1      40.096 -10.128   2.077  1.00  0.00     0.244 C 
HETATM   10  N   UNL     1      40.944 -10.573   1.091  1.00  0.00    -0.351 N 
HETATM   11  H   UNL     1      41.938 -10.377   1.113  1.00  0.00     0.163 HD
HETATM   12  O   UNL     1      38.880 -10.291   2.043  1.00  0.00    -0.272 OA
BRANCH  10  13
HETATM   13  C   UNL     1      40.459 -11.229  -0.117  1.00  0.00     0.120 C 
HETATM   14  C   UNL     1      41.305 -10.857  -1.333  1.00  0.00     0.038 C 
BRANCH  13  15
HETATM   15  C   UNL     1      40.445 -12.721   0.115  1.00  0.00     0.005 A 
HETATM   16  S   UNL     1      41.507 -13.469   1.244  1.00  0.00    -0.104 SA
HETATM   17  C   UNL     1      40.888 -15.024   0.901  1.00  0.00     0.050 A 
HETATM   18  C   UNL     1      39.901 -14.987  -0.058  1.00  0.00     0.008 A 
HETATM   19  C   UNL     1      39.646 -13.660  -0.511  1.00  0.00     0.017 A 
ENDBRANCH  13  15
ENDBRANCH  10  13
ENDBRANCH   8   9
ENDBRANCH   1   8
BRANCH   5  20
HETATM   20  N   UNL     1      42.809 -13.723   4.602  1.00  0.00    -0.338 N 
HETATM   21  C   UNL     1      42.773 -15.089   4.822  1.00  0.00     0.321 C 
HETATM   22  N   UNL     1      43.247 -15.772   3.723  1.00  0.00    -0.309 N 
HETATM   23  O   UNL     1      42.324 -15.580   5.846  1.00  0.00    -0.247 OA
HETATM   24  H   UNL     1      43.330 -15.244   2.867  1.00  0.00     0.170 HD
HETATM   25  H   UNL     1      43.541 -13.473   3.946  1.00  0.00     0.164 HD
BRANCH  22  26
HETATM   26  C   UNL     1      43.459 -17.161   3.608  1.00  0.00     0.036 A 
HETATM   27  C   UNL     1      44.113 -17.932   4.575  1.00  0.00     0.032 A 
HETATM   28  C   UNL     1      44.296 -19.304   4.381  1.00  0.00     0.044 A 
HETATM   29  C   UNL     1      43.830 -19.904   3.218  1.00  0.00     0.116 A 
HETATM   30  F   UNL     1      44.007 -21.218   3.034  1.00  0.00    -0.206 F 
HETATM   31  C   UNL     1      43.187 -19.156   2.242  1.00  0.00     0.044 A 
HETATM   32  C   UNL     1      43.003 -17.784   2.436  1.00  0.00     0.032 A 
ENDBRANCH  22  26
ENDBRANCH   5  20
TORSDOF 6
ENDMDL
MODEL 7
REMARK VINA RESULT:      -7.7      2.305      3.052
REMARK  6 active torsions:
REMARK  status: ('A' for Active; 'I' for Inactive)
REMARK    1  A    between atoms: C_2  and  N_3 
REMARK    2  A    between atoms: C_2  and  C_25 
REMARK       I    between atoms: N_3  and  C_4 
REMARK    3  A    between atoms: C_4  and  C_5 
REMARK    4  A    between atoms: C_5  and  N_6 
REMARK    5  A    between atoms: C_10  and  N_11 
REMARK       I    between atoms: N_11  and  C_12 
REMARK       I    between atoms: C_12  and  N_13 
REMARK    6  A    between atoms: N_13  and  C_14 
ROOT
HETATM    1  N   UNL     1      40.709 -10.997   4.952  1.00  0.00    -0.063 N 
HETATM    2  H   UNL     1      40.576 -10.217   4.300  1.00  0.00     0.280 HD
HETATM    3  C   UNL     1      42.190 -11.065   5.271  1.00  0.00     0.237 C 
HETATM    4  C   UNL     1      42.947 -11.221   3.962  1.00  0.00     0.053 C 
HETATM    5  C   UNL     1      42.531 -12.492   3.209  1.00  0.00     0.089 C 
HETATM    6  C   UNL     1      41.018 -12.435   2.951  1.00  0.00     0.053 C 
HETATM    7  C   UNL     1      40.235 -12.250   4.250  1.00  0.00     0.237 C 
ENDROOT
BRANCH   1   8
HETATM    8  C   UNL     1      39.865 -10.636   6.182  1.00  0.00     0.337 C 
BRANCH   8   9
HETATM    9  C   UNL     1      40.431  -9.542   7.095  1.00  0.00     0.244 C 
HETATM   10  N   UNL     1      40.966 -10.004   8.274  1.00  0.00    -0.351 N 
HETATM   11  H   UNL     1      40.919 -10.983   8.534  1.00  0.00     0.163 HD
HETATM   12  O   UNL     1      40.412  -8.355   6.785  1.00  0.00    -0.272 OA
BRANCH  10  13
HETATM   13  C   UNL     1      41.507  -9.109   9.289  1.00  0.00     0.120 C 
HETATM   14  C   UNL     1      40.783  -9.275  10.624  1.00  0.00     0.038 C 
BRANCH  13  15
HETATM   15  C   UNL     1      42.987  -9.370   9.424  1.00  0.00     0.005 A 
HETATM   16  S   UNL     1      43.679  -9.909  10.905  1.00  0.00    -0.104 SA
HETATM   17  C   UNL     1      45.252  -9.940  10.240  1.00  0.00     0.050 A 
HETATM   18  C   UNL     1      45.263  -9.542   8.923  1.00  0.00     0.008 A 
HETATM   19  C   UNL     1      43.959  -9.213   8.452  1.00  0.00     0.017 A 
ENDBRANCH  13  15
ENDBRANCH  10  13
ENDBRANCH   8   9
ENDBRANCH   1   8
BRANCH   5  20
HETATM   20  N   UNL     1      42.858 -13.786   3.823  1.00  0.00    -0.338 N 
HETATM   21  C   UNL     1      43.166 -14.945   3.132  1.00  0.00     0.321 C 
HETATM   22  N   UNL     1      43.244 -16.018   3.991  1.00  0.00    -0.309 N 
HETATM   23  O   UNL     1      43.384 -14.957   1.930  1.00  0.00    -0.247 OA
HETATM   24  H   UNL     1      43.299 -15.803   4.976  1.00  0.00     0.170 HD
HETATM   25  H   UNL     1      42.327 -13.987   4.662  1.00  0.00     0.164 HD
BRANCH  22  26
HETATM   26  C   UNL     1      43.434 -17.374   3.649  1.00  0.00     0.036 A 
HETATM   27  C   UNL     1      42.992 -17.944   2.451  1.00  0.00     0.032 A 
HETATM   28  C   UNL     1      43.208 -19.301   2.191  1.00  0.00     0.044 A 
HETATM   29  C   UNL     1      43.862 -20.087   3.132  1.00  0.00     0.116 A 
HETATM   30  F   UNL     1      44.067 -21.386   2.881  1.00  0.00    -0.206 F 
HETATM   31  C   UNL     1      44.300 -19.543   4.330  1.00  0.00     0.044 A 
HETATM   32  C   UNL     1      44.085 -18.186   4.590  1.00  0.00     0.032 A 
ENDBRANCH  22  26
ENDBRANCH   5  20
TORSDOF 6
ENDMDL
MODEL 8
REMARK VINA RESULT:      -7.7      4.761     10.263
REMARK  6 active torsions:
REMARK  status: ('A' for Active; 'I' for Inactive)
REMARK    1  A    between atoms: C_2  and  N_3 
REMARK    2  A    between atoms: C_2  and  C_25 
REMARK       I    between atoms: N_3  and  C_4 
REMARK    3  A    between atoms: C_4  and  C_5 
REMARK    4  A    between atoms: C_5  and  N_6 
REMARK    5  A    between atoms: C_10  and  N_11 
REMARK       I    between atoms: N_11  and  C_12 
REMARK       I    between atoms: C_12  and  N_13 
REMARK    6  A    between atoms: N_13  and  C_14 
ROOT
HETATM    1  N   UNL     1      41.057 -11.285   4.860  1.00  0.00    -0.063 N 
HETATM    2  H   UNL     1      40.422 -10.883   4.160  1.00  0.00     0.280 HD
HETATM    3  C   UNL     1      40.196 -11.993   5.888  1.00  0.00     0.237 C 
HETATM    4  C   UNL     1      39.212 -10.984   6.456  1.00  0.00     0.053 C 
HETATM    5  C   UNL     1      39.928  -9.800   7.123  1.00  0.00     0.089 C 
HETATM    6  C   UNL     1      40.842  -9.134   6.084  1.00  0.00     0.053 C 
HETATM    7  C   UNL     1      41.823 -10.135   5.476  1.00  0.00     0.237 C 
ENDROOT
BRANCH   1   8
HETATM    8  C   UNL     1      41.948 -12.257   4.078  1.00  0.00     0.337 C 
BRANCH   8   9
HETATM    9  C   UNL     1      42.695 -13.310   4.906  1.00  0.00     0.244 C 
HETATM   10  N   UNL     1      42.319 -14.607   4.650  1.00  0.00    -0.351 N 
HETATM   11  H   UNL     1      41.560 -14.828   4.015  1.00  0.00     0.163 HD
HETATM   12  O   UNL     1      43.563 -13.009   5.720  1.00  0.00    -0.272 OA
BRANCH  10  13
HETATM   13  C   UNL     1      42.884 -15.740   5.373  1.00  0.00     0.120 C 
HETATM   14  C   UNL     1      41.956 -16.205   6.494  1.00  0.00     0.038 C 
BRANCH  13  15
HETATM   15  C   UNL     1      43.166 -16.849   4.389  1.00  0.00     0.005 A 
HETATM   16  S   UNL     1      44.009 -18.276   4.852  1.00  0.00    -0.104 SA
HETATM   17  C   UNL     1      43.910 -18.930   3.278  1.00  0.00     0.050 A 
HETATM   18  C   UNL     1      43.260 -18.084   2.408  1.00  0.00     0.008 A 
HETATM   19  C   UNL     1      42.831 -16.885   3.047  1.00  0.00     0.017 A 
ENDBRANCH  13  15
ENDBRANCH  10  13
ENDBRANCH   8   9
ENDBRANCH   1   8
BRANCH   5  20
HETATM   20  N   UNL     1      40.710 -10.072   8.336  1.00  0.00    -0.338 N 
HETATM   21  C   UNL     1      40.629  -9.356   9.517  1.00  0.00     0.321 C 
HETATM   22  N   UNL     1      41.617  -9.748  10.393  1.00  0.00    -0.309 N 
HETATM   23  O   UNL     1      39.751  -8.534   9.731  1.00  0.00    -0.247 OA
HETATM   24  H   UNL     1      42.094 -10.611  10.176  1.00  0.00     0.170 HD
HETATM   25  H   UNL     1      41.660 -10.375   8.152  1.00  0.00     0.164 HD
BRANCH  22  26
HETATM   26  C   UNL     1      41.920  -9.180  11.649  1.00  0.00     0.036 A 
HETATM   27  C   UNL     1      42.971  -8.284  11.865  1.00  0.00     0.032 A 
HETATM   28  C   UNL     1      43.215  -7.775  13.144  1.00  0.00     0.044 A 
HETATM   29  C   UNL     1      42.409  -8.166  14.207  1.00  0.00     0.116 A 
HETATM   30  F   UNL     1      42.644  -7.678  15.431  1.00  0.00    -0.206 F 
HETATM   31  C   UNL     1      41.367  -9.061  14.015  1.00  0.00     0.044 A 
HETATM   32  C   UNL     1      41.122  -9.570  12.736  1.00  0.00     0.032 A 
ENDBRANCH  22  26
ENDBRANCH   5  20
TORSDOF 6
ENDMDL
MODEL 9
REMARK VINA RESULT:      -7.6      3.530      5.368
REMARK  6 active torsions:
REMARK  status: ('A' for Active; 'I' for Inactive)
REMARK    1  A    between atoms: C_2  and  N_3 
REMARK    2  A    between atoms: C_2  and  C_25 
REMARK       I    between atoms: N_3  and  C_4 
REMARK    3  A    between atoms: C_4  and  C_5 
REMARK    4  A    between atoms: C_5  and  N_6 
REMARK    5  A    between atoms: C_10  and  N_11 
REMARK       I    between atoms: N_11  and  C_12 
REMARK       I    between atoms: C_12  and  N_13 
REMARK    6  A    between atoms: N_13  and  C_14 
ROOT
HETATM    1  N   UNL     1      43.610  -9.005  10.777  1.00  0.00    -0.063 N 
HETATM    2  H   UNL     1      43.945  -8.054  10.589  1.00  0.00     0.280 HD
HETATM    3  C   UNL     1      44.783  -9.942  10.562  1.00  0.00     0.237 C 
HETATM    4  C   UNL     1      45.296  -9.738   9.146  1.00  0.00     0.053 C 
HETATM    5  C   UNL     1      44.213 -10.032   8.098  1.00  0.00     0.089 C 
HETATM    6  C   UNL     1      43.009  -9.118   8.370  1.00  0.00     0.053 C 
HETATM    7  C   UNL     1      42.492  -9.284   9.798  1.00  0.00     0.237 C 
ENDROOT
BRANCH   1   8
HETATM    8  C   UNL     1      43.143  -8.982  12.238  1.00  0.00     0.337 C 
BRANCH   8   9
HETATM    9  C   UNL     1      42.349  -7.745  12.677  1.00  0.00     0.244 C 
HETATM   10  N   UNL     1      41.353  -8.003  13.589  1.00  0.00    -0.351 N 
HETATM   11  H   UNL     1      41.128  -8.947  13.882  1.00  0.00     0.163 HD
HETATM   12  O   UNL     1      42.597  -6.621  12.252  1.00  0.00    -0.272 OA
BRANCH  10  13
HETATM   13  C   UNL     1      40.462  -6.961  14.085  1.00  0.00     0.120 C 
HETATM   14  C   UNL     1      39.056  -7.105  13.505  1.00  0.00     0.038 C 
BRANCH  13  15
HETATM   15  C   UNL     1      40.449  -7.016  15.594  1.00  0.00     0.005 A 
HETATM   16  S   UNL     1      39.445  -5.975  16.527  1.00  0.00    -0.104 SA
HETATM   17  C   UNL     1      40.008  -6.637  17.998  1.00  0.00     0.050 A 
HETATM   18  C   UNL     1      40.948  -7.622  17.794  1.00  0.00     0.008 A 
HETATM   19  C   UNL     1      41.202  -7.841  16.410  1.00  0.00     0.017 A 
ENDBRANCH  13  15
ENDBRANCH  10  13
ENDBRANCH   8   9
ENDBRANCH   1   8
BRANCH   5  20
HETATM   20  N   UNL     1      43.739 -11.417   7.977  1.00  0.00    -0.338 N 
HETATM   21  C   UNL     1      44.171 -12.332   7.033  1.00  0.00     0.321 C 
HETATM   22  N   UNL     1      43.404 -13.475   7.076  1.00  0.00    -0.309 N 
HETATM   23  O   UNL     1      45.140 -12.131   6.317  1.00  0.00    -0.247 OA
HETATM   24  H   UNL     1      42.818 -13.594   7.889  1.00  0.00     0.170 HD
HETATM   25  H   UNL     1      42.752 -11.531   8.177  1.00  0.00     0.164 HD
BRANCH  22  26
HETATM   26  C   UNL     1      43.473 -14.582   6.204  1.00  0.00     0.036 A 
HETATM   27  C   UNL     1      42.882 -14.613   4.937  1.00  0.00     0.032 A 
HETATM   28  C   UNL     1      42.985 -15.755   4.137  1.00  0.00     0.044 A 
HETATM   29  C   UNL     1      43.673 -16.867   4.607  1.00  0.00     0.116 A 
HETATM   30  F   UNL     1      43.769 -17.959   3.839  1.00  0.00    -0.206 F 
HETATM   31  C   UNL     1      44.258 -16.859   5.865  1.00  0.00     0.044 A 
HETATM   32  C   UNL     1      44.157 -15.717   6.665  1.00  0.00     0.032 A 
ENDBRANCH  22  26
ENDBRANCH   5  20
TORSDOF 6
ENDMDL
MODEL 10
REMARK VINA RESULT:      -7.5      4.484      5.303
REMARK  6 active torsions:
REMARK  status: ('A' for Active; 'I' for Inactive)
REMARK    1  A    between atoms: C_2  and  N_3 
REMARK    2  A    between atoms: C_2  and  C_25 
REMARK       I    between atoms: N_3  and  C_4 
REMARK    3  A    between atoms: C_4  and  C_5 
REMARK    4  A    between atoms: C_5  and  N_6 
REMARK    5  A    between atoms: C_10  and  N_11 
REMARK       I    between atoms: N_11  and  C_12 
REMARK       I    between atoms: C_12  and  N_13 
REMARK    6  A    between atoms: N_13  and  C_14 
ROOT
HETATM    1  N   UNL     1      42.459 -12.384   6.082  1.00  0.00    -0.063 N 
HETATM    2  H   UNL     1      42.701 -13.081   6.796  1.00  0.00     0.280 HD
HETATM    3  C   UNL     1      40.964 -12.488   5.847  1.00  0.00     0.237 C 
HETATM    4  C   UNL     1      40.648 -13.919   5.443  1.00  0.00     0.053 C 
HETATM    5  C   UNL     1      41.393 -14.330   4.165  1.00  0.00     0.089 C 
HETATM    6  C   UNL     1      42.901 -14.158   4.401  1.00  0.00     0.053 C 
HETATM    7  C   UNL     1      43.241 -12.734   4.836  1.00  0.00     0.237 C 
ENDROOT
BRANCH   1   8
HETATM    8  C   UNL     1      42.860 -11.035   6.691  1.00  0.00     0.337 C 
BRANCH   8   9
HETATM    9  C   UNL     1      43.815 -11.089   7.890  1.00  0.00     0.244 C 
HETATM   10  N   UNL     1      43.397 -10.366   8.982  1.00  0.00    -0.351 N 
HETATM   11  H   UNL     1      42.562  -9.793   8.956  1.00  0.00     0.163 HD
HETATM   12  O   UNL     1      44.857 -11.736   7.870  1.00  0.00    -0.272 OA
BRANCH  10  13
HETATM   13  C   UNL     1      44.196 -10.259  10.198  1.00  0.00     0.120 C 
HETATM   14  C   UNL     1      45.439  -9.401   9.976  1.00  0.00     0.038 C 
BRANCH  13  15
HETATM   15  C   UNL     1      43.326  -9.703  11.299  1.00  0.00     0.005 A 
HETATM   16  S   UNL     1      42.777  -8.072  11.280  1.00  0.00    -0.104 SA
HETATM   17  C   UNL     1      41.943  -8.262  12.758  1.00  0.00     0.050 A 
HETATM   18  C   UNL     1      42.081  -9.533  13.269  1.00  0.00     0.008 A 
HETATM   19  C   UNL     1      42.878 -10.363  12.429  1.00  0.00     0.017 A 
ENDBRANCH  13  15
ENDBRANCH  10  13
ENDBRANCH   8   9
ENDBRANCH   1   8
BRANCH   5  20
HETATM   20  N   UNL     1      41.029 -13.649   2.915  1.00  0.00    -0.338 N 
HETATM   21  C   UNL     1      40.136 -14.128   1.973  1.00  0.00     0.321 C 
HETATM   22  N   UNL     1      40.155 -13.344   0.841  1.00  0.00    -0.309 N 
HETATM   23  O   UNL     1      39.410 -15.088   2.182  1.00  0.00    -0.247 OA
HETATM   24  H   UNL     1      40.607 -12.445   0.923  1.00  0.00     0.170 HD
HETATM   25  H   UNL     1      41.800 -13.157   2.477  1.00  0.00     0.164 HD
BRANCH  22  26
HETATM   26  C   UNL     1      39.463 -13.572  -0.367  1.00  0.00     0.036 A 
HETATM   27  C   UNL     1      39.669 -14.689  -1.183  1.00  0.00     0.032 A 
HETATM   28  C   UNL     1      38.952 -14.836  -2.374  1.00  0.00     0.044 A 
HETATM   29  C   UNL     1      38.033 -13.865  -2.751  1.00  0.00     0.116 A 
HETATM   30  F   UNL     1      37.347 -14.008  -3.891  1.00  0.00    -0.206 F 
HETATM   31  C   UNL     1      37.820 -12.745  -1.959  1.00  0.00     0.044 A 
HETATM   32  C   UNL     1      38.536 -12.597  -0.768  1.00  0.00     0.032 A 
ENDBRANCH  22  26
ENDBRANCH   5  20
TORSDOF 6
ENDMDL
