MODEL 1
REMARK VINA RESULT:      -9.8      0.000      0.000
REMARK  8 active torsions:
REMARK  status: ('A' for Active; 'I' for Inactive)
REMARK    1  A    between atoms: C_4  and  C_5 
REMARK    2  A    between atoms: C_5  and  N_6 
REMARK    3  A    between atoms: N_10  and  C_11 
REMARK    4  A    between atoms: C_13  and  N_14 
REMARK    5  A    between atoms: N_17  and  C_19 
REMARK    6  A    between atoms: C_19  and  C_20 
REMARK    7  A    between atoms: C_29  and  N_30 
REMARK    8  A    between atoms: C_31  and  N_32 
ROOT
HETATM    1  C   UNL     1      41.875 -11.919   5.733  1.00  0.00     0.181 A 
HETATM    2  N   UNL     1      42.466 -10.884   6.378  1.00  0.00    -0.042 NA
HETATM    3  C   UNL     1      41.750 -10.010   7.103  1.00  0.00     0.728 A 
HETATM    4  N   UNL     1      40.422 -10.064   7.197  1.00  0.00    -0.048 NA
HETATM    5  C   UNL     1      39.793 -11.066   6.563  1.00  0.00     0.157 A 
HETATM    6  C   UNL     1      40.494 -11.994   5.810  1.00  0.00     0.189 A 
ENDROOT
BRANCH   1   7
HETATM    7  N   UNL     1      42.753 -12.769   5.084  1.00  0.00    -0.360 N 
HETATM    8  C   UNL     1      43.289 -12.663   3.711  1.00  0.00     0.152 C 
HETATM    9  C   UNL     1      42.740 -13.802   2.812  1.00  0.00     0.255 C 
HETATM   10  N   UNL     1      43.025 -15.161   3.462  1.00  0.00    -0.064 N 
HETATM   11  H   UNL     1      44.048 -15.222   3.536  1.00  0.00     0.280 HD
HETATM   12  C   UNL     1      42.513 -15.230   4.897  1.00  0.00     0.255 C 
HETATM   13  C   UNL     1      43.082 -14.060   5.735  1.00  0.00     0.152 C 
BRANCH  10  14
HETATM   14  C   UNL     1      42.641 -16.359   2.612  1.00  0.00     0.273 C 
BRANCH  14  15
HETATM   15  C   UNL     1      43.129 -17.721   3.033  1.00  0.00    -0.033 A 
HETATM   16  C   UNL     1      43.003 -18.799   2.140  1.00  0.00     0.009 A 
HETATM   17  C   UNL     1      43.480 -20.069   2.475  1.00  0.00     0.001 A 
HETATM   18  C   UNL     1      44.085 -20.282   3.708  1.00  0.00     0.000 A 
HETATM   19  C   UNL     1      44.230 -19.224   4.600  1.00  0.00     0.001 A 
HETATM   20  C   UNL     1      43.769 -17.949   4.261  1.00  0.00     0.009 A 
ENDBRANCH  14  15
ENDBRANCH  10  14
ENDBRANCH   1   7
BRANCH   6  21
HETATM   21  N   UNL     1      39.763 -13.076   5.250  1.00  0.00    -0.108 N 
HETATM   22  O   UNL     1      39.449 -12.975   4.057  1.00  0.00    -0.532 OA
HETATM   23  O   UNL     1      39.440 -14.001   6.004  1.00  0.00    -0.532 OA
ENDBRANCH   6  21
BRANCH   3  24
HETATM   24  N   UNL     1      42.443  -9.037   7.816  1.00  0.00    -0.211 N 
HETATM   25  C   UNL     1      43.807  -9.391   8.241  1.00  0.00     0.169 C 
HETATM   26  C   UNL     1      43.823 -10.144   9.587  1.00  0.00     0.255 C 
HETATM   27  N   UNL     1      43.055  -9.336  10.637  1.00  0.00    -0.064 N 
HETATM   28  H   UNL     1      43.528  -8.427  10.711  1.00  0.00     0.280 HD
HETATM   29  C   UNL     1      41.624  -9.074  10.173  1.00  0.00     0.255 C 
HETATM   30  C   UNL     1      41.630  -8.330   8.815  1.00  0.00     0.169 C 
BRANCH  27  31
HETATM   31  C   UNL     1      43.116  -9.952  12.015  1.00  0.00     0.273 C 
BRANCH  31  32
HETATM   32  C   UNL     1      42.742  -8.975  13.097  1.00  0.00    -0.033 A 
HETATM   33  C   UNL     1      43.442  -7.767  13.241  1.00  0.00     0.009 A 
HETATM   34  C   UNL     1      43.125  -6.883  14.273  1.00  0.00     0.001 A 
HETATM   35  C   UNL     1      42.104  -7.193  15.168  1.00  0.00     0.000 A 
HETATM   36  C   UNL     1      41.392  -8.382  15.028  1.00  0.00     0.001 A 
HETATM   37  C   UNL     1      41.708  -9.271  13.999  1.00  0.00     0.009 A 
ENDBRANCH  31  32
ENDBRANCH  27  31
ENDBRANCH   3  24
BRANCH   5  38
HETATM   38  N   UNL     1      38.409 -11.041   6.690  1.00  0.00    -0.284 NA
HETATM   39  H   UNL     1      37.970 -10.719   5.832  1.00  0.00     0.125 HD
HETATM   40  H   UNL     1      38.041 -10.539   7.495  1.00  0.00     0.125 HD
ENDBRANCH   5  38
TORSDOF 8
ENDMDL
MODEL 2
REMARK VINA RESULT:      -9.4      5.014      8.800
REMARK  8 active torsions:
REMARK  status: ('A' for Active; 'I' for Inactive)
REMARK    1  A    between atoms: C_4  and  C_5 
REMARK    2  A    between atoms: C_5  and  N_6 
REMARK    3  A    between atoms: N_10  and  C_11 
REMARK    4  A    between atoms: C_13  and  N_14 
REMARK    5  A    between atoms: N_17  and  C_19 
REMARK    6  A    between atoms: C_19  and  C_20 
REMARK    7  A    between atoms: C_29  and  N_30 
REMARK    8  A    between atoms: C_31  and  N_32 
ROOT
HETATM    1  C   UNL     1      40.807 -12.232   4.099  1.00  0.00     0.181 A 
HETATM    2  N   UNL     1      41.153 -13.352   4.779  1.00  0.00    -0.042 NA
HETATM    3  C   UNL     1      40.528 -13.703   5.915  1.00  0.00     0.728 A 
HETATM    4  N   UNL     1      39.574 -12.959   6.475  1.00  0.00    -0.048 NA
HETATM    5  C   UNL     1      39.209 -11.833   5.842  1.00  0.00     0.157 A 
HETATM    6  C   UNL     1      39.822 -11.439   4.664  1.00  0.00     0.189 A 
ENDROOT
BRANCH   1   7
HETATM    7  N   UNL     1      41.497 -12.043   2.914  1.00  0.00    -0.360 N 
HETATM    8  C   UNL     1      42.009 -10.781   2.340  1.00  0.00     0.152 C 
HETATM    9  C   UNL     1      41.237 -10.407   1.048  1.00  0.00     0.255 C 
HETATM   10  N   UNL     1      41.283 -11.576   0.058  1.00  0.00    -0.064 N 
HETATM   11  H   UNL     1      42.279 -11.725  -0.148  1.00  0.00     0.280 HD
HETATM   12  C   UNL     1      40.803 -12.880   0.686  1.00  0.00     0.255 C 
HETATM   13  C   UNL     1      41.598 -13.187   1.977  1.00  0.00     0.152 C 
BRANCH  10  14
HETATM   14  C   UNL     1      40.663 -11.279  -1.297  1.00  0.00     0.273 C 
BRANCH  14  15
HETATM   15  C   UNL     1      39.693 -12.277  -1.873  1.00  0.00    -0.033 A 
HETATM   16  C   UNL     1      38.314 -12.011  -1.803  1.00  0.00     0.009 A 
HETATM   17  C   UNL     1      37.383 -12.889  -2.362  1.00  0.00     0.001 A 
HETATM   18  C   UNL     1      37.814 -14.049  -2.996  1.00  0.00     0.000 A 
HETATM   19  C   UNL     1      39.175 -14.323  -3.087  1.00  0.00     0.001 A 
HETATM   20  C   UNL     1      40.109 -13.438  -2.543  1.00  0.00     0.009 A 
ENDBRANCH  14  15
ENDBRANCH  10  14
ENDBRANCH   1   7
BRANCH   6  21
HETATM   21  N   UNL     1      39.312 -10.285   4.009  1.00  0.00    -0.108 N 
HETATM   22  O   UNL     1      39.776  -9.195   4.365  1.00  0.00    -0.532 OA
HETATM   23  O   UNL     1      38.403 -10.449   3.186  1.00  0.00    -0.532 OA
ENDBRANCH   6  21
BRANCH   3  24
HETATM   24  N   UNL     1      40.873 -14.917   6.497  1.00  0.00    -0.211 N 
HETATM   25  C   UNL     1      42.172 -14.962   7.188  1.00  0.00     0.169 C 
HETATM   26  C   UNL     1      43.335 -15.287   6.229  1.00  0.00     0.255 C 
HETATM   27  N   UNL     1      43.019 -16.571   5.455  1.00  0.00    -0.064 N 
HETATM   28  H   UNL     1      42.894 -17.312   6.156  1.00  0.00     0.280 HD
HETATM   29  C   UNL     1      41.703 -16.430   4.694  1.00  0.00     0.255 C 
HETATM   30  C   UNL     1      40.552 -16.092   5.673  1.00  0.00     0.169 C 
BRANCH  27  31
HETATM   31  C   UNL     1      44.158 -17.020   4.571  1.00  0.00     0.273 C 
BRANCH  31  32
HETATM   32  C   UNL     1      44.012 -18.452   4.131  1.00  0.00    -0.033 A 
HETATM   33  C   UNL     1      44.116 -19.499   5.061  1.00  0.00     0.009 A 
HETATM   34  C   UNL     1      44.027 -20.828   4.645  1.00  0.00     0.001 A 
HETATM   35  C   UNL     1      43.827 -21.125   3.299  1.00  0.00     0.000 A 
HETATM   36  C   UNL     1      43.708 -20.096   2.368  1.00  0.00     0.001 A 
HETATM   37  C   UNL     1      43.800 -18.765   2.779  1.00  0.00     0.009 A 
ENDBRANCH  31  32
ENDBRANCH  27  31
ENDBRANCH   3  24
BRANCH   5  38
HETATM   38  N   UNL     1      38.226 -11.103   6.500  1.00  0.00    -0.284 NA
HETATM   39  H   UNL     1      38.280 -10.118   6.256  1.00  0.00     0.125 HD
HETATM   40  H   UNL     1      38.176 -11.224   7.509  1.00  0.00     0.125 HD
ENDBRANCH   5  38
TORSDOF 8
ENDMDL
MODEL 3
REMARK VINA RESULT:      -9.3      2.640      9.863
REMARK  8 active torsions:
REMARK  status: ('A' for Active; 'I' for Inactive)
REMARK    1  A    between atoms: C_4  and  C_5 
REMARK    2  A    between atoms: C_5  and  N_6 
REMARK    3  A    between atoms: N_10  and  C_11 
REMARK    4  A    between atoms: C_13  and  N_14 
REMARK    5  A    between atoms: N_17  and  C_19 
REMARK    6  A    between atoms: C_19  and  C_20 
REMARK    7  A    between atoms: C_29  and  N_30 
REMARK    8  A    between atoms: C_31  and  N_32 
ROOT
HETATM    1  C   UNL     1      39.731 -11.882   3.930  1.00  0.00     0.181 A 
HETATM    2  N   UNL     1      39.822 -13.131   3.413  1.00  0.00    -0.042 NA
HETATM    3  C   UNL     1      39.704 -13.354   2.094  1.00  0.00     0.728 A 
HETATM    4  N   UNL     1      39.441 -12.385   1.218  1.00  0.00    -0.048 NA
HETATM    5  C   UNL     1      39.329 -11.133   1.688  1.00  0.00     0.157 A 
HETATM    6  C   UNL     1      39.451 -10.858   3.041  1.00  0.00     0.189 A 
ENDROOT
BRANCH   1   7
HETATM    7  N   UNL     1      39.940 -11.808   5.297  1.00  0.00    -0.360 N 
HETATM    8  C   UNL     1      39.038 -11.271   6.336  1.00  0.00     0.152 C 
HETATM    9  C   UNL     1      39.621  -9.976   6.960  1.00  0.00     0.255 C 
HETATM   10  N   UNL     1      41.039 -10.242   7.478  1.00  0.00    -0.064 N 
HETATM   11  H   UNL     1      40.939 -10.973   8.193  1.00  0.00     0.280 HD
HETATM   12  C   UNL     1      41.938 -10.849   6.406  1.00  0.00     0.255 C 
HETATM   13  C   UNL     1      41.293 -12.123   5.812  1.00  0.00     0.152 C 
BRANCH  10  14
HETATM   14  C   UNL     1      41.668  -9.077   8.222  1.00  0.00     0.273 C 
BRANCH  14  15
HETATM   15  C   UNL     1      42.975  -9.304   8.935  1.00  0.00    -0.033 A 
HETATM   16  C   UNL     1      44.158  -8.792   8.374  1.00  0.00     0.009 A 
HETATM   17  C   UNL     1      45.386  -8.945   9.023  1.00  0.00     0.001 A 
HETATM   18  C   UNL     1      45.451  -9.615  10.240  1.00  0.00     0.000 A 
HETATM   19  C   UNL     1      44.289 -10.117  10.817  1.00  0.00     0.001 A 
HETATM   20  C   UNL     1      43.057  -9.951  10.177  1.00  0.00     0.009 A 
ENDBRANCH  14  15
ENDBRANCH  10  14
ENDBRANCH   1   7
BRANCH   6  21
HETATM   21  N   UNL     1      39.414  -9.495   3.443  1.00  0.00    -0.108 N 
HETATM   22  O   UNL     1      38.296  -9.012   3.660  1.00  0.00    -0.532 OA
HETATM   23  O   UNL     1      40.486  -8.880   3.482  1.00  0.00    -0.532 OA
ENDBRANCH   6  21
BRANCH   3  24
HETATM   24  N   UNL     1      39.911 -14.649   1.634  1.00  0.00    -0.211 N 
HETATM   25  C   UNL     1      39.680 -15.729   2.607  1.00  0.00     0.169 C 
HETATM   26  C   UNL     1      40.927 -16.019   3.466  1.00  0.00     0.255 C 
HETATM   27  N   UNL     1      42.131 -16.276   2.554  1.00  0.00    -0.064 N 
HETATM   28  H   UNL     1      41.887 -17.082   1.966  1.00  0.00     0.280 HD
HETATM   29  C   UNL     1      42.368 -15.086   1.628  1.00  0.00     0.255 C 
HETATM   30  C   UNL     1      41.101 -14.803   0.784  1.00  0.00     0.169 C 
BRANCH  27  31
HETATM   31  C   UNL     1      43.373 -16.676   3.316  1.00  0.00     0.273 C 
BRANCH  31  32
HETATM   32  C   UNL     1      43.566 -18.168   3.354  1.00  0.00    -0.033 A 
HETATM   33  C   UNL     1      43.241 -18.958   2.239  1.00  0.00     0.009 A 
HETATM   34  C   UNL     1      43.377 -20.346   2.291  1.00  0.00     0.001 A 
HETATM   35  C   UNL     1      43.844 -20.958   3.452  1.00  0.00     0.000 A 
HETATM   36  C   UNL     1      44.183 -20.185   4.560  1.00  0.00     0.001 A 
HETATM   37  C   UNL     1      44.046 -18.797   4.513  1.00  0.00     0.009 A 
ENDBRANCH  31  32
ENDBRANCH  27  31
ENDBRANCH   3  24
BRANCH   5  38
HETATM   38  N   UNL     1      39.033 -10.184   0.717  1.00  0.00    -0.284 NA
HETATM   39  H   UNL     1      39.826 -10.034   0.099  1.00  0.00     0.125 HD
HETATM   40  H   UNL     1      38.664  -9.297   1.053  1.00  0.00     0.125 HD
ENDBRANCH   5  38
TORSDOF 8
ENDMDL
MODEL 4
REMARK VINA RESULT:      -9.2      5.121      8.874
REMARK  8 active torsions:
REMARK  status: ('A' for Active; 'I' for Inactive)
REMARK    1  A    between atoms: C_4  and  C_5 
REMARK    2  A    between atoms: C_5  and  N_6 
REMARK    3  A    between atoms: N_10  and  C_11 
REMARK    4  A    between atoms: C_13  and  N_14 
REMARK    5  A    between atoms: N_17  and  C_19 
REMARK    6  A    between atoms: C_19  and  C_20 
REMARK    7  A    between atoms: C_29  and  N_30 
REMARK    8  A    between atoms: C_31  and  N_32 
ROOT
HETATM    1  C   UNL     1      39.833 -12.616   3.476  1.00  0.00     0.181 A 
HETATM    2  N   UNL     1      39.237 -11.802   2.572  1.00  0.00    -0.042 NA
HETATM    3  C   UNL     1      38.618 -10.671   2.949  1.00  0.00     0.728 A 
HETATM    4  N   UNL     1      38.502 -10.300   4.224  1.00  0.00    -0.048 NA
HETATM    5  C   UNL     1      39.067 -11.085   5.155  1.00  0.00     0.157 A 
HETATM    6  C   UNL     1      39.721 -12.256   4.809  1.00  0.00     0.189 A 
ENDROOT
BRANCH   1   7
HETATM    7  N   UNL     1      40.485 -13.707   2.926  1.00  0.00    -0.360 N 
HETATM    8  C   UNL     1      40.104 -15.133   2.990  1.00  0.00     0.152 C 
HETATM    9  C   UNL     1      41.117 -15.939   3.844  1.00  0.00     0.255 C 
HETATM   10  N   UNL     1      42.537 -15.723   3.308  1.00  0.00    -0.064 N 
HETATM   11  H   UNL     1      42.523 -16.071   2.342  1.00  0.00     0.280 HD
HETATM   12  C   UNL     1      42.890 -14.244   3.198  1.00  0.00     0.255 C 
HETATM   13  C   UNL     1      41.834 -13.494   2.351  1.00  0.00     0.152 C 
BRANCH  10  14
HETATM   14  C   UNL     1      43.603 -16.562   3.991  1.00  0.00     0.273 C 
BRANCH  14  15
HETATM   15  C   UNL     1      43.628 -18.044   3.722  1.00  0.00    -0.033 A 
HETATM   16  C   UNL     1      43.277 -18.513   2.444  1.00  0.00     0.009 A 
HETATM   17  C   UNL     1      43.328 -19.876   2.140  1.00  0.00     0.001 A 
HETATM   18  C   UNL     1      43.726 -20.791   3.109  1.00  0.00     0.000 A 
HETATM   19  C   UNL     1      44.089 -20.343   4.375  1.00  0.00     0.001 A 
HETATM   20  C   UNL     1      44.055 -18.980   4.676  1.00  0.00     0.009 A 
ENDBRANCH  14  15
ENDBRANCH  10  14
ENDBRANCH   1   7
BRANCH   6  21
HETATM   21  N   UNL     1      40.373 -12.978   5.845  1.00  0.00    -0.108 N 
HETATM   22  O   UNL     1      41.560 -12.697   6.055  1.00  0.00    -0.532 OA
HETATM   23  O   UNL     1      39.731 -13.870   6.412  1.00  0.00    -0.532 OA
ENDBRANCH   6  21
BRANCH   3  24
HETATM   24  N   UNL     1      38.121  -9.841   1.951  1.00  0.00    -0.211 N 
HETATM   25  C   UNL     1      37.082 -10.419   1.082  1.00  0.00     0.169 C 
HETATM   26  C   UNL     1      37.682 -11.200  -0.105  1.00  0.00     0.255 C 
HETATM   27  N   UNL     1      38.672 -10.307  -0.860  1.00  0.00    -0.064 N 
HETATM   28  H   UNL     1      38.142  -9.488  -1.181  1.00  0.00     0.280 HD
HETATM   29  C   UNL     1      39.768  -9.808   0.078  1.00  0.00     0.255 C 
HETATM   30  C   UNL     1      39.146  -9.039   1.268  1.00  0.00     0.169 C 
BRANCH  27  31
HETATM   31  C   UNL     1      39.224 -10.961  -2.105  1.00  0.00     0.273 C 
BRANCH  31  32
HETATM   32  C   UNL     1      39.137 -12.462  -2.050  1.00  0.00    -0.033 A 
HETATM   33  C   UNL     1      39.830 -13.182  -1.063  1.00  0.00     0.009 A 
HETATM   34  C   UNL     1      39.786 -14.577  -1.042  1.00  0.00     0.001 A 
HETATM   35  C   UNL     1      39.046 -15.266  -2.000  1.00  0.00     0.000 A 
HETATM   36  C   UNL     1      38.343 -14.564  -2.976  1.00  0.00     0.001 A 
HETATM   37  C   UNL     1      38.387 -13.169  -3.003  1.00  0.00     0.009 A 
ENDBRANCH  31  32
ENDBRANCH  27  31
ENDBRANCH   3  24
BRANCH   5  38
HETATM   38  N   UNL     1      38.883 -10.643   6.460  1.00  0.00    -0.284 NA
HETATM   39  H   UNL     1      39.546  -9.908   6.692  1.00  0.00     0.125 HD
HETATM   40  H   UNL     1      38.872 -11.361   7.180  1.00  0.00     0.125 HD
ENDBRANCH   5  38
TORSDOF 8
ENDMDL
MODEL 5
REMARK VINA RESULT:      -9.2      2.531     10.765
REMARK  8 active torsions:
REMARK  status: ('A' for Active; 'I' for Inactive)
REMARK    1  A    between atoms: C_4  and  C_5 
REMARK    2  A    between atoms: C_5  and  N_6 
REMARK    3  A    between atoms: N_10  and  C_11 
REMARK    4  A    between atoms: C_13  and  N_14 
REMARK    5  A    between atoms: N_17  and  C_19 
REMARK    6  A    between atoms: C_19  and  C_20 
REMARK    7  A    between atoms: C_29  and  N_30 
REMARK    8  A    between atoms: C_31  and  N_32 
ROOT
HETATM    1  C   UNL     1      42.950  -9.567   7.488  1.00  0.00     0.181 A 
HETATM    2  N   UNL     1      42.277 -10.230   6.517  1.00  0.00    -0.042 NA
HETATM    3  C   UNL     1      42.893 -11.117   5.718  1.00  0.00     0.728 A 
HETATM    4  N   UNL     1      44.200 -11.366   5.786  1.00  0.00    -0.048 NA
HETATM    5  C   UNL     1      44.909 -10.721   6.725  1.00  0.00     0.157 A 
HETATM    6  C   UNL     1      44.312  -9.804   7.575  1.00  0.00     0.189 A 
ENDROOT
BRANCH   1   7
HETATM    7  N   UNL     1      42.164  -8.738   8.270  1.00  0.00    -0.360 N 
HETATM    8  C   UNL     1      41.881  -7.300   8.087  1.00  0.00     0.152 C 
HETATM    9  C   UNL     1      42.530  -6.459   9.217  1.00  0.00     0.255 C 
HETATM   10  N   UNL     1      42.080  -6.988  10.583  1.00  0.00    -0.064 N 
HETATM   11  H   UNL     1      41.058  -6.882  10.597  1.00  0.00     0.280 HD
HETATM   12  C   UNL     1      42.330  -8.485  10.730  1.00  0.00     0.255 C 
HETATM   13  C   UNL     1      41.674  -9.264   9.566  1.00  0.00     0.152 C 
BRANCH  10  14
HETATM   14  C   UNL     1      42.556  -6.164  11.766  1.00  0.00     0.273 C 
BRANCH  14  15
HETATM   15  C   UNL     1      42.068  -6.538  13.142  1.00  0.00    -0.033 A 
HETATM   16  C   UNL     1      40.685  -6.615  13.380  1.00  0.00     0.009 A 
HETATM   17  C   UNL     1      40.191  -6.999  14.629  1.00  0.00     0.001 A 
HETATM   18  C   UNL     1      41.071  -7.307  15.660  1.00  0.00     0.000 A 
HETATM   19  C   UNL     1      42.443  -7.248  15.440  1.00  0.00     0.001 A 
HETATM   20  C   UNL     1      42.940  -6.881  14.187  1.00  0.00     0.009 A 
ENDBRANCH  14  15
ENDBRANCH  10  14
ENDBRANCH   1   7
BRANCH   6  21
HETATM   21  N   UNL     1      45.115  -9.237   8.602  1.00  0.00    -0.108 N 
HETATM   22  O   UNL     1      45.597  -8.119   8.375  1.00  0.00    -0.532 OA
HETATM   23  O   UNL     1      45.324  -9.921   9.610  1.00  0.00    -0.532 OA
ENDBRANCH   6  21
BRANCH   3  24
HETATM   24  N   UNL     1      42.111 -11.828   4.815  1.00  0.00    -0.211 N 
HETATM   25  C   UNL     1      40.853 -12.384   5.341  1.00  0.00     0.169 C 
HETATM   26  C   UNL     1      41.052 -13.767   5.994  1.00  0.00     0.255 C 
HETATM   27  N   UNL     1      41.761 -14.703   5.010  1.00  0.00    -0.064 N 
HETATM   28  H   UNL     1      41.158 -14.765   4.180  1.00  0.00     0.280 HD
HETATM   29  C   UNL     1      43.095 -14.108   4.567  1.00  0.00     0.255 C 
HETATM   30  C   UNL     1      42.874 -12.716   3.927  1.00  0.00     0.169 C 
BRANCH  27  31
HETATM   31  C   UNL     1      41.897 -16.113   5.533  1.00  0.00     0.273 C 
BRANCH  31  32
HETATM   32  C   UNL     1      42.670 -17.001   4.595  1.00  0.00    -0.033 A 
HETATM   33  C   UNL     1      42.309 -17.093   3.241  1.00  0.00     0.009 A 
HETATM   34  C   UNL     1      42.997 -17.952   2.382  1.00  0.00     0.001 A 
HETATM   35  C   UNL     1      44.054 -18.721   2.864  1.00  0.00     0.000 A 
HETATM   36  C   UNL     1      44.430 -18.629   4.202  1.00  0.00     0.001 A 
HETATM   37  C   UNL     1      43.743 -17.774   5.065  1.00  0.00     0.009 A 
ENDBRANCH  31  32
ENDBRANCH  27  31
ENDBRANCH   3  24
BRANCH   5  38
HETATM   38  N   UNL     1      46.267 -11.017   6.717  1.00  0.00    -0.284 NA
HETATM   39  H   UNL     1      46.489 -11.724   7.414  1.00  0.00     0.125 HD
HETATM   40  H   UNL     1      46.901 -10.224   6.791  1.00  0.00     0.125 HD
ENDBRANCH   5  38
TORSDOF 8
ENDMDL
MODEL 6
REMARK VINA RESULT:      -9.1      1.862     10.065
REMARK  8 active torsions:
REMARK  status: ('A' for Active; 'I' for Inactive)
REMARK    1  A    between atoms: C_4  and  C_5 
REMARK    2  A    between atoms: C_5  and  N_6 
REMARK    3  A    between atoms: N_10  and  C_11 
REMARK    4  A    between atoms: C_13  and  N_14 
REMARK    5  A    between atoms: N_17  and  C_19 
REMARK    6  A    between atoms: C_19  and  C_20 
REMARK    7  A    between atoms: C_29  and  N_30 
REMARK    8  A    between atoms: C_31  and  N_32 
ROOT
HETATM    1  C   UNL     1      41.333 -11.069   6.097  1.00  0.00     0.181 A 
HETATM    2  N   UNL     1      41.279 -12.386   6.412  1.00  0.00    -0.042 NA
HETATM    3  C   UNL     1      40.553 -13.251   5.685  1.00  0.00     0.728 A 
HETATM    4  N   UNL     1      39.804 -12.875   4.650  1.00  0.00    -0.048 NA
HETATM    5  C   UNL     1      39.816 -11.576   4.311  1.00  0.00     0.157 A 
HETATM    6  C   UNL     1      40.557 -10.652   5.029  1.00  0.00     0.189 A 
ENDROOT
BRANCH   1   7
HETATM    7  N   UNL     1      42.175 -10.320   6.901  1.00  0.00    -0.360 N 
HETATM    8  C   UNL     1      43.637 -10.450   7.074  1.00  0.00     0.152 C 
HETATM    9  C   UNL     1      43.983 -10.944   8.503  1.00  0.00     0.255 C 
HETATM   10  N   UNL     1      43.339 -10.020   9.542  1.00  0.00    -0.064 N 
HETATM   11  H   UNL     1      43.743  -9.090   9.374  1.00  0.00     0.280 HD
HETATM   12  C   UNL     1      41.840  -9.854   9.312  1.00  0.00     0.255 C 
HETATM   13  C   UNL     1      41.560  -9.379   7.867  1.00  0.00     0.152 C 
BRANCH  10  14
HETATM   14  C   UNL     1      43.711 -10.333  10.981  1.00  0.00     0.273 C 
BRANCH  14  15
HETATM   15  C   UNL     1      43.124  -9.478  12.074  1.00  0.00    -0.033 A 
HETATM   16  C   UNL     1      42.105 -10.009  12.885  1.00  0.00     0.009 A 
HETATM   17  C   UNL     1      41.563  -9.265  13.936  1.00  0.00     0.001 A 
HETATM   18  C   UNL     1      42.026  -7.979  14.190  1.00  0.00     0.000 A 
HETATM   19  C   UNL     1      43.042  -7.442  13.406  1.00  0.00     0.001 A 
HETATM   20  C   UNL     1      43.598  -8.190  12.365  1.00  0.00     0.009 A 
ENDBRANCH  14  15
ENDBRANCH  10  14
ENDBRANCH   1   7
BRANCH   6  21
HETATM   21  N   UNL     1      40.591  -9.315   4.546  1.00  0.00    -0.108 N 
HETATM   22  O   UNL     1      39.707  -8.554   4.960  1.00  0.00    -0.532 OA
HETATM   23  O   UNL     1      41.452  -9.031   3.706  1.00  0.00    -0.532 OA
ENDBRANCH   6  21
BRANCH   3  24
HETATM   24  N   UNL     1      40.632 -14.600   6.013  1.00  0.00    -0.211 N 
HETATM   25  C   UNL     1      41.823 -15.016   6.772  1.00  0.00     0.169 C 
HETATM   26  C   UNL     1      43.017 -15.346   5.853  1.00  0.00     0.255 C 
HETATM   27  N   UNL     1      42.585 -16.370   4.799  1.00  0.00    -0.064 N 
HETATM   28  H   UNL     1      42.267 -17.202   5.311  1.00  0.00     0.280 HD
HETATM   29  C   UNL     1      41.400 -15.845   3.992  1.00  0.00     0.255 C 
HETATM   30  C   UNL     1      40.219 -15.507   4.933  1.00  0.00     0.169 C 
BRANCH  27  31
HETATM   31  C   UNL     1      43.726 -16.832   3.923  1.00  0.00     0.273 C 
BRANCH  31  32
HETATM   32  C   UNL     1      43.817 -18.332   3.842  1.00  0.00    -0.033 A 
HETATM   33  C   UNL     1      43.613 -18.994   2.621  1.00  0.00     0.009 A 
HETATM   34  C   UNL     1      43.651 -20.388   2.556  1.00  0.00     0.001 A 
HETATM   35  C   UNL     1      43.899 -21.133   3.707  1.00  0.00     0.000 A 
HETATM   36  C   UNL     1      44.117 -20.487   4.922  1.00  0.00     0.001 A 
HETATM   37  C   UNL     1      44.076 -19.094   4.992  1.00  0.00     0.009 A 
ENDBRANCH  31  32
ENDBRANCH  27  31
ENDBRANCH   3  24
BRANCH   5  38
HETATM   38  N   UNL     1      38.993 -11.260   3.237  1.00  0.00    -0.284 NA
HETATM   39  H   UNL     1      38.773 -10.268   3.226  1.00  0.00     0.125 HD
HETATM   40  H   UNL     1      38.148 -11.819   3.138  1.00  0.00     0.125 HD
ENDBRANCH   5  38
TORSDOF 8
ENDMDL
MODEL 7
REMARK VINA RESULT:      -9.0      2.786     11.036
REMARK  8 active torsions:
REMARK  status: ('A' for Active; 'I' for Inactive)
REMARK    1  A    between atoms: C_4  and  C_5 
REMARK    2  A    between atoms: C_5  and  N_6 
REMARK    3  A    between atoms: N_10  and  C_11 
REMARK    4  A    between atoms: C_13  and  N_14 
REMARK    5  A    between atoms: N_17  and  C_19 
REMARK    6  A    between atoms: C_19  and  C_20 
REMARK    7  A    between atoms: C_29  and  N_30 
REMARK    8  A    between atoms: C_31  and  N_32 
ROOT
HETATM    1  C   UNL     1      42.307  -9.318   9.570  1.00  0.00     0.181 A 
HETATM    2  N   UNL     1      42.479  -9.617   8.260  1.00  0.00    -0.042 NA
HETATM    3  C   UNL     1      43.546 -10.315   7.835  1.00  0.00     0.728 A 
HETATM    4  N   UNL     1      44.522 -10.711   8.651  1.00  0.00    -0.048 NA
HETATM    5  C   UNL     1      44.398 -10.425   9.956  1.00  0.00     0.157 A 
HETATM    6  C   UNL     1      43.311  -9.714  10.438  1.00  0.00     0.189 A 
ENDROOT
BRANCH   1   7
HETATM    7  N   UNL     1      41.127  -8.653   9.858  1.00  0.00    -0.360 N 
HETATM    8  C   UNL     1      40.890  -7.197   9.943  1.00  0.00     0.152 C 
HETATM    9  C   UNL     1      40.579  -6.771  11.401  1.00  0.00     0.255 C 
HETATM   10  N   UNL     1      39.411  -7.599  11.947  1.00  0.00    -0.064 N 
HETATM   11  H   UNL     1      38.614  -7.391  11.333  1.00  0.00     0.280 HD
HETATM   12  C   UNL     1      39.651  -9.098  11.799  1.00  0.00     0.255 C 
HETATM   13  C   UNL     1      39.973  -9.455  10.329  1.00  0.00     0.152 C 
BRANCH  10  14
HETATM   14  C   UNL     1      38.935  -7.185  13.329  1.00  0.00     0.273 C 
BRANCH  14  15
HETATM   15  C   UNL     1      39.970  -6.897  14.385  1.00  0.00    -0.033 A 
HETATM   16  C   UNL     1      40.007  -5.622  14.977  1.00  0.00     0.009 A 
HETATM   17  C   UNL     1      40.923  -5.326  15.989  1.00  0.00     0.001 A 
HETATM   18  C   UNL     1      41.819  -6.297  16.422  1.00  0.00     0.000 A 
HETATM   19  C   UNL     1      41.789  -7.568  15.857  1.00  0.00     0.001 A 
HETATM   20  C   UNL     1      40.863  -7.871  14.856  1.00  0.00     0.009 A 
ENDBRANCH  14  15
ENDBRANCH  10  14
ENDBRANCH   1   7
BRANCH   6  21
HETATM   21  N   UNL     1      43.210  -9.536  11.844  1.00  0.00    -0.108 N 
HETATM   22  O   UNL     1      43.653  -8.476  12.302  1.00  0.00    -0.532 OA
HETATM   23  O   UNL     1      42.750 -10.472  12.509  1.00  0.00    -0.532 OA
ENDBRANCH   6  21
BRANCH   3  24
HETATM   24  N   UNL     1      43.597 -10.667   6.492  1.00  0.00    -0.211 N 
HETATM   25  C   UNL     1      42.301 -10.847   5.817  1.00  0.00     0.169 C 
HETATM   26  C   UNL     1      41.744 -12.274   5.992  1.00  0.00     0.255 C 
HETATM   27  N   UNL     1      42.799 -13.295   5.555  1.00  0.00    -0.064 N 
HETATM   28  H   UNL     1      43.009 -13.095   4.569  1.00  0.00     0.280 HD
HETATM   29  C   UNL     1      44.089 -13.109   6.349  1.00  0.00     0.255 C 
HETATM   30  C   UNL     1      44.625 -11.668   6.170  1.00  0.00     0.169 C 
BRANCH  27  31
HETATM   31  C   UNL     1      42.292 -14.718   5.592  1.00  0.00     0.273 C 
BRANCH  31  32
HETATM   32  C   UNL     1      42.684 -15.498   4.367  1.00  0.00    -0.033 A 
HETATM   33  C   UNL     1      42.808 -14.859   3.122  1.00  0.00     0.009 A 
HETATM   34  C   UNL     1      43.126 -15.592   1.978  1.00  0.00     0.001 A 
HETATM   35  C   UNL     1      43.329 -16.967   2.065  1.00  0.00     0.000 A 
HETATM   36  C   UNL     1      43.222 -17.611   3.295  1.00  0.00     0.001 A 
HETATM   37  C   UNL     1      42.901 -16.883   4.442  1.00  0.00     0.009 A 
ENDBRANCH  31  32
ENDBRANCH  27  31
ENDBRANCH   3  24
BRANCH   5  38
HETATM   38  N   UNL     1      45.466 -10.852  10.737  1.00  0.00    -0.284 NA
HETATM   39  H   UNL     1      45.446 -10.412  11.653  1.00  0.00     0.125 HD
HETATM   40  H   UNL     1      46.390 -10.772  10.317  1.00  0.00     0.125 HD
ENDBRANCH   5  38
TORSDOF 8
ENDMDL
MODEL 8
REMARK VINA RESULT:      -9.0      2.395      9.811
REMARK  8 active torsions:
REMARK  status: ('A' for Active; 'I' for Inactive)
REMARK    1  A    between atoms: C_4  and  C_5 
REMARK    2  A    between atoms: C_5  and  N_6 
REMARK    3  A    between atoms: N_10  and  C_11 
REMARK    4  A    between atoms: C_13  and  N_14 
REMARK    5  A    between atoms: N_17  and  C_19 
REMARK    6  A    between atoms: C_19  and  C_20 
REMARK    7  A    between atoms: C_29  and  N_30 
REMARK    8  A    between atoms: C_31  and  N_32 
ROOT
HETATM    1  C   UNL     1      41.899 -12.442   5.118  1.00  0.00     0.181 A 
HETATM    2  N   UNL     1      41.498 -13.548   4.444  1.00  0.00    -0.042 NA
HETATM    3  C   UNL     1      40.345 -13.568   3.755  1.00  0.00     0.728 A 
HETATM    4  N   UNL     1      39.501 -12.538   3.727  1.00  0.00    -0.048 NA
HETATM    5  C   UNL     1      39.852 -11.426   4.392  1.00  0.00     0.157 A 
HETATM    6  C   UNL     1      41.035 -11.360   5.110  1.00  0.00     0.189 A 
ENDROOT
BRANCH   1   7
HETATM    7  N   UNL     1      43.139 -12.555   5.723  1.00  0.00    -0.360 N 
HETATM    8  C   UNL     1      43.461 -13.078   7.067  1.00  0.00     0.152 C 
HETATM    9  C   UNL     1      43.975 -11.945   7.993  1.00  0.00     0.255 C 
HETATM   10  N   UNL     1      45.158 -11.229   7.331  1.00  0.00    -0.064 N 
HETATM   11  H   UNL     1      45.881 -11.948   7.205  1.00  0.00     0.280 HD
HETATM   12  C   UNL     1      44.822 -10.747   5.923  1.00  0.00     0.255 C 
HETATM   13  C   UNL     1      44.299 -11.917   5.057  1.00  0.00     0.152 C 
BRANCH  10  14
HETATM   14  C   UNL     1      45.825 -10.177   8.200  1.00  0.00     0.273 C 
BRANCH  14  15
HETATM   15  C   UNL     1      44.966  -9.388   9.154  1.00  0.00    -0.033 A 
HETATM   16  C   UNL     1      44.228  -8.295   8.666  1.00  0.00     0.009 A 
HETATM   17  C   UNL     1      43.387  -7.563   9.508  1.00  0.00     0.001 A 
HETATM   18  C   UNL     1      43.275  -7.907  10.850  1.00  0.00     0.000 A 
HETATM   19  C   UNL     1      43.988  -8.993  11.348  1.00  0.00     0.001 A 
HETATM   20  C   UNL     1      44.816  -9.738  10.504  1.00  0.00     0.009 A 
ENDBRANCH  14  15
ENDBRANCH  10  14
ENDBRANCH   1   7
BRANCH   6  21
HETATM   21  N   UNL     1      41.376 -10.115   5.706  1.00  0.00    -0.108 N 
HETATM   22  O   UNL     1      41.157 -10.003   6.919  1.00  0.00    -0.532 OA
HETATM   23  O   UNL     1      41.801  -9.222   4.964  1.00  0.00    -0.532 OA
ENDBRANCH   6  21
BRANCH   3  24
HETATM   24  N   UNL     1      40.056 -14.705   3.009  1.00  0.00    -0.211 N 
HETATM   25  C   UNL     1      40.241 -15.995   3.692  1.00  0.00     0.169 C 
HETATM   26  C   UNL     1      41.692 -16.508   3.592  1.00  0.00     0.255 C 
HETATM   27  N   UNL     1      42.127 -16.535   2.123  1.00  0.00    -0.064 N 
HETATM   28  H   UNL     1      41.475 -17.162   1.636  1.00  0.00     0.280 HD
HETATM   29  C   UNL     1      41.990 -15.151   1.496  1.00  0.00     0.255 C 
HETATM   30  C   UNL     1      40.531 -14.649   1.618  1.00  0.00     0.169 C 
BRANCH  27  31
HETATM   31  C   UNL     1      43.502 -17.130   1.927  1.00  0.00     0.273 C 
BRANCH  31  32
HETATM   32  C   UNL     1      43.708 -18.379   2.740  1.00  0.00    -0.033 A 
HETATM   33  C   UNL     1      43.395 -19.639   2.205  1.00  0.00     0.009 A 
HETATM   34  C   UNL     1      43.542 -20.793   2.976  1.00  0.00     0.001 A 
HETATM   35  C   UNL     1      44.008 -20.702   4.285  1.00  0.00     0.000 A 
HETATM   36  C   UNL     1      44.335 -19.460   4.824  1.00  0.00     0.001 A 
HETATM   37  C   UNL     1      44.186 -18.303   4.058  1.00  0.00     0.009 A 
ENDBRANCH  31  32
ENDBRANCH  27  31
ENDBRANCH   3  24
BRANCH   5  38
HETATM   38  N   UNL     1      38.910 -10.406   4.333  1.00  0.00    -0.284 NA
HETATM   39  H   UNL     1      39.132  -9.747   3.592  1.00  0.00     0.125 HD
HETATM   40  H   UNL     1      38.720  -9.918   5.206  1.00  0.00     0.125 HD
ENDBRANCH   5  38
TORSDOF 8
ENDMDL
MODEL 9
REMARK VINA RESULT:      -8.9      3.354      5.109
REMARK  8 active torsions:
REMARK  status: ('A' for Active; 'I' for Inactive)
REMARK    1  A    between atoms: C_4  and  C_5 
REMARK    2  A    between atoms: C_5  and  N_6 
REMARK    3  A    between atoms: N_10  and  C_11 
REMARK    4  A    between atoms: C_13  and  N_14 
REMARK    5  A    between atoms: N_17  and  C_19 
REMARK    6  A    between atoms: C_19  and  C_20 
REMARK    7  A    between atoms: C_29  and  N_30 
REMARK    8  A    between atoms: C_31  and  N_32 
ROOT
HETATM    1  C   UNL     1      40.686 -12.851   1.700  1.00  0.00     0.181 A 
HETATM    2  N   UNL     1      40.703 -12.492   3.007  1.00  0.00    -0.042 NA
HETATM    3  C   UNL     1      40.095 -11.373   3.433  1.00  0.00     0.728 A 
HETATM    4  N   UNL     1      39.486 -10.521   2.608  1.00  0.00    -0.048 NA
HETATM    5  C   UNL     1      39.458 -10.830   1.303  1.00  0.00     0.157 A 
HETATM    6  C   UNL     1      40.066 -11.979   0.821  1.00  0.00     0.189 A 
ENDROOT
BRANCH   1   7
HETATM    7  N   UNL     1      41.299 -14.062   1.428  1.00  0.00    -0.360 N 
HETATM    8  C   UNL     1      40.670 -15.381   1.209  1.00  0.00     0.152 C 
HETATM    9  C   UNL     1      41.006 -16.354   2.369  1.00  0.00     0.255 C 
HETATM   10  N   UNL     1      42.525 -16.440   2.553  1.00  0.00    -0.064 N 
HETATM   11  H   UNL     1      42.891 -16.800   1.663  1.00  0.00     0.280 HD
HETATM   12  C   UNL     1      43.162 -15.064   2.722  1.00  0.00     0.255 C 
HETATM   13  C   UNL     1      42.775 -14.138   1.545  1.00  0.00     0.152 C 
BRANCH  10  14
HETATM   14  C   UNL     1      42.979 -17.460   3.583  1.00  0.00     0.273 C 
BRANCH  14  15
HETATM   15  C   UNL     1      43.192 -16.998   5.001  1.00  0.00    -0.033 A 
HETATM   16  C   UNL     1      42.073 -16.705   5.800  1.00  0.00     0.009 A 
HETATM   17  C   UNL     1      42.225 -16.314   7.133  1.00  0.00     0.001 A 
HETATM   18  C   UNL     1      43.496 -16.206   7.686  1.00  0.00     0.000 A 
HETATM   19  C   UNL     1      44.614 -16.505   6.914  1.00  0.00     0.001 A 
HETATM   20  C   UNL     1      44.464 -16.912   5.586  1.00  0.00     0.009 A 
ENDBRANCH  14  15
ENDBRANCH  10  14
ENDBRANCH   1   7
BRANCH   6  21
HETATM   21  N   UNL     1      39.907 -12.280  -0.559  1.00  0.00    -0.108 N 
HETATM   22  O   UNL     1      40.790 -11.866  -1.321  1.00  0.00    -0.532 OA
HETATM   23  O   UNL     1      38.876 -12.871  -0.902  1.00  0.00    -0.532 OA
ENDBRANCH   6  21
BRANCH   3  24
HETATM   24  N   UNL     1      40.071 -11.129   4.801  1.00  0.00    -0.211 N 
HETATM   25  C   UNL     1      40.972 -10.072   5.289  1.00  0.00     0.169 C 
HETATM   26  C   UNL     1      42.390 -10.603   5.582  1.00  0.00     0.255 C 
HETATM   27  N   UNL     1      42.304 -11.806   6.527  1.00  0.00    -0.064 N 
HETATM   28  H   UNL     1      41.845 -11.473   7.384  1.00  0.00     0.280 HD
HETATM   29  C   UNL     1      41.424 -12.899   5.927  1.00  0.00     0.255 C 
HETATM   30  C   UNL     1      40.010 -12.343   5.628  1.00  0.00     0.169 C 
BRANCH  27  31
HETATM   31  C   UNL     1      43.660 -12.319   6.952  1.00  0.00     0.273 C 
BRANCH  31  32
HETATM   32  C   UNL     1      44.464 -11.277   7.682  1.00  0.00    -0.033 A 
HETATM   33  C   UNL     1      44.000 -10.736   8.892  1.00  0.00     0.009 A 
HETATM   34  C   UNL     1      44.724  -9.737   9.545  1.00  0.00     0.001 A 
HETATM   35  C   UNL     1      45.919  -9.272   9.000  1.00  0.00     0.000 A 
HETATM   36  C   UNL     1      46.397  -9.810   7.807  1.00  0.00     0.001 A 
HETATM   37  C   UNL     1      45.675 -10.807   7.149  1.00  0.00     0.009 A 
ENDBRANCH  31  32
ENDBRANCH  27  31
ENDBRANCH   3  24
BRANCH   5  38
HETATM   38  N   UNL     1      38.826  -9.883   0.507  1.00  0.00    -0.284 NA
HETATM   39  H   UNL     1      38.366  -9.177   1.076  1.00  0.00     0.125 HD
HETATM   40  H   UNL     1      38.193 -10.243  -0.205  1.00  0.00     0.125 HD
ENDBRANCH   5  38
TORSDOF 8
ENDMDL
MODEL 10
REMARK VINA RESULT:      -8.9      2.509      4.212
REMARK  8 active torsions:
REMARK  status: ('A' for Active; 'I' for Inactive)
REMARK    1  A    between atoms: C_4  and  C_5 
REMARK    2  A    between atoms: C_5  and  N_6 
REMARK    3  A    between atoms: N_10  and  C_11 
REMARK    4  A    between atoms: C_13  and  N_14 
REMARK    5  A    between atoms: N_17  and  C_19 
REMARK    6  A    between atoms: C_19  and  C_20 
REMARK    7  A    between atoms: C_29  and  N_30 
REMARK    8  A    between atoms: C_31  and  N_32 
ROOT
HETATM    1  C   UNL     1      40.113 -12.724   2.251  1.00  0.00     0.181 A 
HETATM    2  N   UNL     1      39.985 -12.395   3.560  1.00  0.00    -0.042 NA
HETATM    3  C   UNL     1      39.378 -11.259   3.940  1.00  0.00     0.728 A 
HETATM    4  N   UNL     1      38.912 -10.362   3.071  1.00  0.00    -0.048 NA
HETATM    5  C   UNL     1      39.030 -10.641   1.764  1.00  0.00     0.157 A 
HETATM    6  C   UNL     1      39.643 -11.805   1.328  1.00  0.00     0.189 A 
ENDROOT
BRANCH   1   7
HETATM    7  N   UNL     1      40.702 -13.956   2.023  1.00  0.00    -0.360 N 
HETATM    8  C   UNL     1      40.195 -15.297   2.381  1.00  0.00     0.152 C 
HETATM    9  C   UNL     1      41.077 -15.947   3.479  1.00  0.00     0.255 C 
HETATM   10  N   UNL     1      42.542 -15.963   3.028  1.00  0.00    -0.064 N 
HETATM   11  H   UNL     1      42.561 -16.527   2.169  1.00  0.00     0.280 HD
HETATM   12  C   UNL     1      43.029 -14.579   2.610  1.00  0.00     0.255 C 
HETATM   13  C   UNL     1      42.099 -13.979   1.529  1.00  0.00     0.152 C 
BRANCH  10  14
HETATM   14  C   UNL     1      43.485 -16.689   3.972  1.00  0.00     0.273 C 
BRANCH  14  15
HETATM   15  C   UNL     1      43.627 -18.182   3.832  1.00  0.00    -0.033 A 
HETATM   16  C   UNL     1      43.412 -18.775   2.576  1.00  0.00     0.009 A 
HETATM   17  C   UNL     1      43.575 -20.151   2.394  1.00  0.00     0.001 A 
HETATM   18  C   UNL     1      43.949 -20.955   3.465  1.00  0.00     0.000 A 
HETATM   19  C   UNL     1      44.178 -20.384   4.712  1.00  0.00     0.001 A 
HETATM   20  C   UNL     1      44.033 -19.006   4.893  1.00  0.00     0.009 A 
ENDBRANCH  14  15
ENDBRANCH  10  14
ENDBRANCH   1   7
BRANCH   6  21
HETATM   21  N   UNL     1      39.641 -12.068  -0.069  1.00  0.00    -0.108 N 
HETATM   22  O   UNL     1      38.688 -12.723  -0.508  1.00  0.00    -0.532 OA
HETATM   23  O   UNL     1      40.616 -11.683  -0.725  1.00  0.00    -0.532 OA
ENDBRANCH   6  21
BRANCH   3  24
HETATM   24  N   UNL     1      39.197 -11.044   5.301  1.00  0.00    -0.211 N 
HETATM   25  C   UNL     1      38.975  -9.649   5.716  1.00  0.00     0.169 C 
HETATM   26  C   UNL     1      40.297  -8.890   5.947  1.00  0.00     0.255 C 
HETATM   27  N   UNL     1      41.178  -9.677   6.923  1.00  0.00    -0.064 N 
HETATM   28  H   UNL     1      40.642  -9.766   7.794  1.00  0.00     0.280 HD
HETATM   29  C   UNL     1      41.440 -11.085   6.396  1.00  0.00     0.255 C 
HETATM   30  C   UNL     1      40.101 -11.825   6.159  1.00  0.00     0.169 C 
BRANCH  27  31
HETATM   31  C   UNL     1      42.449  -8.947   7.288  1.00  0.00     0.273 C 
BRANCH  31  32
HETATM   32  C   UNL     1      42.963  -9.337   8.648  1.00  0.00    -0.033 A 
HETATM   33  C   UNL     1      42.110  -9.329   9.763  1.00  0.00     0.009 A 
HETATM   34  C   UNL     1      42.599  -9.645  11.031  1.00  0.00     0.001 A 
HETATM   35  C   UNL     1      43.941  -9.978  11.198  1.00  0.00     0.000 A 
HETATM   36  C   UNL     1      44.795 -10.002  10.098  1.00  0.00     0.001 A 
HETATM   37  C   UNL     1      44.311  -9.683   8.828  1.00  0.00     0.009 A 
ENDBRANCH  31  32
ENDBRANCH  27  31
ENDBRANCH   3  24
BRANCH   5  38
HETATM   38  N   UNL     1      38.541  -9.648   0.923  1.00  0.00    -0.284 NA
HETATM   39  H   UNL     1      37.695  -9.234   1.303  1.00  0.00     0.125 HD
HETATM   40  H   UNL     1      38.410  -9.909  -0.052  1.00  0.00     0.125 HD
ENDBRANCH   5  38
TORSDOF 8
ENDMDL
