MODEL 1
REMARK VINA RESULT:      -8.8      0.000      0.000
REMARK  8 active torsions:
REMARK  status: ('A' for Active; 'I' for Inactive)
REMARK    1  A    between atoms: O_2  and  C_3 
REMARK    2  A    between atoms: C_5  and  C_6 
REMARK    3  A    between atoms: C_10  and  C_11 
REMARK       I    between atoms: C_11  and  N_12 
REMARK    4  A    between atoms: N_12  and  C_13 
REMARK    5  A    between atoms: C_13  and  C_14 
REMARK    6  A    between atoms: C_15  and  C_16 
REMARK    7  A    between atoms: C_16  and  O_17 
REMARK    8  A    between atoms: O_17  and  C_18 
ROOT
HETATM    1  C   UNL     1      44.351 -11.007   8.459  1.00  0.00     0.270 C 
HETATM    2  N   UNL     1      43.629 -11.773   7.582  1.00  0.00    -0.345 N 
HETATM    3  O   UNL     1      45.578 -11.002   8.476  1.00  0.00    -0.266 OA
HETATM    4  H   UNL     1      42.622 -11.778   7.626  1.00  0.00     0.163 HD
ENDROOT
BRANCH   1   5
HETATM    5  C   UNL     1      43.566 -10.200   9.353  1.00  0.00     0.120 A 
HETATM    6  N   UNL     1      42.217 -10.048   9.190  1.00  0.00    -0.272 N 
HETATM    7  N   UNL     1      41.630  -9.295  10.132  1.00  0.00    -0.174 NA
HETATM    8  H   UNL     1      41.644 -10.453   8.456  1.00  0.00     0.189 HD
HETATM    9  C   UNL     1      42.633  -8.912  10.935  1.00  0.00     0.089 A 
HETATM   10  C   UNL     1      43.865  -9.457  10.478  1.00  0.00     0.071 A 
BRANCH   9  11
HETATM   11  C   UNL     1      42.408  -8.070  12.112  1.00  0.00    -0.003 A 
HETATM   12  C   UNL     1      41.200  -7.374  12.267  1.00  0.00     0.050 A 
HETATM   13  C   UNL     1      40.954  -6.596  13.403  1.00  0.00     0.069 A 
HETATM   14  C   UNL     1      41.935  -6.493  14.389  1.00  0.00     0.037 A 
HETATM   15  C   UNL     1      43.148  -7.168  14.241  1.00  0.00     0.004 A 
HETATM   16  C   UNL     1      43.384  -7.954  13.111  1.00  0.00     0.014 A 
BRANCH  13  17
HETATM   17  O   UNL     1      39.726  -5.993  13.428  1.00  0.00    -0.356 OA
HETATM   18  C   UNL     1      38.600  -6.812  13.136  1.00  0.00     0.210 C 
ENDBRANCH  13  17
ENDBRANCH   9  11
ENDBRANCH   1   5
BRANCH   2  19
HETATM   19  C   UNL     1      44.276 -12.635   6.627  1.00  0.00     0.217 C 
BRANCH  19  20
HETATM   20  C   UNL     1      43.696 -13.977   6.717  1.00  0.00    -0.085 C 
HETATM   21  C   UNL     1      43.191 -15.065   6.790  1.00  0.00    -0.078 C 
BRANCH  21  22
HETATM   22  C   UNL     1      42.549 -16.384   6.875  1.00  0.00     0.269 C 
BRANCH  22  23
HETATM   23  O   UNL     1      43.556 -17.387   6.989  1.00  0.00    -0.339 OA
BRANCH  23  24
HETATM   24  C   UNL     1      43.642 -18.298   5.969  1.00  0.00     0.072 A 
HETATM   25  C   UNL     1      43.695 -17.998   4.605  1.00  0.00     0.076 A 
HETATM   26  C   UNL     1      43.775 -19.054   3.718  1.00  0.00     0.107 A 
HETATM   27  C   UNL     1      43.805 -20.362   4.139  1.00  0.00     0.105 A 
HETATM   28  O   UNL     1      43.832 -18.945   2.364  1.00  0.00    -0.323 OA
HETATM   29  O   UNL     1      43.886 -21.240   3.105  1.00  0.00    -0.323 OA
HETATM   30  C   UNL     1      43.755 -20.692   5.475  1.00  0.00     0.042 A 
HETATM   31  C   UNL     1      43.903 -20.335   1.981  1.00  0.00     0.352 A 
HETATM   32  C   UNL     1      43.672 -19.642   6.395  1.00  0.00     0.040 A 
ENDBRANCH  23  24
ENDBRANCH  22  23
ENDBRANCH  21  22
ENDBRANCH  19  20
ENDBRANCH   2  19
TORSDOF 8
ENDMDL
MODEL 2
REMARK VINA RESULT:      -8.7      2.556      3.367
REMARK  8 active torsions:
REMARK  status: ('A' for Active; 'I' for Inactive)
REMARK    1  A    between atoms: O_2  and  C_3 
REMARK    2  A    between atoms: C_5  and  C_6 
REMARK    3  A    between atoms: C_10  and  C_11 
REMARK       I    between atoms: C_11  and  N_12 
REMARK    4  A    between atoms: N_12  and  C_13 
REMARK    5  A    between atoms: C_13  and  C_14 
REMARK    6  A    between atoms: C_15  and  C_16 
REMARK    7  A    between atoms: C_16  and  O_17 
REMARK    8  A    between atoms: O_17  and  C_18 
ROOT
HETATM    1  C   UNL     1      45.529  -9.407   8.198  1.00  0.00     0.270 C 
HETATM    2  N   UNL     1      45.031 -10.516   7.565  1.00  0.00    -0.345 N 
HETATM    3  O   UNL     1      46.605  -8.902   7.895  1.00  0.00    -0.266 OA
HETATM    4  H   UNL     1      44.160 -10.923   7.869  1.00  0.00     0.163 HD
ENDROOT
BRANCH   1   5
HETATM    5  C   UNL     1      44.693  -8.872   9.238  1.00  0.00     0.120 A 
HETATM    6  N   UNL     1      43.975  -7.722   9.065  1.00  0.00    -0.272 N 
HETATM    7  N   UNL     1      43.218  -7.381  10.119  1.00  0.00    -0.174 NA
HETATM    8  H   UNL     1      43.956  -7.136   8.235  1.00  0.00     0.189 HD
HETATM    9  C   UNL     1      43.464  -8.330  11.034  1.00  0.00     0.089 A 
HETATM   10  C   UNL     1      44.388  -9.281  10.520  1.00  0.00     0.071 A 
BRANCH   9  11
HETATM   11  C   UNL     1      42.816  -8.328  12.347  1.00  0.00    -0.003 A 
HETATM   12  C   UNL     1      41.728  -9.175  12.603  1.00  0.00     0.050 A 
HETATM   13  C   UNL     1      41.122  -9.215  13.863  1.00  0.00     0.069 A 
HETATM   14  C   UNL     1      41.595  -8.382  14.877  1.00  0.00     0.037 A 
HETATM   15  C   UNL     1      42.669  -7.523  14.633  1.00  0.00     0.004 A 
HETATM   16  C   UNL     1      43.278  -7.497  13.376  1.00  0.00     0.014 A 
BRANCH  13  17
HETATM   17  O   UNL     1      40.087 -10.103  13.973  1.00  0.00    -0.356 OA
HETATM   18  C   UNL     1      39.538 -10.606  12.762  1.00  0.00     0.210 C 
ENDBRANCH  13  17
ENDBRANCH   9  11
ENDBRANCH   1   5
BRANCH   2  19
HETATM   19  C   UNL     1      45.756 -11.165   6.504  1.00  0.00     0.217 C 
BRANCH  19  20
HETATM   20  C   UNL     1      44.846 -11.426   5.386  1.00  0.00    -0.085 C 
HETATM   21  C   UNL     1      44.124 -11.650   4.451  1.00  0.00    -0.078 C 
BRANCH  21  22
HETATM   22  C   UNL     1      43.262 -11.933   3.295  1.00  0.00     0.269 C 
BRANCH  22  23
HETATM   23  O   UNL     1      42.322 -12.943   3.650  1.00  0.00    -0.339 OA
BRANCH  23  24
HETATM   24  C   UNL     1      42.703 -14.244   3.452  1.00  0.00     0.072 A 
HETATM   25  C   UNL     1      42.902 -15.201   4.452  1.00  0.00     0.076 A 
HETATM   26  C   UNL     1      43.293 -16.466   4.061  1.00  0.00     0.107 A 
HETATM   27  C   UNL     1      43.483 -16.798   2.741  1.00  0.00     0.105 A 
HETATM   28  O   UNL     1      43.532 -17.512   4.897  1.00  0.00    -0.323 OA
HETATM   29  O   UNL     1      43.864 -18.092   2.579  1.00  0.00    -0.323 OA
HETATM   30  C   UNL     1      43.294 -15.881   1.732  1.00  0.00     0.042 A 
HETATM   31  C   UNL     1      43.894 -18.540   3.950  1.00  0.00     0.352 A 
HETATM   32  C   UNL     1      42.900 -14.590   2.099  1.00  0.00     0.040 A 
ENDBRANCH  23  24
ENDBRANCH  22  23
ENDBRANCH  21  22
ENDBRANCH  19  20
ENDBRANCH   2  19
TORSDOF 8
ENDMDL
MODEL 3
REMARK VINA RESULT:      -8.6      1.600      2.122
REMARK  8 active torsions:
REMARK  status: ('A' for Active; 'I' for Inactive)
REMARK    1  A    between atoms: O_2  and  C_3 
REMARK    2  A    between atoms: C_5  and  C_6 
REMARK    3  A    between atoms: C_10  and  C_11 
REMARK       I    between atoms: C_11  and  N_12 
REMARK    4  A    between atoms: N_12  and  C_13 
REMARK    5  A    between atoms: C_13  and  C_14 
REMARK    6  A    between atoms: C_15  and  C_16 
REMARK    7  A    between atoms: C_16  and  O_17 
REMARK    8  A    between atoms: O_17  and  C_18 
ROOT
HETATM    1  C   UNL     1      44.672 -10.343   9.140  1.00  0.00     0.270 C 
HETATM    2  N   UNL     1      43.998 -11.178   8.288  1.00  0.00    -0.345 N 
HETATM    3  O   UNL     1      45.779  -9.884   8.876  1.00  0.00    -0.266 OA
HETATM    4  H   UNL     1      43.107 -11.565   8.558  1.00  0.00     0.163 HD
ENDROOT
BRANCH   1   5
HETATM    5  C   UNL     1      43.983 -10.035  10.363  1.00  0.00     0.120 A 
HETATM    6  N   UNL     1      43.425 -11.010  11.141  1.00  0.00    -0.272 N 
HETATM    7  N   UNL     1      42.852 -10.557  12.267  1.00  0.00    -0.174 NA
HETATM    8  H   UNL     1      43.420 -12.009  10.954  1.00  0.00     0.189 HD
HETATM    9  C   UNL     1      43.016  -9.227  12.219  1.00  0.00     0.089 A 
HETATM   10  C   UNL     1      43.718  -8.859  11.037  1.00  0.00     0.071 A 
BRANCH   9  11
HETATM   11  C   UNL     1      42.532  -8.346  13.284  1.00  0.00    -0.003 A 
HETATM   12  C   UNL     1      42.549  -6.953  13.116  1.00  0.00     0.050 A 
HETATM   13  C   UNL     1      42.055  -6.098  14.107  1.00  0.00     0.069 A 
HETATM   14  C   UNL     1      41.555  -6.640  15.292  1.00  0.00     0.037 A 
HETATM   15  C   UNL     1      41.544  -8.024  15.478  1.00  0.00     0.004 A 
HETATM   16  C   UNL     1      42.028  -8.873  14.480  1.00  0.00     0.014 A 
BRANCH  13  17
HETATM   17  O   UNL     1      42.116  -4.767  13.798  1.00  0.00    -0.356 OA
HETATM   18  C   UNL     1      42.018  -4.420  12.422  1.00  0.00     0.210 C 
ENDBRANCH  13  17
ENDBRANCH   9  11
ENDBRANCH   1   5
BRANCH   2  19
HETATM   19  C   UNL     1      44.562 -11.579   7.025  1.00  0.00     0.217 C 
BRANCH  19  20
HETATM   20  C   UNL     1      44.076 -12.918   6.682  1.00  0.00    -0.085 C 
HETATM   21  C   UNL     1      43.707 -14.027   6.401  1.00  0.00    -0.078 C 
BRANCH  21  22
HETATM   22  C   UNL     1      43.281 -15.391   6.059  1.00  0.00     0.269 C 
BRANCH  22  23
HETATM   23  O   UNL     1      43.429 -15.588   4.655  1.00  0.00    -0.339 OA
BRANCH  23  24
HETATM   24  C   UNL     1      43.501 -16.883   4.214  1.00  0.00     0.072 A 
HETATM   25  C   UNL     1      43.961 -17.976   4.955  1.00  0.00     0.076 A 
HETATM   26  C   UNL     1      43.966 -19.212   4.339  1.00  0.00     0.107 A 
HETATM   27  C   UNL     1      43.536 -19.387   3.046  1.00  0.00     0.105 A 
HETATM   28  O   UNL     1      44.381 -20.376   4.909  1.00  0.00    -0.323 OA
HETATM   29  O   UNL     1      43.624 -20.681   2.638  1.00  0.00    -0.323 OA
HETATM   30  C   UNL     1      43.076 -18.333   2.289  1.00  0.00     0.042 A 
HETATM   31  C   UNL     1      44.161 -21.303   3.824  1.00  0.00     0.352 A 
HETATM   32  C   UNL     1      43.062 -17.068   2.887  1.00  0.00     0.040 A 
ENDBRANCH  23  24
ENDBRANCH  22  23
ENDBRANCH  21  22
ENDBRANCH  19  20
ENDBRANCH   2  19
TORSDOF 8
ENDMDL
MODEL 4
REMARK VINA RESULT:      -8.4      1.786      2.440
REMARK  8 active torsions:
REMARK  status: ('A' for Active; 'I' for Inactive)
REMARK    1  A    between atoms: O_2  and  C_3 
REMARK    2  A    between atoms: C_5  and  C_6 
REMARK    3  A    between atoms: C_10  and  C_11 
REMARK       I    between atoms: C_11  and  N_12 
REMARK    4  A    between atoms: N_12  and  C_13 
REMARK    5  A    between atoms: C_13  and  C_14 
REMARK    6  A    between atoms: C_15  and  C_16 
REMARK    7  A    between atoms: C_16  and  O_17 
REMARK    8  A    between atoms: O_17  and  C_18 
ROOT
HETATM    1  C   UNL     1      44.397 -10.438   9.811  1.00  0.00     0.270 C 
HETATM    2  N   UNL     1      43.820 -10.647   8.585  1.00  0.00    -0.345 N 
HETATM    3  O   UNL     1      45.573 -10.698  10.040  1.00  0.00    -0.266 OA
HETATM    4  H   UNL     1      42.840 -10.456   8.449  1.00  0.00     0.163 HD
ENDROOT
BRANCH   1   5
HETATM    5  C   UNL     1      43.523  -9.882  10.808  1.00  0.00     0.120 A 
HETATM    6  N   UNL     1      42.273 -10.388  11.034  1.00  0.00    -0.272 N 
HETATM    7  N   UNL     1      41.603  -9.779  12.024  1.00  0.00    -0.174 NA
HETATM    8  H   UNL     1      41.833 -11.162  10.546  1.00  0.00     0.189 HD
HETATM    9  C   UNL     1      42.433  -8.817  12.454  1.00  0.00     0.089 A 
HETATM   10  C   UNL     1      43.647  -8.846  11.713  1.00  0.00     0.071 A 
BRANCH   9  11
HETATM   11  C   UNL     1      42.075  -7.916  13.551  1.00  0.00    -0.003 A 
HETATM   12  C   UNL     1      41.628  -8.432  14.777  1.00  0.00     0.050 A 
HETATM   13  C   UNL     1      41.318  -7.587  15.848  1.00  0.00     0.069 A 
HETATM   14  C   UNL     1      41.436  -6.207  15.688  1.00  0.00     0.037 A 
HETATM   15  C   UNL     1      41.866  -5.678  14.469  1.00  0.00     0.004 A 
HETATM   16  C   UNL     1      42.186  -6.526  13.407  1.00  0.00     0.014 A 
BRANCH  13  17
HETATM   17  O   UNL     1      40.916  -8.231  16.987  1.00  0.00    -0.356 OA
HETATM   18  C   UNL     1      40.366  -7.426  18.022  1.00  0.00     0.210 C 
ENDBRANCH  13  17
ENDBRANCH   9  11
ENDBRANCH   1   5
BRANCH   2  19
HETATM   19  C   UNL     1      44.569 -11.200   7.487  1.00  0.00     0.217 C 
BRANCH  19  20
HETATM   20  C   UNL     1      44.004 -12.503   7.126  1.00  0.00    -0.085 C 
HETATM   21  C   UNL     1      43.564 -13.575   6.808  1.00  0.00    -0.078 C 
BRANCH  21  22
HETATM   22  C   UNL     1      43.047 -14.889   6.401  1.00  0.00     0.269 C 
BRANCH  22  23
HETATM   23  O   UNL     1      43.248 -15.057   5.000  1.00  0.00    -0.339 OA
BRANCH  23  24
HETATM   24  C   UNL     1      43.408 -16.340   4.546  1.00  0.00     0.072 A 
HETATM   25  C   UNL     1      43.715 -17.455   5.332  1.00  0.00     0.076 A 
HETATM   26  C   UNL     1      43.843 -18.673   4.695  1.00  0.00     0.107 A 
HETATM   27  C   UNL     1      43.678 -18.810   3.337  1.00  0.00     0.105 A 
HETATM   28  O   UNL     1      44.140 -19.854   5.301  1.00  0.00    -0.323 OA
HETATM   29  O   UNL     1      43.847 -20.092   2.919  1.00  0.00    -0.323 OA
HETATM   30  C   UNL     1      43.375 -17.733   2.535  1.00  0.00     0.042 A 
HETATM   31  C   UNL     1      44.140 -20.749   4.169  1.00  0.00     0.352 A 
HETATM   32  C   UNL     1      43.241 -16.486   3.153  1.00  0.00     0.040 A 
ENDBRANCH  23  24
ENDBRANCH  22  23
ENDBRANCH  21  22
ENDBRANCH  19  20
ENDBRANCH   2  19
TORSDOF 8
ENDMDL
MODEL 5
REMARK VINA RESULT:      -8.2      6.109      9.888
REMARK  8 active torsions:
REMARK  status: ('A' for Active; 'I' for Inactive)
REMARK    1  A    between atoms: O_2  and  C_3 
REMARK    2  A    between atoms: C_5  and  C_6 
REMARK    3  A    between atoms: C_10  and  C_11 
REMARK       I    between atoms: C_11  and  N_12 
REMARK    4  A    between atoms: N_12  and  C_13 
REMARK    5  A    between atoms: C_13  and  C_14 
REMARK    6  A    between atoms: C_15  and  C_16 
REMARK    7  A    between atoms: C_16  and  O_17 
REMARK    8  A    between atoms: O_17  and  C_18 
ROOT
HETATM    1  C   UNL     1      40.904 -13.710   4.063  1.00  0.00     0.270 C 
HETATM    2  N   UNL     1      42.253 -13.595   4.276  1.00  0.00    -0.345 N 
HETATM    3  O   UNL     1      40.078 -13.534   4.953  1.00  0.00    -0.266 OA
HETATM    4  H   UNL     1      42.901 -13.786   3.527  1.00  0.00     0.163 HD
ENDROOT
BRANCH   1   5
HETATM    5  C   UNL     1      40.525 -14.044   2.717  1.00  0.00     0.120 A 
HETATM    6  N   UNL     1      40.449 -15.341   2.292  1.00  0.00    -0.272 N 
HETATM    7  N   UNL     1      40.045 -15.480   1.020  1.00  0.00    -0.174 NA
HETATM    8  H   UNL     1      40.649 -16.173   2.838  1.00  0.00     0.189 HD
HETATM    9  C   UNL     1      39.871 -14.225   0.579  1.00  0.00     0.089 A 
HETATM   10  C   UNL     1      40.166 -13.295   1.614  1.00  0.00     0.071 A 
BRANCH   9  11
HETATM   11  C   UNL     1      39.418 -13.936  -0.782  1.00  0.00    -0.003 A 
HETATM   12  C   UNL     1      39.258 -12.610  -1.211  1.00  0.00     0.050 A 
HETATM   13  C   UNL     1      38.863 -12.314  -2.520  1.00  0.00     0.069 A 
HETATM   14  C   UNL     1      38.603 -13.358  -3.409  1.00  0.00     0.037 A 
HETATM   15  C   UNL     1      38.743 -14.683  -2.992  1.00  0.00     0.004 A 
HETATM   16  C   UNL     1      39.151 -14.972  -1.687  1.00  0.00     0.014 A 
BRANCH  13  17
HETATM   17  O   UNL     1      38.770 -10.979  -2.803  1.00  0.00    -0.356 OA
HETATM   18  C   UNL     1      39.958 -10.209  -2.672  1.00  0.00     0.210 C 
ENDBRANCH  13  17
ENDBRANCH   9  11
ENDBRANCH   1   5
BRANCH   2  19
HETATM   19  C   UNL     1      42.785 -13.267   5.573  1.00  0.00     0.217 C 
BRANCH  19  20
HETATM   20  C   UNL     1      43.361 -14.471   6.177  1.00  0.00    -0.085 C 
HETATM   21  C   UNL     1      43.827 -15.475   6.646  1.00  0.00    -0.078 C 
BRANCH  21  22
HETATM   22  C   UNL     1      44.393 -16.715   7.195  1.00  0.00     0.269 C 
BRANCH  22  23
HETATM   23  O   UNL     1      43.435 -17.762   7.067  1.00  0.00    -0.339 OA
BRANCH  23  24
HETATM   24  C   UNL     1      43.570 -18.599   5.991  1.00  0.00     0.072 A 
HETATM   25  C   UNL     1      43.619 -18.206   4.650  1.00  0.00     0.076 A 
HETATM   26  C   UNL     1      43.753 -19.196   3.696  1.00  0.00     0.107 A 
HETATM   27  C   UNL     1      43.841 -20.527   4.029  1.00  0.00     0.105 A 
HETATM   28  O   UNL     1      43.815 -18.994   2.352  1.00  0.00    -0.323 OA
HETATM   29  O   UNL     1      43.969 -21.328   2.940  1.00  0.00    -0.323 OA
HETATM   30  C   UNL     1      43.797 -20.946   5.340  1.00  0.00     0.042 A 
HETATM   31  C   UNL     1      43.952 -20.351   1.879  1.00  0.00     0.352 A 
HETATM   32  C   UNL     1      43.659 -19.965   6.327  1.00  0.00     0.040 A 
ENDBRANCH  23  24
ENDBRANCH  22  23
ENDBRANCH  21  22
ENDBRANCH  19  20
ENDBRANCH   2  19
TORSDOF 8
ENDMDL
MODEL 6
REMARK VINA RESULT:      -8.2      7.025     11.502
REMARK  8 active torsions:
REMARK  status: ('A' for Active; 'I' for Inactive)
REMARK    1  A    between atoms: O_2  and  C_3 
REMARK    2  A    between atoms: C_5  and  C_6 
REMARK    3  A    between atoms: C_10  and  C_11 
REMARK       I    between atoms: C_11  and  N_12 
REMARK    4  A    between atoms: N_12  and  C_13 
REMARK    5  A    between atoms: C_13  and  C_14 
REMARK    6  A    between atoms: C_15  and  C_16 
REMARK    7  A    between atoms: C_16  and  O_17 
REMARK    8  A    between atoms: O_17  and  C_18 
ROOT
HETATM    1  C   UNL     1      40.102 -13.782  -0.156  1.00  0.00     0.270 C 
HETATM    2  N   UNL     1      40.764 -13.870  -1.352  1.00  0.00    -0.345 N 
HETATM    3  O   UNL     1      39.179 -12.995   0.032  1.00  0.00    -0.266 OA
HETATM    4  H   UNL     1      41.542 -14.503  -1.454  1.00  0.00     0.163 HD
ENDROOT
BRANCH   1   5
HETATM    5  C   UNL     1      40.561 -14.687   0.863  1.00  0.00     0.120 A 
HETATM    6  N   UNL     1      39.731 -15.141   1.850  1.00  0.00    -0.272 N 
HETATM    7  N   UNL     1      40.307 -16.008   2.698  1.00  0.00    -0.174 NA
HETATM    8  H   UNL     1      38.754 -14.899   1.982  1.00  0.00     0.189 HD
HETATM    9  C   UNL     1      41.573 -16.112   2.268  1.00  0.00     0.089 A 
HETATM   10  C   UNL     1      41.773 -15.295   1.121  1.00  0.00     0.071 A 
BRANCH   9  11
HETATM   11  C   UNL     1      42.548 -16.983   2.929  1.00  0.00    -0.003 A 
HETATM   12  C   UNL     1      43.130 -16.602   4.147  1.00  0.00     0.050 A 
HETATM   13  C   UNL     1      44.034 -17.439   4.811  1.00  0.00     0.069 A 
HETATM   14  C   UNL     1      44.378 -18.664   4.240  1.00  0.00     0.037 A 
HETATM   15  C   UNL     1      43.817 -19.050   3.020  1.00  0.00     0.004 A 
HETATM   16  C   UNL     1      42.906 -18.216   2.369  1.00  0.00     0.014 A 
BRANCH  13  17
HETATM   17  O   UNL     1      44.503 -16.947   5.998  1.00  0.00    -0.356 OA
HETATM   18  C   UNL     1      43.892 -15.762   6.491  1.00  0.00     0.210 C 
ENDBRANCH  13  17
ENDBRANCH   9  11
ENDBRANCH   1   5
BRANCH   2  19
HETATM   19  C   UNL     1      40.419 -13.026  -2.466  1.00  0.00     0.217 C 
BRANCH  19  20
HETATM   20  C   UNL     1      40.905 -11.667  -2.212  1.00  0.00    -0.085 C 
HETATM   21  C   UNL     1      41.284 -10.551  -1.978  1.00  0.00    -0.078 C 
BRANCH  21  22
HETATM   22  C   UNL     1      41.733  -9.186  -1.670  1.00  0.00     0.269 C 
BRANCH  22  23
HETATM   23  O   UNL     1      42.258  -9.156  -0.345  1.00  0.00    -0.339 OA
BRANCH  23  24
HETATM   24  C   UNL     1      41.458  -9.651   0.651  1.00  0.00     0.072 A 
HETATM   25  C   UNL     1      41.695 -10.815   1.389  1.00  0.00     0.076 A 
HETATM   26  C   UNL     1      40.770 -11.162   2.355  1.00  0.00     0.107 A 
HETATM   27  C   UNL     1      39.651 -10.404   2.601  1.00  0.00     0.105 A 
HETATM   28  O   UNL     1      40.841 -12.257   3.158  1.00  0.00    -0.323 OA
HETATM   29  O   UNL     1      38.878 -10.925   3.590  1.00  0.00    -0.323 OA
HETATM   30  C   UNL     1      39.389  -9.252   1.894  1.00  0.00     0.042 A 
HETATM   31  C   UNL     1      39.638 -12.100   3.939  1.00  0.00     0.352 A 
HETATM   32  C   UNL     1      40.307  -8.878   0.908  1.00  0.00     0.040 A 
ENDBRANCH  23  24
ENDBRANCH  22  23
ENDBRANCH  21  22
ENDBRANCH  19  20
ENDBRANCH   2  19
TORSDOF 8
ENDMDL
MODEL 7
REMARK VINA RESULT:      -8.2      2.849     10.982
REMARK  8 active torsions:
REMARK  status: ('A' for Active; 'I' for Inactive)
REMARK    1  A    between atoms: O_2  and  C_3 
REMARK    2  A    between atoms: C_5  and  C_6 
REMARK    3  A    between atoms: C_10  and  C_11 
REMARK       I    between atoms: C_11  and  N_12 
REMARK    4  A    between atoms: N_12  and  C_13 
REMARK    5  A    between atoms: C_13  and  C_14 
REMARK    6  A    between atoms: C_15  and  C_16 
REMARK    7  A    between atoms: C_16  and  O_17 
REMARK    8  A    between atoms: O_17  and  C_18 
ROOT
HETATM    1  C   UNL     1      39.903 -12.185   6.051  1.00  0.00     0.270 C 
HETATM    2  N   UNL     1      40.378 -10.944   6.386  1.00  0.00    -0.345 N 
HETATM    3  O   UNL     1      38.705 -12.449   6.029  1.00  0.00    -0.266 OA
HETATM    4  H   UNL     1      41.372 -10.777   6.430  1.00  0.00     0.163 HD
ENDROOT
BRANCH   1   5
HETATM    5  C   UNL     1      40.911 -13.153   5.716  1.00  0.00     0.120 A 
HETATM    6  N   UNL     1      42.129 -13.169   6.337  1.00  0.00    -0.272 N 
HETATM    7  N   UNL     1      42.940 -14.159   5.935  1.00  0.00    -0.174 NA
HETATM    8  H   UNL     1      42.453 -12.530   7.057  1.00  0.00     0.189 HD
HETATM    9  C   UNL     1      42.240 -14.810   4.993  1.00  0.00     0.089 A 
HETATM   10  C   UNL     1      40.963 -14.206   4.825  1.00  0.00     0.071 A 
BRANCH   9  11
HETATM   11  C   UNL     1      42.775 -15.982   4.298  1.00  0.00    -0.003 A 
HETATM   12  C   UNL     1      43.279 -17.070   5.025  1.00  0.00     0.050 A 
HETATM   13  C   UNL     1      43.760 -18.213   4.377  1.00  0.00     0.069 A 
HETATM   14  C   UNL     1      43.756 -18.263   2.983  1.00  0.00     0.037 A 
HETATM   15  C   UNL     1      43.271 -17.181   2.246  1.00  0.00     0.004 A 
HETATM   16  C   UNL     1      42.781 -16.047   2.898  1.00  0.00     0.014 A 
BRANCH  13  17
HETATM   17  O   UNL     1      44.199 -19.203   5.213  1.00  0.00    -0.356 OA
HETATM   18  C   UNL     1      44.140 -20.536   4.721  1.00  0.00     0.210 C 
ENDBRANCH  13  17
ENDBRANCH   9  11
ENDBRANCH   1   5
BRANCH   2  19
HETATM   19  C   UNL     1      39.489  -9.871   6.748  1.00  0.00     0.217 C 
BRANCH  19  20
HETATM   20  C   UNL     1      39.635  -9.583   8.177  1.00  0.00    -0.085 C 
HETATM   21  C   UNL     1      39.773  -9.372   9.352  1.00  0.00    -0.078 C 
BRANCH  21  22
HETATM   22  C   UNL     1      39.958  -9.136  10.791  1.00  0.00     0.269 C 
BRANCH  22  23
HETATM   23  O   UNL     1      41.066  -8.259  10.981  1.00  0.00    -0.339 OA
BRANCH  23  24
HETATM   24  C   UNL     1      42.274  -8.669  10.482  1.00  0.00     0.072 A 
HETATM   25  C   UNL     1      43.061  -7.967   9.564  1.00  0.00     0.076 A 
HETATM   26  C   UNL     1      44.254  -8.542   9.169  1.00  0.00     0.107 A 
HETATM   27  C   UNL     1      44.674  -9.758   9.651  1.00  0.00     0.105 A 
HETATM   28  O   UNL     1      45.136  -8.002   8.286  1.00  0.00    -0.323 OA
HETATM   29  O   UNL     1      45.873 -10.137   9.134  1.00  0.00    -0.323 OA
HETATM   30  C   UNL     1      43.924 -10.474  10.557  1.00  0.00     0.042 A 
HETATM   31  C   UNL     1      46.160  -9.019   8.269  1.00  0.00     0.352 A 
HETATM   32  C   UNL     1      42.710  -9.917  10.972  1.00  0.00     0.040 A 
ENDBRANCH  23  24
ENDBRANCH  22  23
ENDBRANCH  21  22
ENDBRANCH  19  20
ENDBRANCH   2  19
TORSDOF 8
ENDMDL
MODEL 8
REMARK VINA RESULT:      -8.2      2.797     11.001
REMARK  8 active torsions:
REMARK  status: ('A' for Active; 'I' for Inactive)
REMARK    1  A    between atoms: O_2  and  C_3 
REMARK    2  A    between atoms: C_5  and  C_6 
REMARK    3  A    between atoms: C_10  and  C_11 
REMARK       I    between atoms: C_11  and  N_12 
REMARK    4  A    between atoms: N_12  and  C_13 
REMARK    5  A    between atoms: C_13  and  C_14 
REMARK    6  A    between atoms: C_15  and  C_16 
REMARK    7  A    between atoms: C_16  and  O_17 
REMARK    8  A    between atoms: O_17  and  C_18 
ROOT
HETATM    1  C   UNL     1      44.330 -11.306   8.026  1.00  0.00     0.270 C 
HETATM    2  N   UNL     1      45.051 -10.312   7.419  1.00  0.00    -0.345 N 
HETATM    3  O   UNL     1      44.222 -11.393   9.245  1.00  0.00    -0.266 OA
HETATM    4  H   UNL     1      45.148 -10.298   6.416  1.00  0.00     0.163 HD
ENDROOT
BRANCH   1   5
HETATM    5  C   UNL     1      43.701 -12.237   7.130  1.00  0.00     0.120 A 
HETATM    6  N   UNL     1      42.456 -12.009   6.612  1.00  0.00    -0.272 N 
HETATM    7  N   UNL     1      42.031 -12.957   5.763  1.00  0.00    -0.174 NA
HETATM    8  H   UNL     1      41.858 -11.210   6.797  1.00  0.00     0.189 HD
HETATM    9  C   UNL     1      43.023 -13.860   5.737  1.00  0.00     0.089 A 
HETATM   10  C   UNL     1      44.087 -13.445   6.585  1.00  0.00     0.071 A 
BRANCH   9  11
HETATM   11  C   UNL     1      42.954 -15.066   4.910  1.00  0.00    -0.003 A 
HETATM   12  C   UNL     1      42.112 -15.111   3.789  1.00  0.00     0.050 A 
HETATM   13  C   UNL     1      42.062 -16.241   2.966  1.00  0.00     0.069 A 
HETATM   14  C   UNL     1      42.849 -17.350   3.278  1.00  0.00     0.037 A 
HETATM   15  C   UNL     1      43.682 -17.325   4.398  1.00  0.00     0.004 A 
HETATM   16  C   UNL     1      43.737 -16.189   5.209  1.00  0.00     0.014 A 
BRANCH  13  17
HETATM   17  O   UNL     1      41.213 -16.135   1.898  1.00  0.00    -0.356 OA
HETATM   18  C   UNL     1      39.935 -15.564   2.146  1.00  0.00     0.210 C 
ENDBRANCH  13  17
ENDBRANCH   9  11
ENDBRANCH   1   5
BRANCH   2  19
HETATM   19  C   UNL     1      45.741  -9.307   8.187  1.00  0.00     0.217 C 
BRANCH  19  20
HETATM   20  C   UNL     1      44.777  -8.302   8.643  1.00  0.00    -0.085 C 
HETATM   21  C   UNL     1      43.964  -7.500   9.016  1.00  0.00    -0.078 C 
BRANCH  21  22
HETATM   22  C   UNL     1      42.950  -6.538   9.470  1.00  0.00     0.269 C 
BRANCH  22  23
HETATM   23  O   UNL     1      42.921  -6.529  10.895  1.00  0.00    -0.339 OA
BRANCH  23  24
HETATM   24  C   UNL     1      42.265  -7.563  11.509  1.00  0.00     0.072 A 
HETATM   25  C   UNL     1      41.049  -8.119  11.100  1.00  0.00     0.076 A 
HETATM   26  C   UNL     1      40.534  -9.159  11.850  1.00  0.00     0.107 A 
HETATM   27  C   UNL     1      41.178  -9.648  12.962  1.00  0.00     0.105 A 
HETATM   28  O   UNL     1      39.367  -9.811  11.599  1.00  0.00    -0.323 OA
HETATM   29  O   UNL     1      40.499 -10.668  13.549  1.00  0.00    -0.323 OA
HETATM   30  C   UNL     1      42.376  -9.123  13.390  1.00  0.00     0.042 A 
HETATM   31  C   UNL     1      39.352 -10.767  12.680  1.00  0.00     0.352 A 
HETATM   32  C   UNL     1      42.920  -8.068  12.651  1.00  0.00     0.040 A 
ENDBRANCH  23  24
ENDBRANCH  22  23
ENDBRANCH  21  22
ENDBRANCH  19  20
ENDBRANCH   2  19
TORSDOF 8
ENDMDL
MODEL 9
REMARK VINA RESULT:      -8.2      7.277     11.636
REMARK  8 active torsions:
REMARK  status: ('A' for Active; 'I' for Inactive)
REMARK    1  A    between atoms: O_2  and  C_3 
REMARK    2  A    between atoms: C_5  and  C_6 
REMARK    3  A    between atoms: C_10  and  C_11 
REMARK       I    between atoms: C_11  and  N_12 
REMARK    4  A    between atoms: N_12  and  C_13 
REMARK    5  A    between atoms: C_13  and  C_14 
REMARK    6  A    between atoms: C_15  and  C_16 
REMARK    7  A    between atoms: C_16  and  O_17 
REMARK    8  A    between atoms: O_17  and  C_18 
ROOT
HETATM    1  C   UNL     1      42.666 -12.206   2.727  1.00  0.00     0.270 C 
HETATM    2  N   UNL     1      41.427 -11.849   2.262  1.00  0.00    -0.345 N 
HETATM    3  O   UNL     1      43.507 -11.380   3.067  1.00  0.00    -0.266 OA
HETATM    4  H   UNL     1      40.779 -12.558   1.956  1.00  0.00     0.163 HD
ENDROOT
BRANCH   1   5
HETATM    5  C   UNL     1      42.906 -13.622   2.797  1.00  0.00     0.120 A 
HETATM    6  N   UNL     1      43.163 -14.365   1.679  1.00  0.00    -0.272 N 
HETATM    7  N   UNL     1      43.402 -15.662   1.923  1.00  0.00    -0.174 NA
HETATM    8  H   UNL     1      43.200 -14.029   0.721  1.00  0.00     0.189 HD
HETATM    9  C   UNL     1      43.274 -15.787   3.252  1.00  0.00     0.089 A 
HETATM   10  C   UNL     1      42.960 -14.529   3.837  1.00  0.00     0.071 A 
BRANCH   9  11
HETATM   11  C   UNL     1      43.469 -17.068   3.934  1.00  0.00    -0.003 A 
HETATM   12  C   UNL     1      43.635 -18.248   3.195  1.00  0.00     0.050 A 
HETATM   13  C   UNL     1      43.860 -19.475   3.830  1.00  0.00     0.069 A 
HETATM   14  C   UNL     1      43.899 -19.527   5.223  1.00  0.00     0.037 A 
HETATM   15  C   UNL     1      43.721 -18.363   5.972  1.00  0.00     0.004 A 
HETATM   16  C   UNL     1      43.509 -17.139   5.333  1.00  0.00     0.014 A 
BRANCH  13  17
HETATM   17  O   UNL     1      44.026 -20.536   2.982  1.00  0.00    -0.356 OA
HETATM   18  C   UNL     1      43.468 -20.414   1.680  1.00  0.00     0.210 C 
ENDBRANCH  13  17
ENDBRANCH   9  11
ENDBRANCH   1   5
BRANCH   2  19
HETATM   19  C   UNL     1      41.042 -10.468   2.133  1.00  0.00     0.217 C 
BRANCH  19  20
HETATM   20  C   UNL     1      41.316 -10.015   0.767  1.00  0.00    -0.085 C 
HETATM   21  C   UNL     1      41.511  -9.654  -0.362  1.00  0.00    -0.078 C 
BRANCH  21  22
HETATM   22  C   UNL     1      41.725  -9.219  -1.750  1.00  0.00     0.269 C 
BRANCH  22  23
HETATM   23  O   UNL     1      40.470  -9.169  -2.422  1.00  0.00    -0.339 OA
BRANCH  23  24
HETATM   24  C   UNL     1      39.772 -10.345  -2.521  1.00  0.00     0.072 A 
HETATM   25  C   UNL     1      40.288 -11.570  -2.954  1.00  0.00     0.076 A 
HETATM   26  C   UNL     1      39.429 -12.651  -2.992  1.00  0.00     0.107 A 
HETATM   27  C   UNL     1      38.110 -12.550  -2.621  1.00  0.00     0.105 A 
HETATM   28  O   UNL     1      39.761 -13.909  -3.388  1.00  0.00    -0.323 OA
HETATM   29  O   UNL     1      37.446 -13.730  -2.734  1.00  0.00    -0.323 OA
HETATM   30  C   UNL     1      37.570 -11.359  -2.189  1.00  0.00     0.042 A 
HETATM   31  C   UNL     1      38.498 -14.588  -3.221  1.00  0.00     0.352 A 
HETATM   32  C   UNL     1      38.417 -10.247  -2.142  1.00  0.00     0.040 A 
ENDBRANCH  23  24
ENDBRANCH  22  23
ENDBRANCH  21  22
ENDBRANCH  19  20
ENDBRANCH   2  19
TORSDOF 8
ENDMDL
MODEL 10
REMARK VINA RESULT:      -8.0      2.227      3.078
REMARK  8 active torsions:
REMARK  status: ('A' for Active; 'I' for Inactive)
REMARK    1  A    between atoms: O_2  and  C_3 
REMARK    2  A    between atoms: C_5  and  C_6 
REMARK    3  A    between atoms: C_10  and  C_11 
REMARK       I    between atoms: C_11  and  N_12 
REMARK    4  A    between atoms: N_12  and  C_13 
REMARK    5  A    between atoms: C_13  and  C_14 
REMARK    6  A    between atoms: C_15  and  C_16 
REMARK    7  A    between atoms: C_16  and  O_17 
REMARK    8  A    between atoms: O_17  and  C_18 
ROOT
HETATM    1  C   UNL     1      44.220 -10.948   5.585  1.00  0.00     0.270 C 
HETATM    2  N   UNL     1      43.066 -10.872   4.849  1.00  0.00    -0.345 N 
HETATM    3  O   UNL     1      45.310 -11.196   5.080  1.00  0.00    -0.266 OA
HETATM    4  H   UNL     1      42.184 -10.704   5.308  1.00  0.00     0.163 HD
ENDROOT
BRANCH   1   5
HETATM    5  C   UNL     1      44.061 -10.707   6.994  1.00  0.00     0.120 A 
HETATM    6  N   UNL     1      44.464 -11.616   7.931  1.00  0.00    -0.272 N 
HETATM    7  N   UNL     1      44.279 -11.220   9.199  1.00  0.00    -0.174 NA
HETATM    8  H   UNL     1      44.888 -12.523   7.755  1.00  0.00     0.189 HD
HETATM    9  C   UNL     1      43.708 -10.011   9.096  1.00  0.00     0.089 A 
HETATM   10  C   UNL     1      43.551  -9.655   7.728  1.00  0.00     0.071 A 
BRANCH   9  11
HETATM   11  C   UNL     1      43.347  -9.220  10.275  1.00  0.00    -0.003 A 
HETATM   12  C   UNL     1      43.092  -7.846  10.158  1.00  0.00     0.050 A 
HETATM   13  C   UNL     1      42.708  -7.083  11.266  1.00  0.00     0.069 A 
HETATM   14  C   UNL     1      42.597  -7.697  12.514  1.00  0.00     0.037 A 
HETATM   15  C   UNL     1      42.861  -9.061  12.648  1.00  0.00     0.004 A 
HETATM   16  C   UNL     1      43.232  -9.820  11.536  1.00  0.00     0.014 A 
BRANCH  13  17
HETATM   17  O   UNL     1      42.472  -5.762  10.998  1.00  0.00    -0.356 OA
HETATM   18  C   UNL     1      41.870  -5.457   9.747  1.00  0.00     0.210 C 
ENDBRANCH  13  17
ENDBRANCH   9  11
ENDBRANCH   1   5
BRANCH   2  19
HETATM   19  C   UNL     1      43.066 -11.093   3.427  1.00  0.00     0.217 C 
BRANCH  19  20
HETATM   20  C   UNL     1      43.099 -12.534   3.161  1.00  0.00    -0.085 C 
HETATM   21  C   UNL     1      43.110 -13.711   2.917  1.00  0.00    -0.078 C 
BRANCH  21  22
HETATM   22  C   UNL     1      43.110 -15.144   2.595  1.00  0.00     0.269 C 
BRANCH  22  23
HETATM   23  O   UNL     1      43.178 -15.894   3.806  1.00  0.00    -0.339 OA
BRANCH  23  24
HETATM   24  C   UNL     1      43.378 -17.245   3.688  1.00  0.00     0.072 A 
HETATM   25  C   UNL     1      43.863 -18.091   4.690  1.00  0.00     0.076 A 
HETATM   26  C   UNL     1      44.004 -19.431   4.386  1.00  0.00     0.107 A 
HETATM   27  C   UNL     1      43.683 -19.938   3.150  1.00  0.00     0.105 A 
HETATM   28  O   UNL     1      44.462 -20.389   5.236  1.00  0.00    -0.323 OA
HETATM   29  O   UNL     1      43.897 -21.277   3.066  1.00  0.00    -0.323 OA
HETATM   30  C   UNL     1      43.202 -19.133   2.142  1.00  0.00     0.042 A 
HETATM   31  C   UNL     1      44.391 -21.558   4.391  1.00  0.00     0.352 A 
HETATM   32  C   UNL     1      43.051 -17.771   2.421  1.00  0.00     0.040 A 
ENDBRANCH  23  24
ENDBRANCH  22  23
ENDBRANCH  21  22
ENDBRANCH  19  20
ENDBRANCH   2  19
TORSDOF 8
ENDMDL
