MODEL 1
REMARK VINA RESULT:      -8.6      0.000      0.000
REMARK  8 active torsions:
REMARK  status: ('A' for Active; 'I' for Inactive)
REMARK    1  A    between atoms: C_4  and  N_5 
REMARK    2  A    between atoms: N_8  and  C_10 
REMARK    3  A    between atoms: C_10  and  C_11 
REMARK    4  A    between atoms: C_11  and  C_12 
REMARK       I    between atoms: C_12  and  N_13 
REMARK    5  A    between atoms: N_13  and  N_14 
REMARK    6  A    between atoms: N_14  and  C_15 
REMARK    7  A    between atoms: C_15  and  N_16 
REMARK    8  A    between atoms: N_16  and  C_17 
ROOT
HETATM    1  C   UNL     1      43.989 -11.657   7.522  1.00  0.00     0.237 C 
HETATM    2  N   UNL     1      43.566 -12.905   7.143  1.00  0.00    -0.268 N 
HETATM    3  O   UNL     1      45.112 -11.474   7.986  1.00  0.00    -0.272 OA
HETATM    4  H   UNL     1      44.122 -13.705   7.453  1.00  0.00     0.190 HD
ENDROOT
BRANCH   1   5
HETATM    5  C   UNL     1      43.068 -10.489   7.261  1.00  0.00     0.132 C 
BRANCH   5   6
HETATM    6  C   UNL     1      43.192  -9.508   8.412  1.00  0.00     0.244 C 
BRANCH   6   7
HETATM    7  N   UNL     1      42.637 -10.078   9.704  1.00  0.00    -0.068 N 
HETATM    8  C   UNL     1      43.749 -10.194  10.762  1.00  0.00     0.254 C 
HETATM    9  C   UNL     1      43.204 -10.782  12.080  1.00  0.00     0.150 C 
HETATM   10  N   UNL     1      42.033 -10.027  12.560  1.00  0.00    -0.378 N 
HETATM   11  C   UNL     1      40.938  -9.934  11.575  1.00  0.00     0.150 C 
HETATM   12  C   UNL     1      41.443  -9.291  10.265  1.00  0.00     0.254 C 
HETATM   13  H   UNL     1      42.311 -11.037   9.517  1.00  0.00     0.280 HD
BRANCH  10  14
HETATM   14  C   UNL     1      42.180  -8.960  13.449  1.00  0.00     0.030 A 
HETATM   15  C   UNL     1      43.197  -7.999  13.344  1.00  0.00     0.029 A 
HETATM   16  C   UNL     1      43.313  -6.943  14.260  1.00  0.00     0.002 A 
HETATM   17  C   UNL     1      42.421  -6.833  15.320  1.00  0.00     0.000 A 
HETATM   18  C   UNL     1      41.423  -7.785  15.469  1.00  0.00     0.002 A 
HETATM   19  C   UNL     1      41.312  -8.833  14.548  1.00  0.00     0.029 A 
ENDBRANCH  10  14
ENDBRANCH   6   7
ENDBRANCH   5   6
ENDBRANCH   1   5
BRANCH   2  20
HETATM   20  N   UNL     1      42.258 -13.151   6.700  1.00  0.00    -0.274 N 
HETATM   21  H   UNL     1      41.805 -12.336   6.295  1.00  0.00     0.189 HD
BRANCH  20  22
HETATM   22  C   UNL     1      41.949 -14.315   6.044  1.00  0.00     0.191 C 
HETATM   23  S   UNL     1      40.590 -15.247   6.343  1.00  0.00    -0.039 SA
BRANCH  22  24
HETATM   24  N   UNL     1      42.728 -14.675   4.978  1.00  0.00    -0.331 N 
HETATM   25  H   UNL     1      43.276 -13.879   4.657  1.00  0.00     0.168 HD
BRANCH  24  26
HETATM   26  C   UNL     1      43.162 -15.938   4.500  1.00  0.00     0.056 A 
HETATM   27  C   UNL     1      43.922 -16.901   5.186  1.00  0.00     0.060 A 
HETATM   28 CL   UNL     1      44.301 -16.808   6.872  1.00  0.00    -0.082 Cl
HETATM   29  C   UNL     1      44.320 -18.083   4.543  1.00  0.00     0.026 A 
HETATM   30  C   UNL     1      43.938 -18.338   3.229  1.00  0.00     0.002 A 
HETATM   31  C   UNL     1      43.131 -17.426   2.561  1.00  0.00     0.002 A 
HETATM   32  C   UNL     1      42.736 -16.245   3.196  1.00  0.00     0.031 A 
ENDBRANCH  24  26
ENDBRANCH  22  24
ENDBRANCH  20  22
ENDBRANCH   2  20
TORSDOF 8
ENDMDL
MODEL 2
REMARK VINA RESULT:      -8.3      4.010      9.974
REMARK  8 active torsions:
REMARK  status: ('A' for Active; 'I' for Inactive)
REMARK    1  A    between atoms: C_4  and  N_5 
REMARK    2  A    between atoms: N_8  and  C_10 
REMARK    3  A    between atoms: C_10  and  C_11 
REMARK    4  A    between atoms: C_11  and  C_12 
REMARK       I    between atoms: C_12  and  N_13 
REMARK    5  A    between atoms: N_13  and  N_14 
REMARK    6  A    between atoms: N_14  and  C_15 
REMARK    7  A    between atoms: C_15  and  N_16 
REMARK    8  A    between atoms: N_16  and  C_17 
ROOT
HETATM    1  C   UNL     1      40.581 -12.416   5.230  1.00  0.00     0.237 C 
HETATM    2  N   UNL     1      40.799 -11.149   5.708  1.00  0.00    -0.268 N 
HETATM    3  O   UNL     1      40.754 -12.692   4.046  1.00  0.00    -0.272 OA
HETATM    4  H   UNL     1      40.900 -10.398   5.022  1.00  0.00     0.190 HD
ENDROOT
BRANCH   1   5
HETATM    5  C   UNL     1      40.214 -13.492   6.223  1.00  0.00     0.132 C 
BRANCH   5   6
HETATM    6  C   UNL     1      40.314 -14.840   5.535  1.00  0.00     0.244 C 
BRANCH   6   7
HETATM    7  N   UNL     1      41.729 -15.140   5.077  1.00  0.00    -0.068 N 
HETATM    8  C   UNL     1      42.441 -16.052   6.093  1.00  0.00     0.254 C 
HETATM    9  C   UNL     1      43.886 -16.358   5.647  1.00  0.00     0.150 C 
HETATM   10  N   UNL     1      43.924 -16.891   4.274  1.00  0.00    -0.378 N 
HETATM   11  C   UNL     1      43.278 -16.015   3.277  1.00  0.00     0.150 C 
HETATM   12  C   UNL     1      41.809 -15.742   3.667  1.00  0.00     0.254 C 
HETATM   13  H   UNL     1      42.255 -14.254   5.063  1.00  0.00     0.280 HD
BRANCH  10  14
HETATM   14  C   UNL     1      43.879 -18.266   4.035  1.00  0.00     0.030 A 
HETATM   15  C   UNL     1      44.130 -19.233   5.020  1.00  0.00     0.029 A 
HETATM   16  C   UNL     1      44.078 -20.606   4.738  1.00  0.00     0.002 A 
HETATM   17  C   UNL     1      43.793 -21.047   3.452  1.00  0.00     0.000 A 
HETATM   18  C   UNL     1      43.571 -20.116   2.447  1.00  0.00     0.002 A 
HETATM   19  C   UNL     1      43.620 -18.748   2.739  1.00  0.00     0.029 A 
ENDBRANCH  10  14
ENDBRANCH   6   7
ENDBRANCH   5   6
ENDBRANCH   1   5
BRANCH   2  20
HETATM   20  N   UNL     1      40.517 -10.788   7.034  1.00  0.00    -0.274 N 
HETATM   21  H   UNL     1      40.399 -11.585   7.656  1.00  0.00     0.189 HD
BRANCH  20  22
HETATM   22  C   UNL     1      41.171  -9.739   7.627  1.00  0.00     0.191 C 
HETATM   23  S   UNL     1      40.664  -8.143   7.566  1.00  0.00    -0.039 SA
BRANCH  22  24
HETATM   24  N   UNL     1      42.235 -10.024   8.440  1.00  0.00    -0.331 N 
HETATM   25  H   UNL     1      41.929 -10.567   9.244  1.00  0.00     0.168 HD
BRANCH  24  26
HETATM   26  C   UNL     1      43.634 -10.024   8.208  1.00  0.00     0.056 A 
HETATM   27  C   UNL     1      44.422 -11.073   7.703  1.00  0.00     0.060 A 
HETATM   28 CL   UNL     1      43.771 -12.537   7.049  1.00  0.00    -0.082 Cl
HETATM   29  C   UNL     1      45.813 -10.928   7.591  1.00  0.00     0.026 A 
HETATM   30  C   UNL     1      46.431  -9.731   7.943  1.00  0.00     0.002 A 
HETATM   31  C   UNL     1      45.658  -8.663   8.380  1.00  0.00     0.002 A 
HETATM   32  C   UNL     1      44.272  -8.804   8.497  1.00  0.00     0.031 A 
ENDBRANCH  24  26
ENDBRANCH  22  24
ENDBRANCH  20  22
ENDBRANCH   2  20
TORSDOF 8
ENDMDL
MODEL 3
REMARK VINA RESULT:      -8.3      4.810      7.930
REMARK  8 active torsions:
REMARK  status: ('A' for Active; 'I' for Inactive)
REMARK    1  A    between atoms: C_4  and  N_5 
REMARK    2  A    between atoms: N_8  and  C_10 
REMARK    3  A    between atoms: C_10  and  C_11 
REMARK    4  A    between atoms: C_11  and  C_12 
REMARK       I    between atoms: C_12  and  N_13 
REMARK    5  A    between atoms: N_13  and  N_14 
REMARK    6  A    between atoms: N_14  and  C_15 
REMARK    7  A    between atoms: C_15  and  N_16 
REMARK    8  A    between atoms: N_16  and  C_17 
ROOT
HETATM    1  C   UNL     1      43.931 -12.078   7.163  1.00  0.00     0.237 C 
HETATM    2  N   UNL     1      43.439 -13.357   7.207  1.00  0.00    -0.268 N 
HETATM    3  O   UNL     1      44.486 -11.572   8.134  1.00  0.00    -0.272 OA
HETATM    4  H   UNL     1      43.354 -13.798   8.125  1.00  0.00     0.190 HD
ENDROOT
BRANCH   1   5
HETATM    5  C   UNL     1      43.858 -11.337   5.849  1.00  0.00     0.132 C 
BRANCH   5   6
HETATM    6  C   UNL     1      42.635 -10.441   5.865  1.00  0.00     0.244 C 
BRANCH   6   7
HETATM    7  N   UNL     1      41.914 -10.441   4.530  1.00  0.00    -0.068 N 
HETATM    8  C   UNL     1      42.760 -11.159   3.463  1.00  0.00     0.254 C 
HETATM    9  C   UNL     1      42.045 -11.159   2.095  1.00  0.00     0.150 C 
HETATM   10  N   UNL     1      40.679 -11.699   2.202  1.00  0.00    -0.378 N 
HETATM   11  C   UNL     1      39.838 -11.002   3.195  1.00  0.00     0.150 C 
HETATM   12  C   UNL     1      40.502 -11.041   4.588  1.00  0.00     0.254 C 
HETATM   13  H   UNL     1      41.819  -9.464   4.218  1.00  0.00     0.280 HD
BRANCH  10  14
HETATM   14  C   UNL     1      40.424 -13.057   1.996  1.00  0.00     0.030 A 
HETATM   15  C   UNL     1      40.156 -13.962   3.035  1.00  0.00     0.029 A 
HETATM   16  C   UNL     1      39.908 -15.319   2.786  1.00  0.00     0.002 A 
HETATM   17  C   UNL     1      39.942 -15.812   1.487  1.00  0.00     0.000 A 
HETATM   18  C   UNL     1      40.235 -14.949   0.440  1.00  0.00     0.002 A 
HETATM   19  C   UNL     1      40.477 -13.594   0.697  1.00  0.00     0.029 A 
ENDBRANCH  10  14
ENDBRANCH   6   7
ENDBRANCH   5   6
ENDBRANCH   1   5
BRANCH   2  20
HETATM   20  N   UNL     1      42.719 -13.921   6.143  1.00  0.00    -0.274 N 
HETATM   21  H   UNL     1      42.934 -13.505   5.240  1.00  0.00     0.189 HD
BRANCH  20  22
HETATM   22  C   UNL     1      42.520 -15.277   6.074  1.00  0.00     0.191 C 
HETATM   23  S   UNL     1      41.071 -16.046   6.410  1.00  0.00    -0.039 SA
BRANCH  22  24
HETATM   24  N   UNL     1      43.530 -16.046   5.564  1.00  0.00    -0.331 N 
HETATM   25  H   UNL     1      44.275 -16.150   6.250  1.00  0.00     0.168 HD
BRANCH  24  26
HETATM   26  C   UNL     1      43.574 -16.963   4.483  1.00  0.00     0.056 A 
HETATM   27  C   UNL     1      43.434 -16.682   3.112  1.00  0.00     0.060 A 
HETATM   28 CL   UNL     1      43.395 -15.082   2.455  1.00  0.00    -0.082 Cl
HETATM   29  C   UNL     1      43.442 -17.722   2.169  1.00  0.00     0.026 A 
HETATM   30  C   UNL     1      43.625 -19.042   2.571  1.00  0.00     0.002 A 
HETATM   31  C   UNL     1      43.830 -19.327   3.915  1.00  0.00     0.002 A 
HETATM   32  C   UNL     1      43.819 -18.296   4.859  1.00  0.00     0.031 A 
ENDBRANCH  24  26
ENDBRANCH  22  24
ENDBRANCH  20  22
ENDBRANCH   2  20
TORSDOF 8
ENDMDL
MODEL 4
REMARK VINA RESULT:      -8.2      2.658     10.297
REMARK  8 active torsions:
REMARK  status: ('A' for Active; 'I' for Inactive)
REMARK    1  A    between atoms: C_4  and  N_5 
REMARK    2  A    between atoms: N_8  and  C_10 
REMARK    3  A    between atoms: C_10  and  C_11 
REMARK    4  A    between atoms: C_11  and  C_12 
REMARK       I    between atoms: C_12  and  N_13 
REMARK    5  A    between atoms: N_13  and  N_14 
REMARK    6  A    between atoms: N_14  and  C_15 
REMARK    7  A    between atoms: C_15  and  N_16 
REMARK    8  A    between atoms: N_16  and  C_17 
ROOT
HETATM    1  C   UNL     1      45.114 -10.687   7.732  1.00  0.00     0.237 C 
HETATM    2  N   UNL     1      44.285  -9.988   8.571  1.00  0.00    -0.268 N 
HETATM    3  O   UNL     1      46.255 -10.302   7.490  1.00  0.00    -0.272 OA
HETATM    4  H   UNL     1      44.561  -9.035   8.818  1.00  0.00     0.190 HD
ENDROOT
BRANCH   1   5
HETATM    5  C   UNL     1      44.618 -12.005   7.185  1.00  0.00     0.132 C 
BRANCH   5   6
HETATM    6  C   UNL     1      44.045 -11.769   5.801  1.00  0.00     0.244 C 
BRANCH   6   7
HETATM    7  N   UNL     1      42.938 -12.753   5.471  1.00  0.00    -0.068 N 
HETATM    8  C   UNL     1      42.948 -13.090   3.969  1.00  0.00     0.254 C 
HETATM    9  C   UNL     1      41.821 -14.082   3.614  1.00  0.00     0.150 C 
HETATM   10  N   UNL     1      41.871 -15.280   4.469  1.00  0.00    -0.378 N 
HETATM   11  C   UNL     1      41.825 -14.983   5.915  1.00  0.00     0.150 C 
HETATM   12  C   UNL     1      42.982 -14.040   6.309  1.00  0.00     0.254 C 
HETATM   13  H   UNL     1      42.035 -12.295   5.660  1.00  0.00     0.280 HD
BRANCH  10  14
HETATM   14  C   UNL     1      42.583 -16.416   4.077  1.00  0.00     0.030 A 
HETATM   15  C   UNL     1      43.447 -17.122   4.928  1.00  0.00     0.029 A 
HETATM   16  C   UNL     1      44.147 -18.256   4.494  1.00  0.00     0.002 A 
HETATM   17  C   UNL     1      44.015 -18.705   3.186  1.00  0.00     0.000 A 
HETATM   18  C   UNL     1      43.192 -18.011   2.310  1.00  0.00     0.002 A 
HETATM   19  C   UNL     1      42.493 -16.881   2.752  1.00  0.00     0.029 A 
ENDBRANCH  10  14
ENDBRANCH   6   7
ENDBRANCH   5   6
ENDBRANCH   1   5
BRANCH   2  20
HETATM   20  N   UNL     1      42.949 -10.358   8.786  1.00  0.00    -0.274 N 
HETATM   21  H   UNL     1      42.813 -11.362   8.868  1.00  0.00     0.189 HD
BRANCH  20  22
HETATM   22  C   UNL     1      42.153  -9.638   9.641  1.00  0.00     0.191 C 
HETATM   23  S   UNL     1      41.186  -8.349   9.185  1.00  0.00    -0.039 SA
BRANCH  22  24
HETATM   24  N   UNL     1      42.031 -10.084  10.929  1.00  0.00    -0.331 N 
HETATM   25  H   UNL     1      42.230 -11.080  10.978  1.00  0.00     0.168 HD
BRANCH  24  26
HETATM   26  C   UNL     1      42.040  -9.404  12.174  1.00  0.00     0.056 A 
HETATM   27  C   UNL     1      41.092  -9.494  13.209  1.00  0.00     0.060 A 
HETATM   28 CL   UNL     1      39.807 -10.653  13.240  1.00  0.00    -0.082 Cl
HETATM   29  C   UNL     1      41.219  -8.702  14.360  1.00  0.00     0.026 A 
HETATM   30  C   UNL     1      42.304  -7.843  14.514  1.00  0.00     0.002 A 
HETATM   31  C   UNL     1      43.283  -7.794  13.530  1.00  0.00     0.002 A 
HETATM   32  C   UNL     1      43.159  -8.577  12.379  1.00  0.00     0.031 A 
ENDBRANCH  24  26
ENDBRANCH  22  24
ENDBRANCH  20  22
ENDBRANCH   2  20
TORSDOF 8
ENDMDL
MODEL 5
REMARK VINA RESULT:      -8.1      4.442     10.012
REMARK  8 active torsions:
REMARK  status: ('A' for Active; 'I' for Inactive)
REMARK    1  A    between atoms: C_4  and  N_5 
REMARK    2  A    between atoms: N_8  and  C_10 
REMARK    3  A    between atoms: C_10  and  C_11 
REMARK    4  A    between atoms: C_11  and  C_12 
REMARK       I    between atoms: C_12  and  N_13 
REMARK    5  A    between atoms: N_13  and  N_14 
REMARK    6  A    between atoms: N_14  and  C_15 
REMARK    7  A    between atoms: C_15  and  N_16 
REMARK    8  A    between atoms: N_16  and  C_17 
ROOT
HETATM    1  C   UNL     1      40.003 -12.903   5.986  1.00  0.00     0.237 C 
HETATM    2  N   UNL     1      40.034 -11.770   6.757  1.00  0.00    -0.268 N 
HETATM    3  O   UNL     1      39.817 -14.010   6.482  1.00  0.00    -0.272 OA
HETATM    4  H   UNL     1      40.112 -11.891   7.769  1.00  0.00     0.190 HD
ENDROOT
BRANCH   1   5
HETATM    5  C   UNL     1      40.108 -12.742   4.488  1.00  0.00     0.132 C 
BRANCH   5   6
HETATM    6  C   UNL     1      41.548 -12.979   4.075  1.00  0.00     0.244 C 
BRANCH   6   7
HETATM    7  N   UNL     1      41.666 -14.072   3.030  1.00  0.00    -0.068 N 
HETATM    8  C   UNL     1      43.145 -14.411   2.772  1.00  0.00     0.254 C 
HETATM    9  C   UNL     1      43.284 -15.516   1.703  1.00  0.00     0.150 C 
HETATM   10  N   UNL     1      42.477 -16.699   2.046  1.00  0.00    -0.378 N 
HETATM   11  C   UNL     1      41.047 -16.404   2.263  1.00  0.00     0.150 C 
HETATM   12  C   UNL     1      40.877 -15.345   3.374  1.00  0.00     0.254 C 
HETATM   13  H   UNL     1      41.291 -13.709   2.143  1.00  0.00     0.280 HD
BRANCH  10  14
HETATM   14  C   UNL     1      43.025 -17.757   2.776  1.00  0.00     0.030 A 
HETATM   15  C   UNL     1      43.477 -17.633   4.099  1.00  0.00     0.029 A 
HETATM   16  C   UNL     1      44.024 -18.719   4.796  1.00  0.00     0.002 A 
HETATM   17  C   UNL     1      44.151 -19.958   4.179  1.00  0.00     0.000 A 
HETATM   18  C   UNL     1      43.742 -20.105   2.861  1.00  0.00     0.002 A 
HETATM   19  C   UNL     1      43.192 -19.017   2.173  1.00  0.00     0.029 A 
ENDBRANCH  10  14
ENDBRANCH   6   7
ENDBRANCH   5   6
ENDBRANCH   1   5
BRANCH   2  20
HETATM   20  N   UNL     1      40.339 -10.508   6.225  1.00  0.00    -0.274 N 
HETATM   21  H   UNL     1      39.534 -10.025   5.833  1.00  0.00     0.189 HD
BRANCH  20  22
HETATM   22  C   UNL     1      41.202  -9.664   6.877  1.00  0.00     0.191 C 
HETATM   23  S   UNL     1      41.150  -7.992   6.788  1.00  0.00    -0.039 SA
BRANCH  22  24
HETATM   24  N   UNL     1      42.082 -10.214   7.769  1.00  0.00    -0.331 N 
HETATM   25  H   UNL     1      41.599 -10.863   8.387  1.00  0.00     0.168 HD
BRANCH  24  26
HETATM   26  C   UNL     1      43.496 -10.324   7.765  1.00  0.00     0.056 A 
HETATM   27  C   UNL     1      44.420  -9.566   8.507  1.00  0.00     0.060 A 
HETATM   28 CL   UNL     1      43.973  -8.467   9.766  1.00  0.00    -0.082 Cl
HETATM   29  C   UNL     1      45.799  -9.764   8.338  1.00  0.00     0.026 A 
HETATM   30  C   UNL     1      46.275 -10.736   7.463  1.00  0.00     0.002 A 
HETATM   31  C   UNL     1      45.373 -11.537   6.773  1.00  0.00     0.002 A 
HETATM   32  C   UNL     1      43.998 -11.341   6.934  1.00  0.00     0.031 A 
ENDBRANCH  24  26
ENDBRANCH  22  24
ENDBRANCH  20  22
ENDBRANCH   2  20
TORSDOF 8
ENDMDL
MODEL 6
REMARK VINA RESULT:      -8.0      2.351      2.559
REMARK  8 active torsions:
REMARK  status: ('A' for Active; 'I' for Inactive)
REMARK    1  A    between atoms: C_4  and  N_5 
REMARK    2  A    between atoms: N_8  and  C_10 
REMARK    3  A    between atoms: C_10  and  C_11 
REMARK    4  A    between atoms: C_11  and  C_12 
REMARK       I    between atoms: C_12  and  N_13 
REMARK    5  A    between atoms: N_13  and  N_14 
REMARK    6  A    between atoms: N_14  and  C_15 
REMARK    7  A    between atoms: C_15  and  N_16 
REMARK    8  A    between atoms: N_16  and  C_17 
ROOT
HETATM    1  C   UNL     1      39.560 -10.793   7.317  1.00  0.00     0.237 C 
HETATM    2  N   UNL     1      39.930 -11.884   6.574  1.00  0.00    -0.268 N 
HETATM    3  O   UNL     1      38.589 -10.829   8.067  1.00  0.00    -0.272 OA
HETATM    4  H   UNL     1      39.258 -12.651   6.497  1.00  0.00     0.190 HD
ENDROOT
BRANCH   1   5
HETATM    5  C   UNL     1      40.442  -9.569   7.262  1.00  0.00     0.132 C 
BRANCH   5   6
HETATM    6  C   UNL     1      40.269  -8.789   8.551  1.00  0.00     0.244 C 
BRANCH   6   7
HETATM    7  N   UNL     1      40.704  -9.592   9.763  1.00  0.00    -0.068 N 
HETATM    8  C   UNL     1      42.182  -9.312  10.091  1.00  0.00     0.254 C 
HETATM    9  C   UNL     1      42.643 -10.129  11.315  1.00  0.00     0.150 C 
HETATM   10  N   UNL     1      41.752  -9.919  12.469  1.00  0.00    -0.378 N 
HETATM   11  C   UNL     1      40.333 -10.215  12.188  1.00  0.00     0.150 C 
HETATM   12  C   UNL     1      39.827  -9.363  11.004  1.00  0.00     0.254 C 
HETATM   13  H   UNL     1      40.642 -10.591   9.524  1.00  0.00     0.280 HD
BRANCH  10  14
HETATM   14  C   UNL     1      42.018  -8.923  13.411  1.00  0.00     0.030 A 
HETATM   15  C   UNL     1      43.071  -8.004  13.291  1.00  0.00     0.029 A 
HETATM   16  C   UNL     1      43.307  -7.020  14.262  1.00  0.00     0.002 A 
HETATM   17  C   UNL     1      42.503  -6.943  15.393  1.00  0.00     0.000 A 
HETATM   18  C   UNL     1      41.472  -7.857  15.557  1.00  0.00     0.002 A 
HETATM   19  C   UNL     1      41.240  -8.833  14.580  1.00  0.00     0.029 A 
ENDBRANCH  10  14
ENDBRANCH   6   7
ENDBRANCH   5   6
ENDBRANCH   1   5
BRANCH   2  20
HETATM   20  N   UNL     1      40.977 -11.837   5.640  1.00  0.00    -0.274 N 
HETATM   21  H   UNL     1      41.892 -11.697   6.062  1.00  0.00     0.189 HD
BRANCH  20  22
HETATM   22  C   UNL     1      41.005 -12.702   4.576  1.00  0.00     0.191 C 
HETATM   23  S   UNL     1      39.852 -12.756   3.362  1.00  0.00    -0.039 SA
BRANCH  22  24
HETATM   24  N   UNL     1      42.116 -13.484   4.415  1.00  0.00    -0.331 N 
HETATM   25  H   UNL     1      42.762 -13.342   5.189  1.00  0.00     0.168 HD
BRANCH  24  26
HETATM   26  C   UNL     1      42.360 -14.639   3.630  1.00  0.00     0.056 A 
HETATM   27  C   UNL     1      41.904 -15.949   3.862  1.00  0.00     0.060 A 
HETATM   28 CL   UNL     1      40.745 -16.364   5.078  1.00  0.00    -0.082 Cl
HETATM   29  C   UNL     1      42.289 -16.997   3.013  1.00  0.00     0.026 A 
HETATM   30  C   UNL     1      43.097 -16.752   1.905  1.00  0.00     0.002 A 
HETATM   31  C   UNL     1      43.500 -15.452   1.626  1.00  0.00     0.002 A 
HETATM   32  C   UNL     1      43.122 -14.405   2.472  1.00  0.00     0.031 A 
ENDBRANCH  24  26
ENDBRANCH  22  24
ENDBRANCH  20  22
ENDBRANCH   2  20
TORSDOF 8
ENDMDL
MODEL 7
REMARK VINA RESULT:      -8.0      3.142     10.328
REMARK  8 active torsions:
REMARK  status: ('A' for Active; 'I' for Inactive)
REMARK    1  A    between atoms: C_4  and  N_5 
REMARK    2  A    between atoms: N_8  and  C_10 
REMARK    3  A    between atoms: C_10  and  C_11 
REMARK    4  A    between atoms: C_11  and  C_12 
REMARK       I    between atoms: C_12  and  N_13 
REMARK    5  A    between atoms: N_13  and  N_14 
REMARK    6  A    between atoms: N_14  and  C_15 
REMARK    7  A    between atoms: C_15  and  N_16 
REMARK    8  A    between atoms: N_16  and  C_17 
ROOT
HETATM    1  C   UNL     1      43.688 -11.588   4.485  1.00  0.00     0.237 C 
HETATM    2  N   UNL     1      44.587 -11.550   5.519  1.00  0.00    -0.268 N 
HETATM    3  O   UNL     1      43.980 -11.175   3.366  1.00  0.00    -0.272 OA
HETATM    4  H   UNL     1      45.425 -10.978   5.394  1.00  0.00     0.190 HD
ENDROOT
BRANCH   1   5
HETATM    5  C   UNL     1      42.351 -12.246   4.734  1.00  0.00     0.132 C 
BRANCH   5   6
HETATM    6  C   UNL     1      41.509 -12.123   3.479  1.00  0.00     0.244 C 
BRANCH   6   7
HETATM    7  N   UNL     1      41.151 -13.480   2.901  1.00  0.00    -0.068 N 
HETATM    8  C   UNL     1      42.275 -13.985   1.978  1.00  0.00     0.254 C 
HETATM    9  C   UNL     1      41.922 -15.360   1.373  1.00  0.00     0.150 C 
HETATM   10  N   UNL     1      41.562 -16.331   2.421  1.00  0.00    -0.378 N 
HETATM   11  C   UNL     1      40.461 -15.883   3.296  1.00  0.00     0.150 C 
HETATM   12  C   UNL     1      40.815 -14.537   3.964  1.00  0.00     0.254 C 
HETATM   13  H   UNL     1      40.317 -13.365   2.308  1.00  0.00     0.280 HD
BRANCH  10  14
HETATM   14  C   UNL     1      42.526 -17.166   2.990  1.00  0.00     0.030 A 
HETATM   15  C   UNL     1      43.176 -16.886   4.202  1.00  0.00     0.029 A 
HETATM   16  C   UNL     1      44.141 -17.749   4.739  1.00  0.00     0.002 A 
HETATM   17  C   UNL     1      44.497 -18.910   4.064  1.00  0.00     0.000 A 
HETATM   18  C   UNL     1      43.895 -19.201   2.848  1.00  0.00     0.002 A 
HETATM   19  C   UNL     1      42.929 -18.336   2.321  1.00  0.00     0.029 A 
ENDBRANCH  10  14
ENDBRANCH   6   7
ENDBRANCH   5   6
ENDBRANCH   1   5
BRANCH   2  20
HETATM   20  N   UNL     1      44.244 -11.928   6.826  1.00  0.00    -0.274 N 
HETATM   21  H   UNL     1      44.399 -12.915   7.018  1.00  0.00     0.189 HD
BRANCH  20  22
HETATM   22  C   UNL     1      44.554 -11.122   7.891  1.00  0.00     0.191 C 
HETATM   23  S   UNL     1      45.972 -10.243   8.041  1.00  0.00    -0.039 SA
BRANCH  22  24
HETATM   24  N   UNL     1      43.586 -10.907   8.834  1.00  0.00    -0.331 N 
HETATM   25  H   UNL     1      43.098 -11.776   9.044  1.00  0.00     0.168 HD
BRANCH  24  26
HETATM   26  C   UNL     1      43.389  -9.863   9.774  1.00  0.00     0.056 A 
HETATM   27  C   UNL     1      43.162  -8.501   9.510  1.00  0.00     0.060 A 
HETATM   28 CL   UNL     1      42.859  -7.862   7.931  1.00  0.00    -0.082 Cl
HETATM   29  C   UNL     1      43.048  -7.582  10.565  1.00  0.00     0.026 A 
HETATM   30  C   UNL     1      43.119  -8.009  11.888  1.00  0.00     0.002 A 
HETATM   31  C   UNL     1      43.276  -9.361  12.164  1.00  0.00     0.002 A 
HETATM   32  C   UNL     1      43.395 -10.280  11.117  1.00  0.00     0.031 A 
ENDBRANCH  24  26
ENDBRANCH  22  24
ENDBRANCH  20  22
ENDBRANCH   2  20
TORSDOF 8
ENDMDL
MODEL 8
REMARK VINA RESULT:      -7.9      3.208     10.632
REMARK  8 active torsions:
REMARK  status: ('A' for Active; 'I' for Inactive)
REMARK    1  A    between atoms: C_4  and  N_5 
REMARK    2  A    between atoms: N_8  and  C_10 
REMARK    3  A    between atoms: C_10  and  C_11 
REMARK    4  A    between atoms: C_11  and  C_12 
REMARK       I    between atoms: C_12  and  N_13 
REMARK    5  A    between atoms: N_13  and  N_14 
REMARK    6  A    between atoms: N_14  and  C_15 
REMARK    7  A    between atoms: C_15  and  N_16 
REMARK    8  A    between atoms: N_16  and  C_17 
ROOT
HETATM    1  C   UNL     1      39.639 -11.376   6.597  1.00  0.00     0.237 C 
HETATM    2  N   UNL     1      39.409 -10.745   7.792  1.00  0.00    -0.268 N 
HETATM    3  O   UNL     1      38.788 -12.092   6.076  1.00  0.00    -0.272 OA
HETATM    4  H   UNL     1      38.602 -11.053   8.339  1.00  0.00     0.190 HD
ENDROOT
BRANCH   1   5
HETATM    5  C   UNL     1      40.940 -11.088   5.885  1.00  0.00     0.132 C 
BRANCH   5   6
HETATM    6  C   UNL     1      41.796 -12.340   5.917  1.00  0.00     0.244 C 
BRANCH   6   7
HETATM    7  N   UNL     1      41.488 -13.267   4.756  1.00  0.00    -0.068 N 
HETATM    8  C   UNL     1      42.730 -13.440   3.862  1.00  0.00     0.254 C 
HETATM    9  C   UNL     1      42.431 -14.372   2.670  1.00  0.00     0.150 C 
HETATM   10  N   UNL     1      41.867 -15.656   3.121  1.00  0.00    -0.378 N 
HETATM   11  C   UNL     1      40.654 -15.517   3.950  1.00  0.00     0.150 C 
HETATM   12  C   UNL     1      40.943 -14.637   5.186  1.00  0.00     0.254 C 
HETATM   13  H   UNL     1      40.768 -12.820   4.171  1.00  0.00     0.280 HD
BRANCH  10  14
HETATM   14  C   UNL     1      42.693 -16.753   3.383  1.00  0.00     0.030 A 
HETATM   15  C   UNL     1      43.404 -16.918   4.581  1.00  0.00     0.029 A 
HETATM   16  C   UNL     1      44.225 -18.032   4.804  1.00  0.00     0.002 A 
HETATM   17  C   UNL     1      44.372 -19.004   3.821  1.00  0.00     0.000 A 
HETATM   18  C   UNL     1      43.706 -18.854   2.613  1.00  0.00     0.002 A 
HETATM   19  C   UNL     1      42.885 -17.741   2.400  1.00  0.00     0.029 A 
ENDBRANCH  10  14
ENDBRANCH   6   7
ENDBRANCH   5   6
ENDBRANCH   1   5
BRANCH   2  20
HETATM   20  N   UNL     1      40.399 -10.001   8.451  1.00  0.00    -0.274 N 
HETATM   21  H   UNL     1      40.933  -9.396   7.832  1.00  0.00     0.189 HD
BRANCH  20  22
HETATM   22  C   UNL     1      40.146  -9.427   9.672  1.00  0.00     0.191 C 
HETATM   23  S   UNL     1      38.946  -8.296   9.963  1.00  0.00    -0.039 SA
BRANCH  22  24
HETATM   24  N   UNL     1      40.827  -9.908  10.757  1.00  0.00    -0.331 N 
HETATM   25  H   UNL     1      41.137 -10.862  10.586  1.00  0.00     0.168 HD
BRANCH  24  26
HETATM   26  C   UNL     1      41.453  -9.257  11.850  1.00  0.00     0.056 A 
HETATM   27  C   UNL     1      42.602  -8.446  11.824  1.00  0.00     0.060 A 
HETATM   28 CL   UNL     1      43.365  -7.903  10.369  1.00  0.00    -0.082 Cl
HETATM   29  C   UNL     1      43.131  -7.923  13.014  1.00  0.00     0.026 A 
HETATM   30  C   UNL     1      42.506  -8.167  14.235  1.00  0.00     0.002 A 
HETATM   31  C   UNL     1      41.333  -8.910  14.268  1.00  0.00     0.002 A 
HETATM   32  C   UNL     1      40.805  -9.437  13.085  1.00  0.00     0.031 A 
ENDBRANCH  24  26
ENDBRANCH  22  24
ENDBRANCH  20  22
ENDBRANCH   2  20
TORSDOF 8
ENDMDL
MODEL 9
REMARK VINA RESULT:      -7.8      2.557     10.233
REMARK  8 active torsions:
REMARK  status: ('A' for Active; 'I' for Inactive)
REMARK    1  A    between atoms: C_4  and  N_5 
REMARK    2  A    between atoms: N_8  and  C_10 
REMARK    3  A    between atoms: C_10  and  C_11 
REMARK    4  A    between atoms: C_11  and  C_12 
REMARK       I    between atoms: C_12  and  N_13 
REMARK    5  A    between atoms: N_13  and  N_14 
REMARK    6  A    between atoms: N_14  and  C_15 
REMARK    7  A    between atoms: C_15  and  N_16 
REMARK    8  A    between atoms: N_16  and  C_17 
ROOT
HETATM    1  C   UNL     1      44.233 -10.752   8.250  1.00  0.00     0.237 C 
HETATM    2  N   UNL     1      43.173 -10.562   9.099  1.00  0.00    -0.268 N 
HETATM    3  O   UNL     1      45.326 -11.127   8.664  1.00  0.00    -0.272 OA
HETATM    4  H   UNL     1      43.373 -10.532  10.101  1.00  0.00     0.190 HD
ENDROOT
BRANCH   1   5
HETATM    5  C   UNL     1      43.991 -10.580   6.769  1.00  0.00     0.132 C 
BRANCH   5   6
HETATM    6  C   UNL     1      44.437 -11.842   6.056  1.00  0.00     0.244 C 
BRANCH   6   7
HETATM    7  N   UNL     1      43.339 -12.889   6.015  1.00  0.00    -0.068 N 
HETATM    8  C   UNL     1      42.878 -13.127   4.565  1.00  0.00     0.254 C 
HETATM    9  C   UNL     1      41.753 -14.181   4.506  1.00  0.00     0.150 C 
HETATM   10  N   UNL     1      42.145 -15.424   5.193  1.00  0.00    -0.378 N 
HETATM   11  C   UNL     1      42.556 -15.225   6.597  1.00  0.00     0.150 C 
HETATM   12  C   UNL     1      43.725 -14.218   6.680  1.00  0.00     0.254 C 
HETATM   13  H   UNL     1      42.524 -12.517   6.522  1.00  0.00     0.280 HD
BRANCH  10  14
HETATM   14  C   UNL     1      42.751 -16.471   4.496  1.00  0.00     0.030 A 
HETATM   15  C   UNL     1      43.648 -17.377   5.084  1.00  0.00     0.029 A 
HETATM   16  C   UNL     1      44.238 -18.414   4.349  1.00  0.00     0.002 A 
HETATM   17  C   UNL     1      43.961 -18.560   2.995  1.00  0.00     0.000 A 
HETATM   18  C   UNL     1      43.103 -17.662   2.376  1.00  0.00     0.002 A 
HETATM   19  C   UNL     1      42.514 -16.632   3.119  1.00  0.00     0.029 A 
ENDBRANCH  10  14
ENDBRANCH   6   7
ENDBRANCH   5   6
ENDBRANCH   1   5
BRANCH   2  20
HETATM   20  N   UNL     1      41.945 -10.043   8.662  1.00  0.00    -0.274 N 
HETATM   21  H   UNL     1      41.414 -10.688   8.081  1.00  0.00     0.189 HD
BRANCH  20  22
HETATM   22  C   UNL     1      41.153  -9.313   9.511  1.00  0.00     0.191 C 
HETATM   23  S   UNL     1      40.093  -8.109   9.026  1.00  0.00    -0.039 SA
BRANCH  22  24
HETATM   24  N   UNL     1      41.119  -9.679  10.829  1.00  0.00    -0.331 N 
HETATM   25  H   UNL     1      41.080 -10.692  10.913  1.00  0.00     0.168 HD
BRANCH  24  26
HETATM   26  C   UNL     1      41.471  -8.988  12.016  1.00  0.00     0.056 A 
HETATM   27  C   UNL     1      42.757  -8.605  12.439  1.00  0.00     0.060 A 
HETATM   28 CL   UNL     1      44.171  -8.724  11.449  1.00  0.00    -0.082 Cl
HETATM   29  C   UNL     1      42.939  -7.976  13.680  1.00  0.00     0.026 A 
HETATM   30  C   UNL     1      41.848  -7.686  14.495  1.00  0.00     0.002 A 
HETATM   31  C   UNL     1      40.566  -7.999  14.061  1.00  0.00     0.002 A 
HETATM   32  C   UNL     1      40.380  -8.630  12.827  1.00  0.00     0.031 A 
ENDBRANCH  24  26
ENDBRANCH  22  24
ENDBRANCH  20  22
ENDBRANCH   2  20
TORSDOF 8
ENDMDL
MODEL 10
REMARK VINA RESULT:      -7.8      1.776      2.388
REMARK  8 active torsions:
REMARK  status: ('A' for Active; 'I' for Inactive)
REMARK    1  A    between atoms: C_4  and  N_5 
REMARK    2  A    between atoms: N_8  and  C_10 
REMARK    3  A    between atoms: C_10  and  C_11 
REMARK    4  A    between atoms: C_11  and  C_12 
REMARK       I    between atoms: C_12  and  N_13 
REMARK    5  A    between atoms: N_13  and  N_14 
REMARK    6  A    between atoms: N_14  and  C_15 
REMARK    7  A    between atoms: C_15  and  N_16 
REMARK    8  A    between atoms: N_16  and  C_17 
ROOT
HETATM    1  C   UNL     1      44.294 -11.539   7.272  1.00  0.00     0.237 C 
HETATM    2  N   UNL     1      43.972 -12.797   6.832  1.00  0.00    -0.268 N 
HETATM    3  O   UNL     1      45.456 -11.220   7.504  1.00  0.00    -0.272 OA
HETATM    4  H   UNL     1      44.690 -13.520   6.907  1.00  0.00     0.190 HD
ENDROOT
BRANCH   1   5
HETATM    5  C   UNL     1      43.184 -10.519   7.372  1.00  0.00     0.132 C 
BRANCH   5   6
HETATM    6  C   UNL     1      43.449  -9.631   8.572  1.00  0.00     0.244 C 
BRANCH   6   7
HETATM    7  N   UNL     1      42.779 -10.158   9.827  1.00  0.00    -0.068 N 
HETATM    8  C   UNL     1      43.814 -10.348  10.950  1.00  0.00     0.254 C 
HETATM    9  C   UNL     1      43.151 -10.894  12.231  1.00  0.00     0.150 C 
HETATM   10  N   UNL     1      42.007 -10.060  12.641  1.00  0.00    -0.378 N 
HETATM   11  C   UNL     1      40.983  -9.894  11.591  1.00  0.00     0.150 C 
HETATM   12  C   UNL     1      41.610  -9.290  10.316  1.00  0.00     0.254 C 
HETATM   13  H   UNL     1      42.400 -11.093   9.619  1.00  0.00     0.280 HD
BRANCH  10  14
HETATM   14  C   UNL     1      42.173  -9.003  13.540  1.00  0.00     0.030 A 
HETATM   15  C   UNL     1      41.387  -8.833  14.690  1.00  0.00     0.029 A 
HETATM   16  C   UNL     1      41.583  -7.756  15.565  1.00  0.00     0.002 A 
HETATM   17  C   UNL     1      42.562  -6.806  15.301  1.00  0.00     0.000 A 
HETATM   18  C   UNL     1      43.336  -6.929  14.155  1.00  0.00     0.002 A 
HETATM   19  C   UNL     1      43.137  -8.010  13.289  1.00  0.00     0.029 A 
ENDBRANCH  10  14
ENDBRANCH   6   7
ENDBRANCH   5   6
ENDBRANCH   1   5
BRANCH   2  20
HETATM   20  N   UNL     1      42.643 -13.212   6.652  1.00  0.00    -0.274 N 
HETATM   21  H   UNL     1      42.159 -12.715   5.909  1.00  0.00     0.189 HD
BRANCH  20  22
HETATM   22  C   UNL     1      42.313 -14.542   6.711  1.00  0.00     0.191 C 
HETATM   23  S   UNL     1      43.003 -15.650   7.760  1.00  0.00    -0.039 SA
BRANCH  22  24
HETATM   24  N   UNL     1      41.252 -14.971   5.961  1.00  0.00    -0.331 N 
HETATM   25  H   UNL     1      40.383 -14.851   6.477  1.00  0.00     0.168 HD
BRANCH  24  26
HETATM   26  C   UNL     1      41.100 -15.194   4.569  1.00  0.00     0.056 A 
HETATM   27  C   UNL     1      40.389 -14.408   3.645  1.00  0.00     0.060 A 
HETATM   28 CL   UNL     1      39.722 -12.855   4.013  1.00  0.00    -0.082 Cl
HETATM   29  C   UNL     1      40.288 -14.805   2.302  1.00  0.00     0.026 A 
HETATM   30  C   UNL     1      40.921 -15.963   1.856  1.00  0.00     0.002 A 
HETATM   31  C   UNL     1      41.682 -16.713   2.743  1.00  0.00     0.002 A 
HETATM   32  C   UNL     1      41.782 -16.324   4.082  1.00  0.00     0.031 A 
ENDBRANCH  24  26
ENDBRANCH  22  24
ENDBRANCH  20  22
ENDBRANCH   2  20
TORSDOF 8
ENDMDL
