MODEL 1
REMARK VINA RESULT:     -10.6      0.000      0.000
REMARK  6 active torsions:
REMARK  status: ('A' for Active; 'I' for Inactive)
REMARK    1  A    between atoms: C_4  and  C_5 
REMARK    2  A    between atoms: C_5  and  N_6 
REMARK       I    between atoms: N_6  and  C_7 
REMARK    3  A    between atoms: C_7  and  C_8 
REMARK    4  A    between atoms: C_9  and  N_10 
REMARK    5  A    between atoms: N_11  and  N_12 
REMARK    6  A    between atoms: C_13  and  C_14 
ROOT
HETATM    1  C   UNL     1      40.815 -13.850   4.240  1.00  0.00     0.104 C 
HETATM    2  C   UNL     1      41.041 -13.454   5.554  1.00  0.00     0.123 C 
HETATM    3  N   UNL     1      42.277 -13.983   5.921  1.00  0.00    -0.202 N 
HETATM    4  C   UNL     1      42.456 -15.131   5.176  1.00  0.00     0.183 A 
HETATM    5  C   UNL     1      41.614 -15.016   4.067  1.00  0.00     0.124 A 
HETATM    6  N   UNL     1      41.681 -15.912   3.049  1.00  0.00    -0.242 NA
HETATM    7  C   UNL     1      42.540 -16.928   3.245  1.00  0.00     0.086 A 
HETATM    8  C   UNL     1      43.355 -17.036   4.405  1.00  0.00     0.088 A 
HETATM    9  N   UNL     1      43.357 -16.117   5.381  1.00  0.00    -0.225 NA
HETATM   10  C   UNL     1      42.626 -17.918   2.275  1.00  0.00     0.034 A 
HETATM   11  C   UNL     1      43.470 -19.019   2.425  1.00  0.00     0.002 A 
HETATM   12  C   UNL     1      44.249 -19.135   3.567  1.00  0.00     0.002 A 
HETATM   13  C   UNL     1      44.187 -18.140   4.542  1.00  0.00     0.034 A 
ENDROOT
BRANCH   3  14
HETATM   14  N   UNL     1      43.198 -13.414   6.773  1.00  0.00    -0.176 NA
HETATM   15  C   UNL     1      43.713 -12.339   6.264  1.00  0.00     0.153 C 
BRANCH  15  16
HETATM   16  C   UNL     1      44.743 -11.574   6.920  1.00  0.00     0.011 A 
HETATM   17  C   UNL     1      44.607 -10.901   8.176  1.00  0.00     0.004 A 
HETATM   18  C   UNL     1      45.780 -10.180   8.389  1.00  0.00     0.043 A 
HETATM   19  C   UNL     1      43.580 -10.822   9.144  1.00  0.00     0.014 A 
HETATM   20  C   UNL     1      45.970  -9.366   9.513  1.00  0.00     0.030 A 
HETATM   21  N   UNL     1      46.612 -10.438   7.322  1.00  0.00    -0.364 N 
HETATM   22  C   UNL     1      44.939  -9.301  10.453  1.00  0.00     0.002 A 
HETATM   23  C   UNL     1      43.762 -10.024  10.278  1.00  0.00     0.001 A 
HETATM   24  H   UNL     1      47.531 -10.035   7.202  1.00  0.00     0.165 HD
HETATM   25  C   UNL     1      46.005 -11.292   6.439  1.00  0.00     0.102 A 
ENDBRANCH  15  16
ENDBRANCH   3  14
BRANCH   2  26
HETATM   26  N   UNL     1      40.360 -12.580   6.362  1.00  0.00    -0.286 NA
HETATM   27  H   UNL     1      39.406 -12.348   6.074  1.00  0.00     0.125 HD
HETATM   28  H   UNL     1      40.361 -12.801   7.364  1.00  0.00     0.125 HD
ENDBRANCH   2  26
BRANCH   1  29
HETATM   29  C   UNL     1      39.949 -13.160   3.288  1.00  0.00     0.257 C 
HETATM   30  N   UNL     1      40.178 -13.566   1.988  1.00  0.00    -0.352 N 
HETATM   31  H   UNL     1      40.790 -14.366   1.893  1.00  0.00     0.163 HD
HETATM   32  O   UNL     1      39.056 -12.384   3.602  1.00  0.00    -0.267 OA
BRANCH  30  33
HETATM   33  C   UNL     1      39.253 -13.331   0.908  1.00  0.00     0.161 C 
BRANCH  33  34
HETATM   34  C   UNL     1      39.921 -13.031  -0.420  1.00  0.00    -0.041 A 
HETATM   35  C   UNL     1      40.747 -11.917  -0.654  1.00  0.00     0.009 A 
HETATM   36  C   UNL     1      41.343 -11.707  -1.901  1.00  0.00     0.001 A 
HETATM   37  C   UNL     1      41.133 -12.614  -2.935  1.00  0.00     0.000 A 
HETATM   38  C   UNL     1      40.335 -13.735  -2.719  1.00  0.00     0.001 A 
HETATM   39  C   UNL     1      39.738 -13.943  -1.473  1.00  0.00     0.009 A 
ENDBRANCH  33  34
ENDBRANCH  30  33
ENDBRANCH   1  29
TORSDOF 6
ENDMDL
MODEL 2
REMARK VINA RESULT:     -10.3      2.017      8.144
REMARK  6 active torsions:
REMARK  status: ('A' for Active; 'I' for Inactive)
REMARK    1  A    between atoms: C_4  and  C_5 
REMARK    2  A    between atoms: C_5  and  N_6 
REMARK       I    between atoms: N_6  and  C_7 
REMARK    3  A    between atoms: C_7  and  C_8 
REMARK    4  A    between atoms: C_9  and  N_10 
REMARK    5  A    between atoms: N_11  and  N_12 
REMARK    6  A    between atoms: C_13  and  C_14 
ROOT
HETATM    1  C   UNL     1      42.561 -14.365   6.341  1.00  0.00     0.104 C 
HETATM    2  C   UNL     1      41.370 -14.181   5.648  1.00  0.00     0.123 C 
HETATM    3  N   UNL     1      41.370 -12.859   5.206  1.00  0.00    -0.202 N 
HETATM    4  C   UNL     1      42.127 -12.138   6.106  1.00  0.00     0.183 A 
HETATM    5  C   UNL     1      42.949 -13.060   6.758  1.00  0.00     0.124 A 
HETATM    6  N   UNL     1      43.937 -12.642   7.590  1.00  0.00    -0.242 NA
HETATM    7  C   UNL     1      43.989 -11.313   7.784  1.00  0.00     0.086 A 
HETATM    8  C   UNL     1      43.111 -10.403   7.134  1.00  0.00     0.088 A 
HETATM    9  N   UNL     1      42.182 -10.795   6.249  1.00  0.00    -0.225 NA
HETATM   10  C   UNL     1      44.936 -10.810   8.667  1.00  0.00     0.034 A 
HETATM   11  C   UNL     1      45.027  -9.445   8.943  1.00  0.00     0.002 A 
HETATM   12  C   UNL     1      44.156  -8.561   8.325  1.00  0.00     0.002 A 
HETATM   13  C   UNL     1      43.210  -9.048   7.423  1.00  0.00     0.034 A 
ENDROOT
BRANCH   3  14
HETATM   14  N   UNL     1      40.821 -12.381   4.036  1.00  0.00    -0.176 NA
HETATM   15  C   UNL     1      41.658 -12.468   3.050  1.00  0.00     0.153 C 
BRANCH  15  16
HETATM   16  C   UNL     1      41.363 -11.989   1.723  1.00  0.00     0.011 A 
HETATM   17  C   UNL     1      40.814 -12.773   0.659  1.00  0.00     0.004 A 
HETATM   18  C   UNL     1      40.805 -11.974  -0.482  1.00  0.00     0.043 A 
HETATM   19  C   UNL     1      40.343 -14.102   0.557  1.00  0.00     0.014 A 
HETATM   20  C   UNL     1      40.366 -12.444  -1.727  1.00  0.00     0.030 A 
HETATM   21  N   UNL     1      41.292 -10.739  -0.115  1.00  0.00    -0.364 N 
HETATM   22  C   UNL     1      39.910 -13.762  -1.802  1.00  0.00     0.002 A 
HETATM   23  C   UNL     1      39.890 -14.580  -0.676  1.00  0.00     0.001 A 
HETATM   24  H   UNL     1      41.412  -9.959  -0.746  1.00  0.00     0.165 HD
HETATM   25  C   UNL     1      41.614 -10.730   1.217  1.00  0.00     0.102 A 
ENDBRANCH  15  16
ENDBRANCH   3  14
BRANCH   2  26
HETATM   26  N   UNL     1      40.407 -15.074   5.256  1.00  0.00    -0.286 NA
HETATM   27  H   UNL     1      39.978 -14.904   4.342  1.00  0.00     0.125 HD
HETATM   28  H   UNL     1      40.657 -16.066   5.327  1.00  0.00     0.125 HD
ENDBRANCH   2  26
BRANCH   1  29
HETATM   29  C   UNL     1      43.230 -15.648   6.543  1.00  0.00     0.257 C 
HETATM   30  N   UNL     1      43.531 -16.271   5.348  1.00  0.00    -0.352 N 
HETATM   31  H   UNL     1      43.385 -15.705   4.524  1.00  0.00     0.163 HD
HETATM   32  O   UNL     1      43.575 -16.083   7.633  1.00  0.00    -0.267 OA
BRANCH  30  33
HETATM   33  C   UNL     1      44.485 -17.345   5.231  1.00  0.00     0.161 C 
BRANCH  33  34
HETATM   34  C   UNL     1      44.084 -18.419   4.238  1.00  0.00    -0.041 A 
HETATM   35  C   UNL     1      44.237 -19.799   4.462  1.00  0.00     0.009 A 
HETATM   36  C   UNL     1      43.832 -20.737   3.507  1.00  0.00     0.001 A 
HETATM   37  C   UNL     1      43.257 -20.313   2.314  1.00  0.00     0.000 A 
HETATM   38  C   UNL     1      43.078 -18.952   2.079  1.00  0.00     0.001 A 
HETATM   39  C   UNL     1      43.484 -18.014   3.033  1.00  0.00     0.009 A 
ENDBRANCH  33  34
ENDBRANCH  30  33
ENDBRANCH   1  29
TORSDOF 6
ENDMDL
MODEL 3
REMARK VINA RESULT:     -10.2      1.830      8.129
REMARK  6 active torsions:
REMARK  status: ('A' for Active; 'I' for Inactive)
REMARK    1  A    between atoms: C_4  and  C_5 
REMARK    2  A    between atoms: C_5  and  N_6 
REMARK       I    between atoms: N_6  and  C_7 
REMARK    3  A    between atoms: C_7  and  C_8 
REMARK    4  A    between atoms: C_9  and  N_10 
REMARK    5  A    between atoms: N_11  and  N_12 
REMARK    6  A    between atoms: C_13  and  C_14 
ROOT
HETATM    1  C   UNL     1      42.954 -14.525   4.581  1.00  0.00     0.104 C 
HETATM    2  C   UNL     1      43.161 -13.996   3.312  1.00  0.00     0.123 C 
HETATM    3  N   UNL     1      42.942 -15.036   2.409  1.00  0.00    -0.202 N 
HETATM    4  C   UNL     1      43.251 -16.208   3.069  1.00  0.00     0.183 A 
HETATM    5  C   UNL     1      43.169 -15.925   4.435  1.00  0.00     0.124 A 
HETATM    6  N   UNL     1      43.253 -16.919   5.355  1.00  0.00    -0.242 NA
HETATM    7  C   UNL     1      43.501 -18.139   4.850  1.00  0.00     0.086 A 
HETATM    8  C   UNL     1      43.619 -18.387   3.455  1.00  0.00     0.088 A 
HETATM    9  N   UNL     1      43.459 -17.429   2.529  1.00  0.00    -0.225 NA
HETATM   10  C   UNL     1      43.659 -19.201   5.731  1.00  0.00     0.034 A 
HETATM   11  C   UNL     1      43.952 -20.489   5.280  1.00  0.00     0.002 A 
HETATM   12  C   UNL     1      44.088 -20.725   3.921  1.00  0.00     0.002 A 
HETATM   13  C   UNL     1      43.915 -19.673   3.021  1.00  0.00     0.034 A 
ENDROOT
BRANCH   3  14
HETATM   14  N   UNL     1      42.409 -14.931   1.143  1.00  0.00    -0.176 NA
HETATM   15  C   UNL     1      41.175 -14.535   1.180  1.00  0.00     0.153 C 
BRANCH  15  16
HETATM   16  C   UNL     1      40.359 -14.393   0.001  1.00  0.00     0.011 A 
HETATM   17  C   UNL     1      40.327 -13.246  -0.854  1.00  0.00     0.004 A 
HETATM   18  C   UNL     1      39.323 -13.459  -1.796  1.00  0.00     0.043 A 
HETATM   19  C   UNL     1      41.049 -12.031  -0.900  1.00  0.00     0.014 A 
HETATM   20  C   UNL     1      38.989 -12.509  -2.770  1.00  0.00     0.030 A 
HETATM   21  N   UNL     1      38.792 -14.706  -1.547  1.00  0.00    -0.364 N 
HETATM   22  C   UNL     1      39.714 -11.315  -2.791  1.00  0.00     0.002 A 
HETATM   23  C   UNL     1      40.735 -11.079  -1.875  1.00  0.00     0.001 A 
HETATM   24  H   UNL     1      38.033 -15.121  -2.068  1.00  0.00     0.165 HD
HETATM   25  C   UNL     1      39.423 -15.286  -0.477  1.00  0.00     0.102 A 
ENDBRANCH  15  16
ENDBRANCH   3  14
BRANCH   2  26
HETATM   26  N   UNL     1      43.360 -12.706   2.892  1.00  0.00    -0.286 NA
HETATM   27  H   UNL     1      43.642 -12.587   1.915  1.00  0.00     0.125 HD
HETATM   28  H   UNL     1      42.608 -12.043   3.105  1.00  0.00     0.125 HD
ENDBRANCH   2  26
BRANCH   1  29
HETATM   29  C   UNL     1      42.579 -13.755   5.764  1.00  0.00     0.257 C 
HETATM   30  N   UNL     1      43.273 -12.565   5.852  1.00  0.00    -0.352 N 
HETATM   31  H   UNL     1      43.819 -12.329   5.034  1.00  0.00     0.163 HD
HETATM   32  O   UNL     1      41.687 -14.072   6.539  1.00  0.00    -0.267 OA
BRANCH  30  33
HETATM   33  C   UNL     1      42.863 -11.467   6.691  1.00  0.00     0.161 C 
BRANCH  33  34
HETATM   34  C   UNL     1      44.017 -10.661   7.257  1.00  0.00    -0.041 A 
HETATM   35  C   UNL     1      43.865  -9.460   7.972  1.00  0.00     0.009 A 
HETATM   36  C   UNL     1      44.973  -8.774   8.479  1.00  0.00     0.001 A 
HETATM   37  C   UNL     1      46.253  -9.283   8.290  1.00  0.00     0.000 A 
HETATM   38  C   UNL     1      46.426 -10.481   7.602  1.00  0.00     0.001 A 
HETATM   39  C   UNL     1      45.318 -11.165   7.094  1.00  0.00     0.009 A 
ENDBRANCH  33  34
ENDBRANCH  30  33
ENDBRANCH   1  29
TORSDOF 6
ENDMDL
MODEL 4
REMARK VINA RESULT:     -10.1      1.746      7.743
REMARK  6 active torsions:
REMARK  status: ('A' for Active; 'I' for Inactive)
REMARK    1  A    between atoms: C_4  and  C_5 
REMARK    2  A    between atoms: C_5  and  N_6 
REMARK       I    between atoms: N_6  and  C_7 
REMARK    3  A    between atoms: C_7  and  C_8 
REMARK    4  A    between atoms: C_9  and  N_10 
REMARK    5  A    between atoms: N_11  and  N_12 
REMARK    6  A    between atoms: C_13  and  C_14 
ROOT
HETATM    1  C   UNL     1      40.413 -11.793   4.656  1.00  0.00     0.104 C 
HETATM    2  C   UNL     1      40.072 -12.946   5.355  1.00  0.00     0.123 C 
HETATM    3  N   UNL     1      40.401 -14.020   4.530  1.00  0.00    -0.202 N 
HETATM    4  C   UNL     1      40.299 -13.570   3.229  1.00  0.00     0.183 A 
HETATM    5  C   UNL     1      40.402 -12.178   3.285  1.00  0.00     0.124 A 
HETATM    6  N   UNL     1      40.508 -11.444   2.148  1.00  0.00    -0.242 NA
HETATM    7  C   UNL     1      40.421 -12.150   1.008  1.00  0.00     0.086 A 
HETATM    8  C   UNL     1      40.277 -13.564   0.986  1.00  0.00     0.088 A 
HETATM    9  N   UNL     1      40.250 -14.311   2.100  1.00  0.00    -0.225 NA
HETATM   10  C   UNL     1      40.463 -11.465  -0.200  1.00  0.00     0.034 A 
HETATM   11  C   UNL     1      40.344 -12.129  -1.422  1.00  0.00     0.002 A 
HETATM   12  C   UNL     1      40.182 -13.506  -1.441  1.00  0.00     0.002 A 
HETATM   13  C   UNL     1      40.156 -14.210  -0.238  1.00  0.00     0.034 A 
ENDROOT
BRANCH   3  14
HETATM   14  N   UNL     1      40.853 -15.259   4.929  1.00  0.00    -0.176 NA
HETATM   15  C   UNL     1      42.136 -15.368   4.773  1.00  0.00     0.153 C 
BRANCH  15  16
HETATM   16  C   UNL     1      42.864 -16.577   5.059  1.00  0.00     0.011 A 
HETATM   17  C   UNL     1      43.134 -17.627   4.125  1.00  0.00     0.004 A 
HETATM   18  C   UNL     1      43.744 -18.663   4.828  1.00  0.00     0.043 A 
HETATM   19  C   UNL     1      42.893 -17.800   2.742  1.00  0.00     0.014 A 
HETATM   20  C   UNL     1      44.109 -19.872   4.224  1.00  0.00     0.030 A 
HETATM   21  N   UNL     1      43.877 -18.241   6.133  1.00  0.00    -0.364 N 
HETATM   22  C   UNL     1      43.856 -20.020   2.857  1.00  0.00     0.002 A 
HETATM   23  C   UNL     1      43.263 -18.997   2.122  1.00  0.00     0.001 A 
HETATM   24  H   UNL     1      44.276 -18.796   6.877  1.00  0.00     0.165 HD
HETATM   25  C   UNL     1      43.367 -16.978   6.280  1.00  0.00     0.102 A 
ENDBRANCH  15  16
ENDBRANCH   3  14
BRANCH   2  26
HETATM   26  N   UNL     1      39.664 -13.129   6.651  1.00  0.00    -0.286 NA
HETATM   27  H   UNL     1      40.123 -12.544   7.355  1.00  0.00     0.125 HD
HETATM   28  H   UNL     1      38.651 -13.110   6.810  1.00  0.00     0.125 HD
ENDBRANCH   2  26
BRANCH   1  29
HETATM   29  C   UNL     1      40.724 -10.501   5.262  1.00  0.00     0.257 C 
HETATM   30  N   UNL     1      41.297 -10.637   6.511  1.00  0.00    -0.352 N 
HETATM   31  H   UNL     1      41.550 -11.583   6.763  1.00  0.00     0.163 HD
HETATM   32  O   UNL     1      40.589  -9.423   4.699  1.00  0.00    -0.267 OA
BRANCH  30  33
HETATM   33  C   UNL     1      42.020  -9.580   7.173  1.00  0.00     0.161 C 
BRANCH  33  34
HETATM   34  C   UNL     1      43.482  -9.897   7.424  1.00  0.00    -0.041 A 
HETATM   35  C   UNL     1      44.161 -10.990   6.857  1.00  0.00     0.009 A 
HETATM   36  C   UNL     1      45.516 -11.215   7.120  1.00  0.00     0.001 A 
HETATM   37  C   UNL     1      46.219 -10.345   7.946  1.00  0.00     0.000 A 
HETATM   38  C   UNL     1      45.571  -9.245   8.502  1.00  0.00     0.001 A 
HETATM   39  C   UNL     1      44.217  -9.021   8.240  1.00  0.00     0.009 A 
ENDBRANCH  33  34
ENDBRANCH  30  33
ENDBRANCH   1  29
TORSDOF 6
ENDMDL
MODEL 5
REMARK VINA RESULT:     -10.1      2.013      8.704
REMARK  6 active torsions:
REMARK  status: ('A' for Active; 'I' for Inactive)
REMARK    1  A    between atoms: C_4  and  C_5 
REMARK    2  A    between atoms: C_5  and  N_6 
REMARK       I    between atoms: N_6  and  C_7 
REMARK    3  A    between atoms: C_7  and  C_8 
REMARK    4  A    between atoms: C_9  and  N_10 
REMARK    5  A    between atoms: N_11  and  N_12 
REMARK    6  A    between atoms: C_13  and  C_14 
ROOT
HETATM    1  C   UNL     1      42.419 -12.500   4.254  1.00  0.00     0.104 C 
HETATM    2  C   UNL     1      42.404 -11.839   3.031  1.00  0.00     0.123 C 
HETATM    3  N   UNL     1      42.107 -12.801   2.065  1.00  0.00    -0.202 N 
HETATM    4  C   UNL     1      42.573 -14.007   2.548  1.00  0.00     0.183 A 
HETATM    5  C   UNL     1      42.682 -13.862   3.932  1.00  0.00     0.124 A 
HETATM    6  N   UNL     1      42.956 -14.932   4.722  1.00  0.00    -0.242 NA
HETATM    7  C   UNL     1      43.190 -16.079   4.061  1.00  0.00     0.086 A 
HETATM    8  C   UNL     1      43.109 -16.183   2.646  1.00  0.00     0.088 A 
HETATM    9  N   UNL     1      42.761 -15.154   1.858  1.00  0.00    -0.225 NA
HETATM   10  C   UNL     1      43.534 -17.207   4.794  1.00  0.00     0.034 A 
HETATM   11  C   UNL     1      43.822 -18.424   4.174  1.00  0.00     0.002 A 
HETATM   12  C   UNL     1      43.765 -18.518   2.792  1.00  0.00     0.002 A 
HETATM   13  C   UNL     1      43.403 -17.399   2.042  1.00  0.00     0.034 A 
ENDROOT
BRANCH   3  14
HETATM   14  N   UNL     1      41.385 -12.611   0.907  1.00  0.00    -0.176 NA
HETATM   15  C   UNL     1      40.112 -12.560   1.146  1.00  0.00     0.153 C 
BRANCH  15  16
HETATM   16  C   UNL     1      39.122 -12.424   0.108  1.00  0.00     0.011 A 
HETATM   17  C   UNL     1      38.910 -13.346  -0.965  1.00  0.00     0.004 A 
HETATM   18  C   UNL     1      37.956 -12.785  -1.812  1.00  0.00     0.043 A 
HETATM   19  C   UNL     1      39.463 -14.602  -1.308  1.00  0.00     0.014 A 
HETATM   20  C   UNL     1      37.541 -13.408  -2.996  1.00  0.00     0.030 A 
HETATM   21  N   UNL     1      37.574 -11.587  -1.252  1.00  0.00    -0.364 N 
HETATM   22  C   UNL     1      38.105 -14.646  -3.314  1.00  0.00     0.002 A 
HETATM   23  C   UNL     1      39.047 -15.241  -2.480  1.00  0.00     0.001 A 
HETATM   24  H   UNL     1      36.900 -10.953  -1.658  1.00  0.00     0.165 HD
HETATM   25  C   UNL     1      38.255 -11.367  -0.083  1.00  0.00     0.102 A 
ENDBRANCH  15  16
ENDBRANCH   3  14
BRANCH   2  26
HETATM   26  N   UNL     1      42.470 -10.505   2.724  1.00  0.00    -0.286 NA
HETATM   27  H   UNL     1      41.788 -10.164   2.041  1.00  0.00     0.125 HD
HETATM   28  H   UNL     1      42.493  -9.861   3.523  1.00  0.00     0.125 HD
ENDBRANCH   2  26
BRANCH   1  29
HETATM   29  C   UNL     1      42.185 -11.875   5.553  1.00  0.00     0.257 C 
HETATM   30  N   UNL     1      42.933 -10.725   5.718  1.00  0.00    -0.352 N 
HETATM   31  H   UNL     1      43.411 -10.405   4.887  1.00  0.00     0.163 HD
HETATM   32  O   UNL     1      41.356 -12.260   6.366  1.00  0.00    -0.267 OA
BRANCH  30  33
HETATM   33  C   UNL     1      42.647  -9.730   6.721  1.00  0.00     0.161 C 
BRANCH  33  34
HETATM   34  C   UNL     1      43.542  -9.814   7.943  1.00  0.00    -0.041 A 
HETATM   35  C   UNL     1      43.098  -9.614   9.262  1.00  0.00     0.009 A 
HETATM   36  C   UNL     1      43.975  -9.720  10.346  1.00  0.00     0.001 A 
HETATM   37  C   UNL     1      45.311 -10.040  10.131  1.00  0.00     0.000 A 
HETATM   38  C   UNL     1      45.769 -10.262   8.835  1.00  0.00     0.001 A 
HETATM   39  C   UNL     1      44.892 -10.154   7.752  1.00  0.00     0.009 A 
ENDBRANCH  33  34
ENDBRANCH  30  33
ENDBRANCH   1  29
TORSDOF 6
ENDMDL
MODEL 6
REMARK VINA RESULT:      -9.8      1.803      2.365
REMARK  6 active torsions:
REMARK  status: ('A' for Active; 'I' for Inactive)
REMARK    1  A    between atoms: C_4  and  C_5 
REMARK    2  A    between atoms: C_5  and  N_6 
REMARK       I    between atoms: N_6  and  C_7 
REMARK    3  A    between atoms: C_7  and  C_8 
REMARK    4  A    between atoms: C_9  and  N_10 
REMARK    5  A    between atoms: N_11  and  N_12 
REMARK    6  A    between atoms: C_13  and  C_14 
ROOT
HETATM    1  C   UNL     1      40.900 -13.688   2.732  1.00  0.00     0.104 C 
HETATM    2  C   UNL     1      40.368 -13.126   3.887  1.00  0.00     0.123 C 
HETATM    3  N   UNL     1      41.209 -13.503   4.933  1.00  0.00    -0.202 N 
HETATM    4  C   UNL     1      41.776 -14.709   4.574  1.00  0.00     0.183 A 
HETATM    5  C   UNL     1      41.675 -14.794   3.184  1.00  0.00     0.124 A 
HETATM    6  N   UNL     1      42.295 -15.791   2.503  1.00  0.00    -0.242 NA
HETATM    7  C   UNL     1      42.918 -16.701   3.272  1.00  0.00     0.086 A 
HETATM    8  C   UNL     1      42.968 -16.606   4.690  1.00  0.00     0.088 A 
HETATM    9  N   UNL     1      42.429 -15.584   5.372  1.00  0.00    -0.225 NA
HETATM   10  C   UNL     1      43.528 -17.784   2.654  1.00  0.00     0.034 A 
HETATM   11  C   UNL     1      44.164 -18.785   3.391  1.00  0.00     0.002 A 
HETATM   12  C   UNL     1      44.194 -18.702   4.775  1.00  0.00     0.002 A 
HETATM   13  C   UNL     1      43.602 -17.611   5.410  1.00  0.00     0.034 A 
ENDROOT
BRANCH   3  14
HETATM   14  N   UNL     1      41.510 -12.764   6.057  1.00  0.00    -0.176 NA
HETATM   15  C   UNL     1      41.965 -11.591   5.744  1.00  0.00     0.153 C 
BRANCH  15  16
HETATM   16  C   UNL     1      42.409 -10.632   6.723  1.00  0.00     0.011 A 
HETATM   17  C   UNL     1      43.756 -10.474   7.180  1.00  0.00     0.004 A 
HETATM   18  C   UNL     1      43.736  -9.537   8.211  1.00  0.00     0.043 A 
HETATM   19  C   UNL     1      44.992 -11.061   6.825  1.00  0.00     0.014 A 
HETATM   20  C   UNL     1      44.888  -9.172   8.920  1.00  0.00     0.030 A 
HETATM   21  N   UNL     1      42.433  -9.113   8.347  1.00  0.00    -0.364 N 
HETATM   22  C   UNL     1      46.096  -9.770   8.552  1.00  0.00     0.002 A 
HETATM   23  C   UNL     1      46.152 -10.696   7.515  1.00  0.00     0.001 A 
HETATM   24  H   UNL     1      42.117  -8.440   9.032  1.00  0.00     0.165 HD
HETATM   25  C   UNL     1      41.627  -9.752   7.442  1.00  0.00     0.102 A 
ENDBRANCH  15  16
ENDBRANCH   3  14
BRANCH   2  26
HETATM   26  N   UNL     1      39.349 -12.228   4.067  1.00  0.00    -0.286 NA
HETATM   27  H   UNL     1      39.207 -11.549   3.315  1.00  0.00     0.125 HD
HETATM   28  H   UNL     1      38.442 -12.625   4.333  1.00  0.00     0.125 HD
ENDBRANCH   2  26
BRANCH   1  29
HETATM   29  C   UNL     1      40.688 -13.188   1.376  1.00  0.00     0.257 C 
HETATM   30  N   UNL     1      39.346 -13.088   1.063  1.00  0.00    -0.352 N 
HETATM   31  H   UNL     1      38.716 -13.230   1.841  1.00  0.00     0.163 HD
HETATM   32  O   UNL     1      41.581 -12.807   0.632  1.00  0.00    -0.267 OA
BRANCH  30  33
HETATM   33  C   UNL     1      38.844 -12.307  -0.039  1.00  0.00     0.161 C 
BRANCH  33  34
HETATM   34  C   UNL     1      38.515 -13.125  -1.274  1.00  0.00    -0.041 A 
HETATM   35  C   UNL     1      37.489 -12.807  -2.181  1.00  0.00     0.009 A 
HETATM   36  C   UNL     1      37.249 -13.599  -3.308  1.00  0.00     0.001 A 
HETATM   37  C   UNL     1      38.038 -14.717  -3.556  1.00  0.00     0.000 A 
HETATM   38  C   UNL     1      39.073 -15.039  -2.682  1.00  0.00     0.001 A 
HETATM   39  C   UNL     1      39.312 -14.249  -1.554  1.00  0.00     0.009 A 
ENDBRANCH  33  34
ENDBRANCH  30  33
ENDBRANCH   1  29
TORSDOF 6
ENDMDL
MODEL 7
REMARK VINA RESULT:      -9.5      2.836      9.110
REMARK  6 active torsions:
REMARK  status: ('A' for Active; 'I' for Inactive)
REMARK    1  A    between atoms: C_4  and  C_5 
REMARK    2  A    between atoms: C_5  and  N_6 
REMARK       I    between atoms: N_6  and  C_7 
REMARK    3  A    between atoms: C_7  and  C_8 
REMARK    4  A    between atoms: C_9  and  N_10 
REMARK    5  A    between atoms: N_11  and  N_12 
REMARK    6  A    between atoms: C_13  and  C_14 
ROOT
HETATM    1  C   UNL     1      40.416  -9.986   6.684  1.00  0.00     0.104 C 
HETATM    2  C   UNL     1      40.086 -10.222   5.354  1.00  0.00     0.123 C 
HETATM    3  N   UNL     1      41.055 -11.092   4.855  1.00  0.00    -0.202 N 
HETATM    4  C   UNL     1      42.208 -10.860   5.575  1.00  0.00     0.183 A 
HETATM    5  C   UNL     1      41.812 -10.253   6.769  1.00  0.00     0.124 A 
HETATM    6  N   UNL     1      42.703 -10.050   7.773  1.00  0.00    -0.242 NA
HETATM    7  C   UNL     1      43.969 -10.396   7.485  1.00  0.00     0.086 A 
HETATM    8  C   UNL     1      44.347 -10.977   6.244  1.00  0.00     0.088 A 
HETATM    9  N   UNL     1      43.465 -11.257   5.272  1.00  0.00    -0.225 NA
HETATM   10  C   UNL     1      44.952 -10.166   8.440  1.00  0.00     0.034 A 
HETATM   11  C   UNL     1      46.293 -10.469   8.198  1.00  0.00     0.002 A 
HETATM   12  C   UNL     1      46.663 -11.016   6.979  1.00  0.00     0.002 A 
HETATM   13  C   UNL     1      45.686 -11.269   6.016  1.00  0.00     0.034 A 
ENDROOT
BRANCH   3  14
HETATM   14  N   UNL     1      40.870 -12.075   3.907  1.00  0.00    -0.176 NA
HETATM   15  C   UNL     1      41.043 -13.257   4.411  1.00  0.00     0.153 C 
BRANCH  15  16
HETATM   16  C   UNL     1      40.965 -14.465   3.630  1.00  0.00     0.011 A 
HETATM   17  C   UNL     1      41.901 -15.547   3.676  1.00  0.00     0.004 A 
HETATM   18  C   UNL     1      41.536 -16.454   2.682  1.00  0.00     0.043 A 
HETATM   19  C   UNL     1      43.044 -15.828   4.459  1.00  0.00     0.014 A 
HETATM   20  C   UNL     1      42.268 -17.618   2.420  1.00  0.00     0.030 A 
HETATM   21  N   UNL     1      40.397 -15.960   2.084  1.00  0.00    -0.364 N 
HETATM   22  C   UNL     1      43.395 -17.871   3.205  1.00  0.00     0.002 A 
HETATM   23  C   UNL     1      43.777 -16.994   4.217  1.00  0.00     0.001 A 
HETATM   24  H   UNL     1      39.915 -16.405   1.316  1.00  0.00     0.165 HD
HETATM   25  C   UNL     1      40.033 -14.771   2.660  1.00  0.00     0.102 A 
ENDBRANCH  15  16
ENDBRANCH   3  14
BRANCH   2  26
HETATM   26  N   UNL     1      38.978  -9.880   4.624  1.00  0.00    -0.286 NA
HETATM   27  H   UNL     1      38.427  -9.094   4.980  1.00  0.00     0.125 HD
HETATM   28  H   UNL     1      39.123  -9.756   3.616  1.00  0.00     0.125 HD
ENDBRANCH   2  26
BRANCH   1  29
HETATM   29  C   UNL     1      39.478  -9.575   7.725  1.00  0.00     0.257 C 
HETATM   30  N   UNL     1      39.796 -10.117   8.955  1.00  0.00    -0.352 N 
HETATM   31  H   UNL     1      40.690 -10.587   8.994  1.00  0.00     0.163 HD
HETATM   32  O   UNL     1      38.571  -8.770   7.559  1.00  0.00    -0.267 OA
BRANCH  30  33
HETATM   33  C   UNL     1      39.277  -9.614  10.202  1.00  0.00     0.161 C 
BRANCH  33  34
HETATM   34  C   UNL     1      40.301  -9.563  11.319  1.00  0.00    -0.041 A 
HETATM   35  C   UNL     1      41.692  -9.541  11.114  1.00  0.00     0.009 A 
HETATM   36  C   UNL     1      42.582  -9.479  12.191  1.00  0.00     0.001 A 
HETATM   37  C   UNL     1      42.096  -9.426  13.493  1.00  0.00     0.000 A 
HETATM   38  C   UNL     1      40.722  -9.426  13.719  1.00  0.00     0.001 A 
HETATM   39  C   UNL     1      39.834  -9.490  12.642  1.00  0.00     0.009 A 
ENDBRANCH  33  34
ENDBRANCH  30  33
ENDBRANCH   1  29
TORSDOF 6
ENDMDL
MODEL 8
REMARK VINA RESULT:      -9.4      2.674      5.930
REMARK  6 active torsions:
REMARK  status: ('A' for Active; 'I' for Inactive)
REMARK    1  A    between atoms: C_4  and  C_5 
REMARK    2  A    between atoms: C_5  and  N_6 
REMARK       I    between atoms: N_6  and  C_7 
REMARK    3  A    between atoms: C_7  and  C_8 
REMARK    4  A    between atoms: C_9  and  N_10 
REMARK    5  A    between atoms: N_11  and  N_12 
REMARK    6  A    between atoms: C_13  and  C_14 
ROOT
HETATM    1  C   UNL     1      43.316 -13.187   6.100  1.00  0.00     0.104 C 
HETATM    2  C   UNL     1      43.874 -12.067   6.706  1.00  0.00     0.123 C 
HETATM    3  N   UNL     1      43.247 -10.958   6.141  1.00  0.00    -0.202 N 
HETATM    4  C   UNL     1      42.866 -11.322   4.866  1.00  0.00     0.183 A 
HETATM    5  C   UNL     1      42.812 -12.717   4.854  1.00  0.00     0.124 A 
HETATM    6  N   UNL     1      42.302 -13.383   3.786  1.00  0.00    -0.242 NA
HETATM    7  C   UNL     1      41.950 -12.603   2.749  1.00  0.00     0.086 A 
HETATM    8  C   UNL     1      42.055 -11.186   2.779  1.00  0.00     0.088 A 
HETATM    9  N   UNL     1      42.481 -10.510   3.856  1.00  0.00    -0.225 NA
HETATM   10  C   UNL     1      41.473 -13.213   1.595  1.00  0.00     0.034 A 
HETATM   11  C   UNL     1      41.120 -12.470   0.468  1.00  0.00     0.002 A 
HETATM   12  C   UNL     1      41.243 -11.089   0.491  1.00  0.00     0.002 A 
HETATM   13  C   UNL     1      41.704 -10.460   1.647  1.00  0.00     0.034 A 
ENDROOT
BRANCH   3  14
HETATM   14  N   UNL     1      42.957  -9.766   6.769  1.00  0.00    -0.176 NA
HETATM   15  C   UNL     1      42.358  -9.961   7.903  1.00  0.00     0.153 C 
BRANCH  15  16
HETATM   16  C   UNL     1      41.892  -8.887   8.741  1.00  0.00     0.011 A 
HETATM   17  C   UNL     1      42.375  -8.588  10.055  1.00  0.00     0.004 A 
HETATM   18  C   UNL     1      41.580  -7.564  10.567  1.00  0.00     0.043 A 
HETATM   19  C   UNL     1      43.405  -9.113  10.869  1.00  0.00     0.014 A 
HETATM   20  C   UNL     1      41.751  -7.052  11.859  1.00  0.00     0.030 A 
HETATM   21  N   UNL     1      40.675  -7.227   9.584  1.00  0.00    -0.364 N 
HETATM   22  C   UNL     1      42.773  -7.591  12.644  1.00  0.00     0.002 A 
HETATM   23  C   UNL     1      43.595  -8.603  12.156  1.00  0.00     0.001 A 
HETATM   24  H   UNL     1      39.961  -6.519   9.682  1.00  0.00     0.165 HD
HETATM   25  C   UNL     1      40.867  -8.004   8.472  1.00  0.00     0.102 A 
ENDBRANCH  15  16
ENDBRANCH   3  14
BRANCH   2  26
HETATM   26  N   UNL     1      44.731 -11.949   7.770  1.00  0.00    -0.286 NA
HETATM   27  H   UNL     1      45.494 -11.275   7.662  1.00  0.00     0.125 HD
HETATM   28  H   UNL     1      44.292 -11.813   8.687  1.00  0.00     0.125 HD
ENDBRANCH   2  26
BRANCH   1  29
HETATM   29  C   UNL     1      43.270 -14.526   6.682  1.00  0.00     0.257 C 
HETATM   30  N   UNL     1      43.307 -15.513   5.717  1.00  0.00    -0.352 N 
HETATM   31  H   UNL     1      43.504 -15.187   4.781  1.00  0.00     0.163 HD
HETATM   32  O   UNL     1      43.295 -14.759   7.883  1.00  0.00    -0.267 OA
BRANCH  30  33
HETATM   33  C   UNL     1      43.632 -16.889   6.001  1.00  0.00     0.161 C 
BRANCH  33  34
HETATM   34  C   UNL     1      43.637 -17.785   4.778  1.00  0.00    -0.041 A 
HETATM   35  C   UNL     1      43.989 -19.146   4.798  1.00  0.00     0.009 A 
HETATM   36  C   UNL     1      43.958 -19.919   3.633  1.00  0.00     0.001 A 
HETATM   37  C   UNL     1      43.563 -19.348   2.428  1.00  0.00     0.000 A 
HETATM   38  C   UNL     1      43.191 -18.007   2.389  1.00  0.00     0.001 A 
HETATM   39  C   UNL     1      43.223 -17.234   3.553  1.00  0.00     0.009 A 
ENDBRANCH  33  34
ENDBRANCH  30  33
ENDBRANCH   1  29
TORSDOF 6
ENDMDL
MODEL 9
REMARK VINA RESULT:      -9.4      2.713      6.195
REMARK  6 active torsions:
REMARK  status: ('A' for Active; 'I' for Inactive)
REMARK    1  A    between atoms: C_4  and  C_5 
REMARK    2  A    between atoms: C_5  and  N_6 
REMARK       I    between atoms: N_6  and  C_7 
REMARK    3  A    between atoms: C_7  and  C_8 
REMARK    4  A    between atoms: C_9  and  N_10 
REMARK    5  A    between atoms: N_11  and  N_12 
REMARK    6  A    between atoms: C_13  and  C_14 
ROOT
HETATM    1  C   UNL     1      42.326 -12.542   2.608  1.00  0.00     0.104 C 
HETATM    2  C   UNL     1      43.158 -11.606   3.210  1.00  0.00     0.123 C 
HETATM    3  N   UNL     1      42.325 -10.643   3.777  1.00  0.00    -0.202 N 
HETATM    4  C   UNL     1      41.172 -10.618   3.020  1.00  0.00     0.183 A 
HETATM    5  C   UNL     1      41.111 -11.844   2.354  1.00  0.00     0.124 A 
HETATM    6  N   UNL     1      40.002 -12.200   1.656  1.00  0.00    -0.242 NA
HETATM    7  C   UNL     1      39.044 -11.259   1.597  1.00  0.00     0.086 A 
HETATM    8  C   UNL     1      39.154 -10.003   2.254  1.00  0.00     0.088 A 
HETATM    9  N   UNL     1      40.209  -9.669   3.014  1.00  0.00    -0.225 NA
HETATM   10  C   UNL     1      37.901 -11.523   0.853  1.00  0.00     0.034 A 
HETATM   11  C   UNL     1      36.880 -10.581   0.719  1.00  0.00     0.002 A 
HETATM   12  C   UNL     1      36.999  -9.349   1.343  1.00  0.00     0.002 A 
HETATM   13  C   UNL     1      38.132  -9.074   2.109  1.00  0.00     0.034 A 
ENDROOT
BRANCH   3  14
HETATM   14  N   UNL     1      42.554  -9.933   4.936  1.00  0.00    -0.176 NA
HETATM   15  C   UNL     1      42.134 -10.581   5.978  1.00  0.00     0.153 C 
BRANCH  15  16
HETATM   16  C   UNL     1      42.199 -10.047   7.315  1.00  0.00     0.011 A 
HETATM   17  C   UNL     1      43.372  -9.991   8.132  1.00  0.00     0.004 A 
HETATM   18  C   UNL     1      42.983  -9.527   9.386  1.00  0.00     0.043 A 
HETATM   19  C   UNL     1      44.733 -10.317   7.925  1.00  0.00     0.014 A 
HETATM   20  C   UNL     1      43.881  -9.390  10.452  1.00  0.00     0.030 A 
HETATM   21  N   UNL     1      41.631  -9.272   9.320  1.00  0.00    -0.364 N 
HETATM   22  C   UNL     1      45.219  -9.722  10.223  1.00  0.00     0.002 A 
HETATM   23  C   UNL     1      45.644 -10.172   8.976  1.00  0.00     0.001 A 
HETATM   24  H   UNL     1      41.072  -8.936  10.093  1.00  0.00     0.165 HD
HETATM   25  C   UNL     1      41.151  -9.563   8.070  1.00  0.00     0.102 A 
ENDBRANCH  15  16
ENDBRANCH   3  14
BRANCH   2  26
HETATM   26  N   UNL     1      44.511 -11.609   3.428  1.00  0.00    -0.286 NA
HETATM   27  H   UNL     1      44.827 -11.211   4.317  1.00  0.00     0.125 HD
HETATM   28  H   UNL     1      44.989 -12.504   3.276  1.00  0.00     0.125 HD
ENDBRANCH   2  26
BRANCH   1  29
HETATM   29  C   UNL     1      42.677 -13.934   2.340  1.00  0.00     0.257 C 
HETATM   30  N   UNL     1      41.661 -14.803   2.688  1.00  0.00    -0.352 N 
HETATM   31  H   UNL     1      40.786 -14.359   2.933  1.00  0.00     0.163 HD
HETATM   32  O   UNL     1      43.706 -14.293   1.784  1.00  0.00    -0.267 OA
BRANCH  30  33
HETATM   33  C   UNL     1      41.583 -16.163   2.216  1.00  0.00     0.161 C 
BRANCH  33  34
HETATM   34  C   UNL     1      42.525 -17.116   2.927  1.00  0.00    -0.041 A 
HETATM   35  C   UNL     1      43.133 -18.227   2.316  1.00  0.00     0.009 A 
HETATM   36  C   UNL     1      44.004 -19.057   3.028  1.00  0.00     0.001 A 
HETATM   37  C   UNL     1      44.293 -18.786   4.361  1.00  0.00     0.000 A 
HETATM   38  C   UNL     1      43.717 -17.679   4.981  1.00  0.00     0.001 A 
HETATM   39  C   UNL     1      42.845 -16.850   4.270  1.00  0.00     0.009 A 
ENDBRANCH  33  34
ENDBRANCH  30  33
ENDBRANCH   1  29
TORSDOF 6
ENDMDL
MODEL 10
REMARK VINA RESULT:      -9.3      2.047      2.660
REMARK  6 active torsions:
REMARK  status: ('A' for Active; 'I' for Inactive)
REMARK    1  A    between atoms: C_4  and  C_5 
REMARK    2  A    between atoms: C_5  and  N_6 
REMARK       I    between atoms: N_6  and  C_7 
REMARK    3  A    between atoms: C_7  and  C_8 
REMARK    4  A    between atoms: C_9  and  N_10 
REMARK    5  A    between atoms: N_11  and  N_12 
REMARK    6  A    between atoms: C_13  and  C_14 
ROOT
HETATM    1  C   UNL     1      40.894 -14.066   3.671  1.00  0.00     0.104 C 
HETATM    2  C   UNL     1      40.959 -13.540   4.956  1.00  0.00     0.123 C 
HETATM    3  N   UNL     1      42.144 -14.013   5.518  1.00  0.00    -0.202 N 
HETATM    4  C   UNL     1      42.414 -15.226   4.916  1.00  0.00     0.183 A 
HETATM    5  C   UNL     1      41.710 -15.232   3.710  1.00  0.00     0.124 A 
HETATM    6  N   UNL     1      41.902 -16.222   2.801  1.00  0.00    -0.242 NA
HETATM    7  C   UNL     1      42.734 -17.201   3.196  1.00  0.00     0.086 A 
HETATM    8  C   UNL     1      43.404 -17.184   4.450  1.00  0.00     0.088 A 
HETATM    9  N   UNL     1      43.287 -16.173   5.324  1.00  0.00    -0.225 NA
HETATM   10  C   UNL     1      42.938 -18.280   2.346  1.00  0.00     0.034 A 
HETATM   11  C   UNL     1      43.762 -19.349   2.703  1.00  0.00     0.002 A 
HETATM   12  C   UNL     1      44.398 -19.341   3.935  1.00  0.00     0.002 A 
HETATM   13  C   UNL     1      44.218 -18.256   4.793  1.00  0.00     0.034 A 
ENDROOT
BRANCH   3  14
HETATM   14  N   UNL     1      42.954 -13.350   6.414  1.00  0.00    -0.176 NA
HETATM   15  C   UNL     1      43.530 -12.327   5.864  1.00  0.00     0.153 C 
BRANCH  15  16
HETATM   16  C   UNL     1      44.473 -11.488   6.558  1.00  0.00     0.011 A 
HETATM   17  C   UNL     1      44.137 -10.413   7.440  1.00  0.00     0.004 A 
HETATM   18  C   UNL     1      45.327  -9.781   7.797  1.00  0.00     0.043 A 
HETATM   19  C   UNL     1      42.922  -9.902   7.953  1.00  0.00     0.014 A 
HETATM   20  C   UNL     1      45.362  -8.652   8.624  1.00  0.00     0.030 A 
HETATM   21  N   UNL     1      46.350 -10.473   7.186  1.00  0.00    -0.364 N 
HETATM   22  C   UNL     1      44.148  -8.165   9.114  1.00  0.00     0.002 A 
HETATM   23  C   UNL     1      42.943  -8.783   8.791  1.00  0.00     0.001 A 
HETATM   24  H   UNL     1      47.328 -10.229   7.256  1.00  0.00     0.165 HD
HETATM   25  C   UNL     1      45.849 -11.516   6.452  1.00  0.00     0.102 A 
ENDBRANCH  15  16
ENDBRANCH   3  14
BRANCH   2  26
HETATM   26  N   UNL     1      40.184 -12.602   5.588  1.00  0.00    -0.286 NA
HETATM   27  H   UNL     1      40.436 -12.387   6.557  1.00  0.00     0.125 HD
HETATM   28  H   UNL     1      40.037 -11.724   5.079  1.00  0.00     0.125 HD
ENDBRANCH   2  26
BRANCH   1  29
HETATM   29  C   UNL     1      40.146 -13.486   2.559  1.00  0.00     0.257 C 
HETATM   30  N   UNL     1      38.916 -12.999   2.958  1.00  0.00    -0.352 N 
HETATM   31  H   UNL     1      38.770 -12.979   3.958  1.00  0.00     0.163 HD
HETATM   32  O   UNL     1      40.585 -13.352   1.425  1.00  0.00    -0.267 OA
BRANCH  30  33
HETATM   33  C   UNL     1      38.136 -12.075   2.174  1.00  0.00     0.161 C 
BRANCH  33  34
HETATM   34  C   UNL     1      38.527 -10.622   2.367  1.00  0.00    -0.041 A 
HETATM   35  C   UNL     1      38.573  -9.976   3.615  1.00  0.00     0.009 A 
HETATM   36  C   UNL     1      38.957  -8.635   3.722  1.00  0.00     0.001 A 
HETATM   37  C   UNL     1      39.313  -7.919   2.584  1.00  0.00     0.000 A 
HETATM   38  C   UNL     1      39.294  -8.545   1.340  1.00  0.00     0.001 A 
HETATM   39  C   UNL     1      38.909  -9.884   1.233  1.00  0.00     0.009 A 
ENDBRANCH  33  34
ENDBRANCH  30  33
ENDBRANCH   1  29
TORSDOF 6
ENDMDL
