MODEL 1
REMARK VINA RESULT:      -9.6      0.000      0.000
REMARK  4 active torsions:
REMARK  status: ('A' for Active; 'I' for Inactive)
REMARK    1  A    between atoms: C_8  and  C_9 
REMARK       I    between atoms: C_9  and  N_10 
REMARK    2  A    between atoms: N_10  and  C_11 
REMARK    3  A    between atoms: C_12  and  N_13 
REMARK    4  A    between atoms: C_16  and  O_17 
ROOT
HETATM    1  C   UNL     1      42.541 -12.509   2.614  1.00  0.00     0.256 C 
HETATM    2  N   UNL     1      42.603 -11.571   3.623  1.00  0.00    -0.321 N 
HETATM    3  O   UNL     1      42.018 -12.213   1.540  1.00  0.00    -0.267 OA
HETATM    4  H   UNL     1      41.936 -10.814   3.547  1.00  0.00     0.169 HD
ENDROOT
BRANCH   2   5
HETATM    5  C   UNL     1      43.428 -11.550   4.760  1.00  0.00     0.061 A 
HETATM    6  C   UNL     1      42.868 -11.382   6.054  1.00  0.00     0.057 A 
HETATM    7  C   UNL     1      43.798 -11.281   7.109  1.00  0.00     0.031 A 
HETATM    8  C   UNL     1      45.184 -11.302   6.901  1.00  0.00     0.002 A 
HETATM    9  C   UNL     1      45.695 -11.449   5.621  1.00  0.00     0.002 A 
HETATM   10  C   UNL     1      44.819 -11.588   4.553  1.00  0.00     0.032 A 
BRANCH   6  11
HETATM   11  N   UNL     1      41.497 -11.335   6.304  1.00  0.00    -0.379 N 
HETATM   12  C   UNL     1      40.874 -10.187   6.971  1.00  0.00     0.125 C 
HETATM   13  C   UNL     1      39.640  -9.775   6.169  1.00  0.00     0.051 C 
HETATM   14  C   UNL     1      38.694 -10.945   5.890  1.00  0.00     0.121 C 
HETATM   15  C   UNL     1      39.418 -12.203   5.405  1.00  0.00     0.051 C 
HETATM   16  C   UNL     1      40.634 -12.522   6.273  1.00  0.00     0.125 C 
BRANCH  14  17
HETATM   17  O   UNL     1      37.912 -11.234   7.049  1.00  0.00    -0.395 OA
HETATM   18  H   UNL     1      37.012 -11.477   6.774  1.00  0.00     0.210 HD
ENDBRANCH  14  17
ENDBRANCH   6  11
ENDBRANCH   2   5
BRANCH   1  19
HETATM   19  C   UNL     1      42.943 -13.932   2.858  1.00  0.00     0.033 A 
HETATM   20  C   UNL     1      42.960 -14.486   4.146  1.00  0.00     0.025 A 
HETATM   21  C   UNL     1      43.228 -15.840   4.287  1.00  0.00    -0.042 A 
HETATM   22  C   UNL     1      43.444 -16.670   3.172  1.00  0.00    -0.019 A 
HETATM   23  C   UNL     1      43.306 -16.636   5.571  1.00  0.00     0.078 A 
HETATM   24  C   UNL     1      43.630 -18.028   3.641  1.00  0.00    -0.019 A 
HETATM   25  C   UNL     1      43.416 -16.140   1.892  1.00  0.00     0.014 A 
HETATM   26  C   UNL     1      43.554 -18.034   5.052  1.00  0.00    -0.043 A 
HETATM   27  C   UNL     1      43.828 -19.210   2.948  1.00  0.00     0.013 A 
HETATM   28  C   UNL     1      43.682 -19.203   5.784  1.00  0.00     0.008 A 
HETATM   29  C   UNL     1      43.883 -20.393   5.084  1.00  0.00     0.001 A 
HETATM   30  C   UNL     1      43.953 -20.396   3.680  1.00  0.00     0.001 A 
HETATM   31  C   UNL     1      43.166 -14.765   1.741  1.00  0.00     0.018 A 
ENDBRANCH   1  19
TORSDOF 4
ENDMDL
MODEL 2
REMARK VINA RESULT:      -9.6      1.757      3.636
REMARK  4 active torsions:
REMARK  status: ('A' for Active; 'I' for Inactive)
REMARK    1  A    between atoms: C_8  and  C_9 
REMARK       I    between atoms: C_9  and  N_10 
REMARK    2  A    between atoms: N_10  and  C_11 
REMARK    3  A    between atoms: C_12  and  N_13 
REMARK    4  A    between atoms: C_16  and  O_17 
ROOT
HETATM    1  C   UNL     1      43.022 -12.182   3.963  1.00  0.00     0.256 C 
HETATM    2  N   UNL     1      42.410 -11.544   2.905  1.00  0.00    -0.321 N 
HETATM    3  O   UNL     1      43.674 -11.526   4.774  1.00  0.00    -0.267 OA
HETATM    4  H   UNL     1      42.795 -10.638   2.670  1.00  0.00     0.169 HD
ENDROOT
BRANCH   2   5
HETATM    5  C   UNL     1      41.363 -11.997   2.084  1.00  0.00     0.061 A 
HETATM    6  C   UNL     1      40.052 -12.154   2.608  1.00  0.00     0.057 A 
HETATM    7  C   UNL     1      39.107 -12.704   1.719  1.00  0.00     0.031 A 
HETATM    8  C   UNL     1      39.436 -13.111   0.418  1.00  0.00     0.002 A 
HETATM    9  C   UNL     1      40.731 -12.960  -0.053  1.00  0.00     0.002 A 
HETATM   10  C   UNL     1      41.691 -12.389   0.773  1.00  0.00     0.032 A 
BRANCH   6  11
HETATM   11  N   UNL     1      39.686 -11.783   3.900  1.00  0.00    -0.379 N 
HETATM   12  C   UNL     1      39.449 -12.779   4.951  1.00  0.00     0.125 C 
HETATM   13  C   UNL     1      40.202 -12.343   6.207  1.00  0.00     0.051 C 
HETATM   14  C   UNL     1      39.896 -10.899   6.613  1.00  0.00     0.121 C 
HETATM   15  C   UNL     1      39.934  -9.922   5.436  1.00  0.00     0.051 C 
HETATM   16  C   UNL     1      39.156 -10.456   4.234  1.00  0.00     0.125 C 
BRANCH  14  17
HETATM   17  O   UNL     1      38.634 -10.830   7.278  1.00  0.00    -0.395 OA
HETATM   18  H   UNL     1      37.982 -10.424   6.684  1.00  0.00     0.210 HD
ENDBRANCH  14  17
ENDBRANCH   6  11
ENDBRANCH   2   5
BRANCH   1  19
HETATM   19  C   UNL     1      43.050 -13.678   4.048  1.00  0.00     0.033 A 
HETATM   20  C   UNL     1      43.043 -14.486   2.902  1.00  0.00     0.025 A 
HETATM   21  C   UNL     1      43.189 -15.857   3.051  1.00  0.00    -0.042 A 
HETATM   22  C   UNL     1      43.381 -16.448   4.314  1.00  0.00    -0.019 A 
HETATM   23  C   UNL     1      43.199 -16.907   1.961  1.00  0.00     0.078 A 
HETATM   24  C   UNL     1      43.564 -17.873   4.131  1.00  0.00    -0.019 A 
HETATM   25  C   UNL     1      43.404 -15.661   5.454  1.00  0.00     0.014 A 
HETATM   26  C   UNL     1      43.460 -18.169   2.752  1.00  0.00    -0.043 A 
HETATM   27  C   UNL     1      43.828 -18.880   5.042  1.00  0.00     0.013 A 
HETATM   28  C   UNL     1      43.608 -19.459   2.271  1.00  0.00     0.008 A 
HETATM   29  C   UNL     1      43.872 -20.473   3.192  1.00  0.00     0.001 A 
HETATM   30  C   UNL     1      43.983 -20.186   4.564  1.00  0.00     0.001 A 
HETATM   31  C   UNL     1      43.236 -14.272   5.315  1.00  0.00     0.018 A 
ENDBRANCH   1  19
TORSDOF 4
ENDMDL
MODEL 3
REMARK VINA RESULT:      -9.6      1.568      3.317
REMARK  4 active torsions:
REMARK  status: ('A' for Active; 'I' for Inactive)
REMARK    1  A    between atoms: C_8  and  C_9 
REMARK       I    between atoms: C_9  and  N_10 
REMARK    2  A    between atoms: N_10  and  C_11 
REMARK    3  A    between atoms: C_12  and  N_13 
REMARK    4  A    between atoms: C_16  and  O_17 
ROOT
HETATM    1  C   UNL     1      40.489 -12.918   6.032  1.00  0.00     0.256 C 
HETATM    2  N   UNL     1      41.302 -11.900   6.483  1.00  0.00    -0.321 N 
HETATM    3  O   UNL     1      39.267 -12.777   6.058  1.00  0.00    -0.267 OA
HETATM    4  H   UNL     1      40.856 -11.239   7.106  1.00  0.00     0.169 HD
ENDROOT
BRANCH   2   5
HETATM    5  C   UNL     1      42.669 -11.684   6.236  1.00  0.00     0.061 A 
HETATM    6  C   UNL     1      43.113 -11.277   4.950  1.00  0.00     0.057 A 
HETATM    7  C   UNL     1      44.512 -11.184   4.795  1.00  0.00     0.031 A 
HETATM    8  C   UNL     1      45.412 -11.508   5.819  1.00  0.00     0.002 A 
HETATM    9  C   UNL     1      44.941 -11.920   7.057  1.00  0.00     0.002 A 
HETATM   10  C   UNL     1      43.571 -11.994   7.270  1.00  0.00     0.032 A 
BRANCH   6  11
HETATM   11  N   UNL     1      42.255 -10.965   3.897  1.00  0.00    -0.379 N 
HETATM   12  C   UNL     1      42.364 -11.625   2.592  1.00  0.00     0.125 C 
HETATM   13  C   UNL     1      40.969 -12.077   2.163  1.00  0.00     0.051 C 
HETATM   14  C   UNL     1      39.934 -10.951   2.226  1.00  0.00     0.121 C 
HETATM   15  C   UNL     1      40.006 -10.139   3.521  1.00  0.00     0.051 C 
HETATM   16  C   UNL     1      41.442  -9.744   3.859  1.00  0.00     0.125 C 
BRANCH  14  17
HETATM   17  O   UNL     1      40.067 -10.093   1.092  1.00  0.00    -0.395 OA
HETATM   18  H   UNL     1      39.971  -9.170   1.377  1.00  0.00     0.210 HD
ENDBRANCH  14  17
ENDBRANCH   6  11
ENDBRANCH   2   5
BRANCH   1  19
HETATM   19  C   UNL     1      41.058 -14.256   5.670  1.00  0.00     0.033 A 
HETATM   20  C   UNL     1      41.079 -14.720   4.347  1.00  0.00     0.025 A 
HETATM   21  C   UNL     1      41.726 -15.915   4.068  1.00  0.00    -0.042 A 
HETATM   22  C   UNL     1      42.390 -16.647   5.069  1.00  0.00    -0.019 A 
HETATM   23  C   UNL     1      41.859 -16.599   2.726  1.00  0.00     0.078 A 
HETATM   24  C   UNL     1      43.015 -17.801   4.455  1.00  0.00    -0.019 A 
HETATM   25  C   UNL     1      42.390 -16.195   6.379  1.00  0.00     0.014 A 
HETATM   26  C   UNL     1      42.716 -17.796   3.073  1.00  0.00    -0.043 A 
HETATM   27  C   UNL     1      43.812 -18.796   4.992  1.00  0.00     0.013 A 
HETATM   28  C   UNL     1      43.195 -18.776   2.221  1.00  0.00     0.008 A 
HETATM   29  C   UNL     1      43.997 -19.780   2.765  1.00  0.00     0.001 A 
HETATM   30  C   UNL     1      44.304 -19.788   4.136  1.00  0.00     0.001 A 
HETATM   31  C   UNL     1      41.719 -14.996   6.675  1.00  0.00     0.018 A 
ENDBRANCH   1  19
TORSDOF 4
ENDMDL
MODEL 4
REMARK VINA RESULT:      -9.4     15.718     18.204
REMARK  4 active torsions:
REMARK  status: ('A' for Active; 'I' for Inactive)
REMARK    1  A    between atoms: C_8  and  C_9 
REMARK       I    between atoms: C_9  and  N_10 
REMARK    2  A    between atoms: N_10  and  C_11 
REMARK    3  A    between atoms: C_12  and  N_13 
REMARK    4  A    between atoms: C_16  and  O_17 
ROOT
HETATM    1  C   UNL     1      46.668 -28.261   0.807  1.00  0.00     0.256 C 
HETATM    2  N   UNL     1      45.719 -27.869  -0.113  1.00  0.00    -0.321 N 
HETATM    3  O   UNL     1      46.712 -27.712   1.907  1.00  0.00    -0.267 OA
HETATM    4  H   UNL     1      45.331 -26.946   0.038  1.00  0.00     0.169 HD
ENDROOT
BRANCH   2   5
HETATM    5  C   UNL     1      45.254 -28.551  -1.250  1.00  0.00     0.061 A 
HETATM    6  C   UNL     1      44.470 -29.727  -1.115  1.00  0.00     0.057 A 
HETATM    7  C   UNL     1      44.141 -30.378  -2.322  1.00  0.00     0.031 A 
HETATM    8  C   UNL     1      44.587 -29.927  -3.572  1.00  0.00     0.002 A 
HETATM    9  C   UNL     1      45.367 -28.784  -3.664  1.00  0.00     0.002 A 
HETATM   10  C   UNL     1      45.688 -28.088  -2.506  1.00  0.00     0.032 A 
BRANCH   6  11
HETATM   11  N   UNL     1      44.023 -30.223   0.108  1.00  0.00    -0.379 N 
HETATM   12  C   UNL     1      44.376 -31.569   0.571  1.00  0.00     0.125 C 
HETATM   13  C   UNL     1      44.855 -31.471   2.019  1.00  0.00     0.051 C 
HETATM   14  C   UNL     1      43.871 -30.723   2.921  1.00  0.00     0.121 C 
HETATM   15  C   UNL     1      43.351 -29.425   2.299  1.00  0.00     0.051 C 
HETATM   16  C   UNL     1      42.903 -29.633   0.853  1.00  0.00     0.125 C 
BRANCH  14  17
HETATM   17  O   UNL     1      42.783 -31.575   3.280  1.00  0.00    -0.395 OA
HETATM   18  H   UNL     1      43.126 -32.344   3.763  1.00  0.00     0.210 HD
ENDBRANCH  14  17
ENDBRANCH   6  11
ENDBRANCH   2   5
BRANCH   1  19
HETATM   19  C   UNL     1      47.755 -29.221   0.430  1.00  0.00     0.033 A 
HETATM   20  C   UNL     1      48.480 -29.090  -0.763  1.00  0.00     0.025 A 
HETATM   21  C   UNL     1      49.549 -29.943  -0.992  1.00  0.00    -0.042 A 
HETATM   22  C   UNL     1      49.943 -30.905  -0.045  1.00  0.00    -0.019 A 
HETATM   23  C   UNL     1      50.453 -29.983  -2.205  1.00  0.00     0.078 A 
HETATM   24  C   UNL     1      51.119 -31.587  -0.545  1.00  0.00    -0.019 A 
HETATM   25  C   UNL     1      49.245 -31.038   1.145  1.00  0.00     0.014 A 
HETATM   26  C   UNL     1      51.440 -31.062  -1.818  1.00  0.00    -0.043 A 
HETATM   27  C   UNL     1      51.908 -32.573   0.020  1.00  0.00     0.013 A 
HETATM   28  C   UNL     1      52.532 -31.513  -2.539  1.00  0.00     0.008 A 
HETATM   29  C   UNL     1      53.325 -32.509  -1.968  1.00  0.00     0.001 A 
HETATM   30  C   UNL     1      53.017 -33.032  -0.700  1.00  0.00     0.001 A 
HETATM   31  C   UNL     1      48.147 -30.192   1.377  1.00  0.00     0.018 A 
ENDBRANCH   1  19
TORSDOF 4
ENDMDL
MODEL 5
REMARK VINA RESULT:      -9.4      2.582      3.619
REMARK  4 active torsions:
REMARK  status: ('A' for Active; 'I' for Inactive)
REMARK    1  A    between atoms: C_8  and  C_9 
REMARK       I    between atoms: C_9  and  N_10 
REMARK    2  A    between atoms: N_10  and  C_11 
REMARK    3  A    between atoms: C_12  and  N_13 
REMARK    4  A    between atoms: C_16  and  O_17 
ROOT
HETATM    1  C   UNL     1      41.607 -11.950   6.170  1.00  0.00     0.256 C 
HETATM    2  N   UNL     1      42.315 -11.139   7.031  1.00  0.00    -0.321 N 
HETATM    3  O   UNL     1      40.430 -11.692   5.922  1.00  0.00    -0.267 OA
HETATM    4  H   UNL     1      41.749 -10.580   7.658  1.00  0.00     0.169 HD
ENDROOT
BRANCH   2   5
HETATM    5  C   UNL     1      43.706 -11.019   7.190  1.00  0.00     0.061 A 
HETATM    6  C   UNL     1      44.247 -10.257   8.259  1.00  0.00     0.057 A 
HETATM    7  C   UNL     1      45.651 -10.129   8.263  1.00  0.00     0.031 A 
HETATM    8  C   UNL     1      46.464 -10.678   7.262  1.00  0.00     0.002 A 
HETATM    9  C   UNL     1      45.899 -11.401   6.223  1.00  0.00     0.002 A 
HETATM   10  C   UNL     1      44.523 -11.584   6.194  1.00  0.00     0.032 A 
BRANCH   6  11
HETATM   11  N   UNL     1      43.474  -9.676   9.264  1.00  0.00    -0.379 N 
HETATM   12  C   UNL     1      43.263 -10.338  10.555  1.00  0.00     0.125 C 
HETATM   13  C   UNL     1      43.519  -9.321  11.666  1.00  0.00     0.051 C 
HETATM   14  C   UNL     1      42.731  -8.023  11.476  1.00  0.00     0.121 C 
HETATM   15  C   UNL     1      42.796  -7.482  10.046  1.00  0.00     0.051 C 
HETATM   16  C   UNL     1      42.530  -8.579   9.017  1.00  0.00     0.125 C 
BRANCH  14  17
HETATM   17  O   UNL     1      41.373  -8.205  11.880  1.00  0.00    -0.395 OA
HETATM   18  H   UNL     1      41.133  -7.509  12.513  1.00  0.00     0.210 HD
ENDBRANCH  14  17
ENDBRANCH   6  11
ENDBRANCH   2   5
BRANCH   1  19
HETATM   19  C   UNL     1      42.191 -13.234   5.666  1.00  0.00     0.033 A 
HETATM   20  C   UNL     1      42.416 -14.329   6.512  1.00  0.00     0.025 A 
HETATM   21  C   UNL     1      42.849 -15.524   5.957  1.00  0.00    -0.042 A 
HETATM   22  C   UNL     1      43.029 -15.673   4.570  1.00  0.00    -0.019 A 
HETATM   23  C   UNL     1      43.161 -16.816   6.680  1.00  0.00     0.078 A 
HETATM   24  C   UNL     1      43.418 -17.042   4.302  1.00  0.00    -0.019 A 
HETATM   25  C   UNL     1      42.797 -14.604   3.719  1.00  0.00     0.014 A 
HETATM   26  C   UNL     1      43.504 -17.737   5.530  1.00  0.00    -0.043 A 
HETATM   27  C   UNL     1      43.668 -17.699   3.110  1.00  0.00     0.013 A 
HETATM   28  C   UNL     1      43.844 -19.078   5.586  1.00  0.00     0.008 A 
HETATM   29  C   UNL     1      44.097 -19.739   4.384  1.00  0.00     0.001 A 
HETATM   30  C   UNL     1      44.007 -19.056   3.158  1.00  0.00     0.001 A 
HETATM   31  C   UNL     1      42.378 -13.382   4.275  1.00  0.00     0.018 A 
ENDBRANCH   1  19
TORSDOF 4
ENDMDL
MODEL 6
REMARK VINA RESULT:      -9.3      2.842      7.013
REMARK  4 active torsions:
REMARK  status: ('A' for Active; 'I' for Inactive)
REMARK    1  A    between atoms: C_8  and  C_9 
REMARK       I    between atoms: C_9  and  N_10 
REMARK    2  A    between atoms: N_10  and  C_11 
REMARK    3  A    between atoms: C_12  and  N_13 
REMARK    4  A    between atoms: C_16  and  O_17 
ROOT
HETATM    1  C   UNL     1      43.216 -12.111   3.523  1.00  0.00     0.256 C 
HETATM    2  N   UNL     1      43.095 -13.447   3.207  1.00  0.00    -0.321 N 
HETATM    3  O   UNL     1      43.489 -11.300   2.639  1.00  0.00    -0.267 OA
HETATM    4  H   UNL     1      43.553 -13.729   2.351  1.00  0.00     0.169 HD
ENDROOT
BRANCH   2   5
HETATM    5  C   UNL     1      42.468 -14.474   3.934  1.00  0.00     0.061 A 
HETATM    6  C   UNL     1      41.133 -14.856   3.636  1.00  0.00     0.057 A 
HETATM    7  C   UNL     1      40.577 -15.830   4.490  1.00  0.00     0.031 A 
HETATM    8  C   UNL     1      41.271 -16.362   5.587  1.00  0.00     0.002 A 
HETATM    9  C   UNL     1      42.567 -15.951   5.858  1.00  0.00     0.002 A 
HETATM   10  C   UNL     1      43.171 -15.020   5.024  1.00  0.00     0.032 A 
BRANCH   6  11
HETATM   11  N   UNL     1      40.400 -14.339   2.570  1.00  0.00    -0.379 N 
HETATM   12  C   UNL     1      39.550 -13.153   2.721  1.00  0.00     0.125 C 
HETATM   13  C   UNL     1      39.846 -12.198   1.565  1.00  0.00     0.051 C 
HETATM   14  C   UNL     1      39.759 -12.876   0.196  1.00  0.00     0.121 C 
HETATM   15  C   UNL     1      40.475 -14.228   0.147  1.00  0.00     0.051 C 
HETATM   16  C   UNL     1      40.113 -15.101   1.348  1.00  0.00     0.125 C 
BRANCH  14  17
HETATM   17  O   UNL     1      38.395 -13.020  -0.199  1.00  0.00    -0.395 OA
HETATM   18  H   UNL     1      37.953 -12.157  -0.141  1.00  0.00     0.210 HD
ENDBRANCH  14  17
ENDBRANCH   6  11
ENDBRANCH   2   5
BRANCH   1  19
HETATM   19  C   UNL     1      43.189 -11.650   4.948  1.00  0.00     0.033 A 
HETATM   20  C   UNL     1      44.354 -11.579   5.726  1.00  0.00     0.025 A 
HETATM   21  C   UNL     1      44.275 -11.033   6.998  1.00  0.00    -0.042 A 
HETATM   22  C   UNL     1      43.069 -10.517   7.508  1.00  0.00    -0.019 A 
HETATM   23  C   UNL     1      45.395 -10.870   8.003  1.00  0.00     0.078 A 
HETATM   24  C   UNL     1      43.326  -9.964   8.822  1.00  0.00    -0.019 A 
HETATM   25  C   UNL     1      41.913 -10.567   6.746  1.00  0.00     0.014 A 
HETATM   26  C   UNL     1      44.691 -10.161   9.138  1.00  0.00    -0.043 A 
HETATM   27  C   UNL     1      42.493  -9.308   9.711  1.00  0.00     0.013 A 
HETATM   28  C   UNL     1      45.233  -9.720  10.332  1.00  0.00     0.008 A 
HETATM   29  C   UNL     1      44.391  -9.060  11.228  1.00  0.00     0.001 A 
HETATM   30  C   UNL     1      43.035  -8.855  10.919  1.00  0.00     0.001 A 
HETATM   31  C   UNL     1      41.979 -11.138   5.463  1.00  0.00     0.018 A 
ENDBRANCH   1  19
TORSDOF 4
ENDMDL
MODEL 7
REMARK VINA RESULT:      -9.0      2.419      6.601
REMARK  4 active torsions:
REMARK  status: ('A' for Active; 'I' for Inactive)
REMARK    1  A    between atoms: C_8  and  C_9 
REMARK       I    between atoms: C_9  and  N_10 
REMARK    2  A    between atoms: N_10  and  C_11 
REMARK    3  A    between atoms: C_12  and  N_13 
REMARK    4  A    between atoms: C_16  and  O_17 
ROOT
HETATM    1  C   UNL     1      40.559 -14.699   5.672  1.00  0.00     0.256 C 
HETATM    2  N   UNL     1      40.499 -15.270   4.419  1.00  0.00    -0.321 N 
HETATM    3  O   UNL     1      39.649 -14.899   6.476  1.00  0.00    -0.267 OA
HETATM    4  H   UNL     1      39.574 -15.545   4.116  1.00  0.00     0.169 HD
ENDROOT
BRANCH   2   5
HETATM    5  C   UNL     1      41.534 -15.477   3.491  1.00  0.00     0.061 A 
HETATM    6  C   UNL     1      41.797 -14.517   2.478  1.00  0.00     0.057 A 
HETATM    7  C   UNL     1      42.794 -14.874   1.548  1.00  0.00     0.031 A 
HETATM    8  C   UNL     1      43.459 -16.108   1.587  1.00  0.00     0.002 A 
HETATM    9  C   UNL     1      43.163 -17.029   2.580  1.00  0.00     0.002 A 
HETATM   10  C   UNL     1      42.213 -16.708   3.540  1.00  0.00     0.032 A 
BRANCH   6  11
HETATM   11  N   UNL     1      41.146 -13.287   2.390  1.00  0.00    -0.379 N 
HETATM   12  C   UNL     1      39.710 -13.193   2.107  1.00  0.00     0.125 C 
HETATM   13  C   UNL     1      39.084 -12.225   3.110  1.00  0.00     0.051 C 
HETATM   14  C   UNL     1      39.813 -10.881   3.173  1.00  0.00     0.121 C 
HETATM   15  C   UNL     1      41.335 -11.023   3.242  1.00  0.00     0.051 C 
HETATM   16  C   UNL     1      41.855 -12.016   2.202  1.00  0.00     0.125 C 
BRANCH  14  17
HETATM   17  O   UNL     1      39.438 -10.062   2.064  1.00  0.00    -0.395 OA
HETATM   18  H   UNL     1      39.838  -9.183   2.167  1.00  0.00     0.210 HD
ENDBRANCH  14  17
ENDBRANCH   6  11
ENDBRANCH   2   5
BRANCH   1  19
HETATM   19  C   UNL     1      41.625 -13.703   6.016  1.00  0.00     0.033 A 
HETATM   20  C   UNL     1      41.317 -12.384   6.379  1.00  0.00     0.025 A 
HETATM   21  C   UNL     1      42.343 -11.550   6.798  1.00  0.00    -0.042 A 
HETATM   22  C   UNL     1      43.670 -12.005   6.901  1.00  0.00    -0.019 A 
HETATM   23  C   UNL     1      42.238 -10.102   7.222  1.00  0.00     0.078 A 
HETATM   24  C   UNL     1      44.485 -10.927   7.422  1.00  0.00    -0.019 A 
HETATM   25  C   UNL     1      43.988 -13.309   6.558  1.00  0.00     0.014 A 
HETATM   26  C   UNL     1      43.664  -9.793   7.620  1.00  0.00    -0.043 A 
HETATM   27  C   UNL     1      45.830 -10.879   7.746  1.00  0.00     0.013 A 
HETATM   28  C   UNL     1      44.168  -8.608   8.126  1.00  0.00     0.008 A 
HETATM   29  C   UNL     1      45.525  -8.560   8.450  1.00  0.00     0.001 A 
HETATM   30  C   UNL     1      46.347  -9.686   8.264  1.00  0.00     0.001 A 
HETATM   31  C   UNL     1      42.958 -14.156   6.113  1.00  0.00     0.018 A 
ENDBRANCH   1  19
TORSDOF 4
ENDMDL
MODEL 8
REMARK VINA RESULT:      -8.5      3.038      4.540
REMARK  4 active torsions:
REMARK  status: ('A' for Active; 'I' for Inactive)
REMARK    1  A    between atoms: C_8  and  C_9 
REMARK       I    between atoms: C_9  and  N_10 
REMARK    2  A    between atoms: N_10  and  C_11 
REMARK    3  A    between atoms: C_12  and  N_13 
REMARK    4  A    between atoms: C_16  and  O_17 
ROOT
HETATM    1  C   UNL     1      41.390 -10.499   6.486  1.00  0.00     0.256 C 
HETATM    2  N   UNL     1      42.056 -10.110   7.628  1.00  0.00    -0.321 N 
HETATM    3  O   UNL     1      40.286 -10.020   6.232  1.00  0.00    -0.267 OA
HETATM    4  H   UNL     1      41.471  -9.710   8.351  1.00  0.00     0.169 HD
ENDROOT
BRANCH   2   5
HETATM    5  C   UNL     1      43.420 -10.235   7.943  1.00  0.00     0.061 A 
HETATM    6  C   UNL     1      43.924  -9.741   9.174  1.00  0.00     0.057 A 
HETATM    7  C   UNL     1      45.321  -9.837   9.340  1.00  0.00     0.031 A 
HETATM    8  C   UNL     1      46.168 -10.347   8.346  1.00  0.00     0.002 A 
HETATM    9  C   UNL     1      45.642 -10.804   7.148  1.00  0.00     0.002 A 
HETATM   10  C   UNL     1      44.268 -10.763   6.951  1.00  0.00     0.032 A 
BRANCH   6  11
HETATM   11  N   UNL     1      43.121  -9.207  10.181  1.00  0.00    -0.379 N 
HETATM   12  C   UNL     1      42.553 -10.046  11.241  1.00  0.00     0.125 C 
HETATM   13  C   UNL     1      42.811  -9.365  12.585  1.00  0.00     0.051 C 
HETATM   14  C   UNL     1      42.351  -7.905  12.609  1.00  0.00     0.121 C 
HETATM   15  C   UNL     1      42.778  -7.119  11.367  1.00  0.00     0.051 C 
HETATM   16  C   UNL     1      42.480  -7.890  10.082  1.00  0.00     0.125 C 
BRANCH  14  17
HETATM   17  O   UNL     1      40.936  -7.835  12.782  1.00  0.00    -0.395 OA
HETATM   18  H   UNL     1      40.502  -7.973  11.924  1.00  0.00     0.210 HD
ENDBRANCH  14  17
ENDBRANCH   6  11
ENDBRANCH   2   5
BRANCH   1  19
HETATM   19  C   UNL     1      41.906 -11.621   5.637  1.00  0.00     0.033 A 
HETATM   20  C   UNL     1      41.906 -12.950   6.084  1.00  0.00     0.025 A 
HETATM   21  C   UNL     1      42.288 -13.951   5.203  1.00  0.00    -0.042 A 
HETATM   22  C   UNL     1      42.639 -13.669   3.870  1.00  0.00    -0.019 A 
HETATM   23  C   UNL     1      42.370 -15.437   5.476  1.00  0.00     0.078 A 
HETATM   24  C   UNL     1      42.923 -14.919   3.196  1.00  0.00    -0.019 A 
HETATM   25  C   UNL     1      42.631 -12.362   3.410  1.00  0.00     0.014 A 
HETATM   26  C   UNL     1      42.772 -15.977   4.122  1.00  0.00    -0.043 A 
HETATM   27  C   UNL     1      43.265 -15.186   1.882  1.00  0.00     0.013 A 
HETATM   28  C   UNL     1      42.967 -17.298   3.757  1.00  0.00     0.008 A 
HETATM   29  C   UNL     1      43.314 -17.565   2.432  1.00  0.00     0.001 A 
HETATM   30  C   UNL     1      43.459 -16.519   1.503  1.00  0.00     0.001 A 
HETATM   31  C   UNL     1      42.264 -11.338   4.301  1.00  0.00     0.018 A 
ENDBRANCH   1  19
TORSDOF 4
ENDMDL
MODEL 9
REMARK VINA RESULT:      -8.4      3.220      5.577
REMARK  4 active torsions:
REMARK  status: ('A' for Active; 'I' for Inactive)
REMARK    1  A    between atoms: C_8  and  C_9 
REMARK       I    between atoms: C_9  and  N_10 
REMARK    2  A    between atoms: N_10  and  C_11 
REMARK    3  A    between atoms: C_12  and  N_13 
REMARK    4  A    between atoms: C_16  and  O_17 
ROOT
HETATM    1  C   UNL     1      42.898 -12.064   3.444  1.00  0.00     0.256 C 
HETATM    2  N   UNL     1      42.724 -12.415   4.766  1.00  0.00    -0.321 N 
HETATM    3  O   UNL     1      43.722 -11.200   3.148  1.00  0.00    -0.267 OA
HETATM    4  H   UNL     1      43.037 -11.725   5.437  1.00  0.00     0.169 HD
ENDROOT
BRANCH   2   5
HETATM    5  C   UNL     1      42.131 -13.569   5.304  1.00  0.00     0.061 A 
HETATM    6  C   UNL     1      40.788 -13.541   5.767  1.00  0.00     0.057 A 
HETATM    7  C   UNL     1      40.331 -14.730   6.372  1.00  0.00     0.031 A 
HETATM    8  C   UNL     1      41.150 -15.854   6.547  1.00  0.00     0.002 A 
HETATM    9  C   UNL     1      42.462 -15.839   6.099  1.00  0.00     0.002 A 
HETATM   10  C   UNL     1      42.948 -14.704   5.464  1.00  0.00     0.032 A 
BRANCH   6  11
HETATM   11  N   UNL     1      39.946 -12.439   5.633  1.00  0.00    -0.379 N 
HETATM   12  C   UNL     1      39.680 -11.530   6.752  1.00  0.00     0.125 C 
HETATM   13  C   UNL     1      39.847 -10.094   6.258  1.00  0.00     0.051 C 
HETATM   14  C   UNL     1      39.038  -9.803   4.992  1.00  0.00     0.121 C 
HETATM   15  C   UNL     1      39.168 -10.896   3.929  1.00  0.00     0.051 C 
HETATM   16  C   UNL     1      38.989 -12.290   4.529  1.00  0.00     0.125 C 
BRANCH  14  17
HETATM   17  O   UNL     1      37.665  -9.589   5.321  1.00  0.00    -0.395 OA
HETATM   18  H   UNL     1      37.152  -9.492   4.503  1.00  0.00     0.210 HD
ENDBRANCH  14  17
ENDBRANCH   6  11
ENDBRANCH   2   5
BRANCH   1  19
HETATM   19  C   UNL     1      41.983 -12.591   2.380  1.00  0.00     0.033 A 
HETATM   20  C   UNL     1      41.328 -11.740   1.479  1.00  0.00     0.025 A 
HETATM   21  C   UNL     1      40.590 -12.301   0.447  1.00  0.00    -0.042 A 
HETATM   22  C   UNL     1      40.516 -13.694   0.264  1.00  0.00    -0.019 A 
HETATM   23  C   UNL     1      39.801 -11.577  -0.622  1.00  0.00     0.078 A 
HETATM   24  C   UNL     1      39.732 -13.959  -0.925  1.00  0.00    -0.019 A 
HETATM   25  C   UNL     1      41.169 -14.547   1.138  1.00  0.00     0.014 A 
HETATM   26  C   UNL     1      39.298 -12.726  -1.466  1.00  0.00    -0.043 A 
HETATM   27  C   UNL     1      39.407 -15.148  -1.553  1.00  0.00     0.013 A 
HETATM   28  C   UNL     1      38.536 -12.664  -2.620  1.00  0.00     0.008 A 
HETATM   29  C   UNL     1      38.208 -13.865  -3.251  1.00  0.00     0.001 A 
HETATM   30  C   UNL     1      38.641 -15.094  -2.724  1.00  0.00     0.001 A 
HETATM   31  C   UNL     1      41.903 -13.988   2.199  1.00  0.00     0.018 A 
ENDBRANCH   1  19
TORSDOF 4
ENDMDL
MODEL 10
REMARK VINA RESULT:      -8.3      3.343      6.293
REMARK  4 active torsions:
REMARK  status: ('A' for Active; 'I' for Inactive)
REMARK    1  A    between atoms: C_8  and  C_9 
REMARK       I    between atoms: C_9  and  N_10 
REMARK    2  A    between atoms: N_10  and  C_11 
REMARK    3  A    between atoms: C_12  and  N_13 
REMARK    4  A    between atoms: C_16  and  O_17 
ROOT
HETATM    1  C   UNL     1      43.324 -11.602   3.543  1.00  0.00     0.256 C 
HETATM    2  N   UNL     1      42.754 -11.285   4.758  1.00  0.00    -0.321 N 
HETATM    3  O   UNL     1      44.548 -11.583   3.424  1.00  0.00    -0.267 OA
HETATM    4  H   UNL     1      43.341 -10.744   5.379  1.00  0.00     0.169 HD
ENDROOT
BRANCH   2   5
HETATM    5  C   UNL     1      41.459 -11.566   5.227  1.00  0.00     0.061 A 
HETATM    6  C   UNL     1      41.141 -12.854   5.735  1.00  0.00     0.057 A 
HETATM    7  C   UNL     1      39.790 -13.048   6.088  1.00  0.00     0.031 A 
HETATM    8  C   UNL     1      38.812 -12.059   5.916  1.00  0.00     0.002 A 
HETATM    9  C   UNL     1      39.156 -10.819   5.401  1.00  0.00     0.002 A 
HETATM   10  C   UNL     1      40.481 -10.567   5.071  1.00  0.00     0.032 A 
BRANCH   6  11
HETATM   11  N   UNL     1      42.077 -13.873   5.902  1.00  0.00    -0.379 N 
HETATM   12  C   UNL     1      43.110 -13.808   6.940  1.00  0.00     0.125 C 
HETATM   13  C   UNL     1      43.134 -15.145   7.680  1.00  0.00     0.051 C 
HETATM   14  C   UNL     1      43.250 -16.345   6.737  1.00  0.00     0.121 C 
HETATM   15  C   UNL     1      42.303 -16.261   5.537  1.00  0.00     0.051 C 
HETATM   16  C   UNL     1      42.354 -14.885   4.875  1.00  0.00     0.125 C 
BRANCH  14  17
HETATM   17  O   UNL     1      44.599 -16.500   6.297  1.00  0.00    -0.395 OA
HETATM   18  H   UNL     1      45.143 -16.808   7.040  1.00  0.00     0.210 HD
ENDBRANCH  14  17
ENDBRANCH   6  11
ENDBRANCH   2   5
BRANCH   1  19
HETATM   19  C   UNL     1      42.478 -11.801   2.323  1.00  0.00     0.033 A 
HETATM   20  C   UNL     1      42.121 -13.079   1.870  1.00  0.00     0.025 A 
HETATM   21  C   UNL     1      41.240 -13.188   0.804  1.00  0.00    -0.042 A 
HETATM   22  C   UNL     1      40.671 -12.054   0.196  1.00  0.00    -0.019 A 
HETATM   23  C   UNL     1      40.733 -14.456   0.153  1.00  0.00     0.078 A 
HETATM   24  C   UNL     1      39.753 -12.497  -0.832  1.00  0.00    -0.019 A 
HETATM   25  C   UNL     1      41.004 -10.785   0.642  1.00  0.00     0.014 A 
HETATM   26  C   UNL     1      39.771 -13.910  -0.878  1.00  0.00    -0.043 A 
HETATM   27  C   UNL     1      38.920 -11.783  -1.676  1.00  0.00     0.013 A 
HETATM   28  C   UNL     1      38.977 -14.621  -1.762  1.00  0.00     0.008 A 
HETATM   29  C   UNL     1      38.139 -13.899  -2.613  1.00  0.00     0.001 A 
HETATM   30  C   UNL     1      38.110 -12.494  -2.569  1.00  0.00     0.001 A 
HETATM   31  C   UNL     1      41.912 -10.664   1.708  1.00  0.00     0.018 A 
ENDBRANCH   1  19
TORSDOF 4
ENDMDL
