MODEL 1
REMARK VINA RESULT:      -8.8      0.000      0.000
REMARK  5 active torsions:
REMARK  status: ('A' for Active; 'I' for Inactive)
REMARK    1  A    between atoms: C_6  and  O_7 
REMARK    2  A    between atoms: O_7  and  C_8 
REMARK    3  A    between atoms: C_12  and  C_13 
REMARK       I    between atoms: C_13  and  N_14 
REMARK    4  A    between atoms: N_14  and  C_15 
REMARK    5  A    between atoms: C_15  and  C_16 
ROOT
HETATM    1  C   UNL     1      43.920 -20.846   4.182  1.00  0.00     0.002 A 
HETATM    2  C   UNL     1      43.893 -20.038   5.320  1.00  0.00     0.025 A 
HETATM    3  C   UNL     1      43.761 -18.649   5.195  1.00  0.00     0.078 A 
HETATM    4  C   UNL     1      43.744 -17.841   6.381  1.00  0.00     0.102 C 
HETATM    5  N   UNL     1      43.742 -17.211   7.356  1.00  0.00    -0.191 NA
HETATM    6  C   UNL     1      43.649 -18.069   3.922  1.00  0.00     0.096 A 
HETATM    7  C   UNL     1      43.701 -18.885   2.783  1.00  0.00     0.039 A 
HETATM    8  C   UNL     1      43.828 -20.269   2.917  1.00  0.00     0.003 A 
ENDROOT
BRANCH   6   9
HETATM    9  O   UNL     1      43.538 -16.693   3.868  1.00  0.00    -0.308 OA
BRANCH   9  10
HETATM   10  C   UNL     1      42.571 -16.143   3.062  1.00  0.00     0.098 A 
HETATM   11  C   UNL     1      41.243 -15.956   3.471  1.00  0.00     0.068 A 
HETATM   12 CL   UNL     1      40.687 -16.441   5.032  1.00  0.00    -0.081 Cl
HETATM   13  C   UNL     1      40.331 -15.326   2.619  1.00  0.00     0.044 A 
HETATM   14  C   UNL     1      40.753 -14.861   1.367  1.00  0.00     0.033 A 
HETATM   15  C   UNL     1      42.091 -15.013   0.979  1.00  0.00     0.020 A 
HETATM   16  C   UNL     1      42.997 -15.653   1.825  1.00  0.00     0.040 A 
BRANCH  14  17
HETATM   17  C   UNL     1      39.830 -14.135   0.459  1.00  0.00     0.251 C 
HETATM   18  N   UNL     1      39.565 -14.741  -0.749  1.00  0.00    -0.353 N 
HETATM   19  H   UNL     1      40.137 -15.517  -1.052  1.00  0.00     0.163 HD
HETATM   20  O   UNL     1      39.373 -13.050   0.797  1.00  0.00    -0.268 OA
BRANCH  18  21
HETATM   21  C   UNL     1      38.728 -14.104  -1.742  1.00  0.00     0.161 C 
BRANCH  21  22
HETATM   22  C   UNL     1      39.385 -12.880  -2.319  1.00  0.00    -0.038 A 
HETATM   23  C   UNL     1      40.695 -12.920  -2.804  1.00  0.00     0.028 A 
HETATM   24  C   UNL     1      41.247 -11.756  -3.318  1.00  0.00     0.116 A 
HETATM   25  N   UNL     1      40.598 -10.575  -3.374  1.00  0.00    -0.273 NA
HETATM   26  C   UNL     1      39.337 -10.554  -2.895  1.00  0.00     0.116 A 
HETATM   27  C   UNL     1      38.697 -11.663  -2.365  1.00  0.00     0.028 A 
ENDBRANCH  21  22
ENDBRANCH  18  21
ENDBRANCH  14  17
ENDBRANCH   9  10
ENDBRANCH   6   9
TORSDOF 5
ENDMDL
MODEL 2
REMARK VINA RESULT:      -8.5      6.010      8.544
REMARK  5 active torsions:
REMARK  status: ('A' for Active; 'I' for Inactive)
REMARK    1  A    between atoms: C_6  and  O_7 
REMARK    2  A    between atoms: O_7  and  C_8 
REMARK    3  A    between atoms: C_12  and  C_13 
REMARK       I    between atoms: C_13  and  N_14 
REMARK    4  A    between atoms: N_14  and  C_15 
REMARK    5  A    between atoms: C_15  and  C_16 
ROOT
HETATM    1  C   UNL     1      43.770 -18.638   2.520  1.00  0.00     0.002 A 
HETATM    2  C   UNL     1      42.722 -17.887   1.985  1.00  0.00     0.025 A 
HETATM    3  C   UNL     1      42.064 -16.934   2.774  1.00  0.00     0.078 A 
HETATM    4  C   UNL     1      40.985 -16.181   2.202  1.00  0.00     0.102 C 
HETATM    5  N   UNL     1      40.110 -15.593   1.716  1.00  0.00    -0.191 NA
HETATM    6  C   UNL     1      42.465 -16.729   4.103  1.00  0.00     0.096 A 
HETATM    7  C   UNL     1      43.502 -17.504   4.640  1.00  0.00     0.039 A 
HETATM    8  C   UNL     1      44.155 -18.449   3.845  1.00  0.00     0.003 A 
ENDROOT
BRANCH   6   9
HETATM    9  O   UNL     1      41.764 -15.787   4.831  1.00  0.00    -0.308 OA
BRANCH   9  10
HETATM   10  C   UNL     1      42.447 -14.707   5.337  1.00  0.00     0.098 A 
HETATM   11  C   UNL     1      42.910 -14.639   6.659  1.00  0.00     0.068 A 
HETATM   12 CL   UNL     1      42.628 -15.908   7.795  1.00  0.00    -0.081 Cl
HETATM   13  C   UNL     1      43.657 -13.536   7.083  1.00  0.00     0.044 A 
HETATM   14  C   UNL     1      43.962 -12.513   6.177  1.00  0.00     0.033 A 
HETATM   15  C   UNL     1      43.533 -12.603   4.846  1.00  0.00     0.020 A 
HETATM   16  C   UNL     1      42.776 -13.698   4.428  1.00  0.00     0.040 A 
BRANCH  14  17
HETATM   17  C   UNL     1      44.803 -11.354   6.572  1.00  0.00     0.251 C 
HETATM   18  N   UNL     1      44.684 -10.935   7.879  1.00  0.00    -0.353 N 
HETATM   19  H   UNL     1      43.919 -11.277   8.443  1.00  0.00     0.163 HD
HETATM   20  O   UNL     1      45.527 -10.818   5.743  1.00  0.00    -0.268 OA
BRANCH  18  21
HETATM   21  C   UNL     1      45.407  -9.781   8.367  1.00  0.00     0.161 C 
BRANCH  21  22
HETATM   22  C   UNL     1      44.569  -8.960   9.309  1.00  0.00    -0.038 A 
HETATM   23  C   UNL     1      43.984  -7.759   8.899  1.00  0.00     0.028 A 
HETATM   24  C   UNL     1      43.226  -7.044   9.816  1.00  0.00     0.116 A 
HETATM   25  N   UNL     1      43.022  -7.434  11.091  1.00  0.00    -0.273 NA
HETATM   26  C   UNL     1      43.600  -8.593  11.470  1.00  0.00     0.116 A 
HETATM   27  C   UNL     1      44.372  -9.378  10.629  1.00  0.00     0.028 A 
ENDBRANCH  21  22
ENDBRANCH  18  21
ENDBRANCH  14  17
ENDBRANCH   9  10
ENDBRANCH   6   9
TORSDOF 5
ENDMDL
MODEL 3
REMARK VINA RESULT:      -8.5      1.101      1.296
REMARK  5 active torsions:
REMARK  status: ('A' for Active; 'I' for Inactive)
REMARK    1  A    between atoms: C_6  and  O_7 
REMARK    2  A    between atoms: O_7  and  C_8 
REMARK    3  A    between atoms: C_12  and  C_13 
REMARK       I    between atoms: C_13  and  N_14 
REMARK    4  A    between atoms: N_14  and  C_15 
REMARK    5  A    between atoms: C_15  and  C_16 
ROOT
HETATM    1  C   UNL     1      43.941 -20.946   4.118  1.00  0.00     0.002 A 
HETATM    2  C   UNL     1      43.905 -20.140   5.257  1.00  0.00     0.025 A 
HETATM    3  C   UNL     1      43.760 -18.751   5.133  1.00  0.00     0.078 A 
HETATM    4  C   UNL     1      43.734 -17.945   6.320  1.00  0.00     0.102 C 
HETATM    5  N   UNL     1      43.725 -17.317   7.296  1.00  0.00    -0.191 NA
HETATM    6  C   UNL     1      43.643 -18.171   3.861  1.00  0.00     0.096 A 
HETATM    7  C   UNL     1      43.704 -18.985   2.721  1.00  0.00     0.039 A 
HETATM    8  C   UNL     1      43.845 -20.368   2.854  1.00  0.00     0.003 A 
ENDROOT
BRANCH   6   9
HETATM    9  O   UNL     1      43.520 -16.796   3.808  1.00  0.00    -0.308 OA
BRANCH   9  10
HETATM   10  C   UNL     1      42.569 -16.253   2.978  1.00  0.00     0.098 A 
HETATM   11  C   UNL     1      41.240 -16.035   3.367  1.00  0.00     0.068 A 
HETATM   12 CL   UNL     1      40.661 -16.470   4.935  1.00  0.00    -0.081 Cl
HETATM   13  C   UNL     1      40.346 -15.416   2.489  1.00  0.00     0.044 A 
HETATM   14  C   UNL     1      40.789 -14.990   1.230  1.00  0.00     0.033 A 
HETATM   15  C   UNL     1      42.127 -15.173   0.860  1.00  0.00     0.020 A 
HETATM   16  C   UNL     1      43.015 -15.804   1.732  1.00  0.00     0.040 A 
BRANCH  14  17
HETATM   17  C   UNL     1      39.886 -14.275   0.293  1.00  0.00     0.251 C 
HETATM   18  N   UNL     1      39.475 -13.020   0.683  1.00  0.00    -0.353 N 
HETATM   19  H   UNL     1      39.624 -12.722   1.637  1.00  0.00     0.163 HD
HETATM   20  O   UNL     1      39.534 -14.821  -0.746  1.00  0.00    -0.268 OA
BRANCH  18  21
HETATM   21  C   UNL     1      38.549 -12.249  -0.117  1.00  0.00     0.161 C 
BRANCH  21  22
HETATM   22  C   UNL     1      39.267 -11.394  -1.126  1.00  0.00    -0.038 A 
HETATM   23  C   UNL     1      38.805 -11.279  -2.439  1.00  0.00     0.028 A 
HETATM   24  C   UNL     1      39.513 -10.479  -3.324  1.00  0.00     0.116 A 
HETATM   25  N   UNL     1      40.635  -9.805  -2.996  1.00  0.00    -0.273 NA
HETATM   26  C   UNL     1      41.069  -9.933  -1.725  1.00  0.00     0.116 A 
HETATM   27  C   UNL     1      40.430 -10.706  -0.769  1.00  0.00     0.028 A 
ENDBRANCH  21  22
ENDBRANCH  18  21
ENDBRANCH  14  17
ENDBRANCH   9  10
ENDBRANCH   6   9
TORSDOF 5
ENDMDL
MODEL 4
REMARK VINA RESULT:      -8.2      6.404      9.474
REMARK  5 active torsions:
REMARK  status: ('A' for Active; 'I' for Inactive)
REMARK    1  A    between atoms: C_6  and  O_7 
REMARK    2  A    between atoms: O_7  and  C_8 
REMARK    3  A    between atoms: C_12  and  C_13 
REMARK       I    between atoms: C_13  and  N_14 
REMARK    4  A    between atoms: N_14  and  C_15 
REMARK    5  A    between atoms: C_15  and  C_16 
ROOT
HETATM    1  C   UNL     1      43.141 -17.149   1.971  1.00  0.00     0.002 A 
HETATM    2  C   UNL     1      42.233 -17.273   3.024  1.00  0.00     0.025 A 
HETATM    3  C   UNL     1      41.764 -16.131   3.688  1.00  0.00     0.078 A 
HETATM    4  C   UNL     1      40.838 -16.287   4.772  1.00  0.00     0.102 C 
HETATM    5  N   UNL     1      40.095 -16.443   5.650  1.00  0.00    -0.191 NA
HETATM    6  C   UNL     1      42.204 -14.860   3.288  1.00  0.00     0.096 A 
HETATM    7  C   UNL     1      43.134 -14.746   2.245  1.00  0.00     0.039 A 
HETATM    8  C   UNL     1      43.593 -15.889   1.587  1.00  0.00     0.003 A 
ENDROOT
BRANCH   6   9
HETATM    9  O   UNL     1      41.717 -13.777   3.994  1.00  0.00    -0.308 OA
BRANCH   9  10
HETATM   10  C   UNL     1      42.568 -13.106   4.838  1.00  0.00     0.098 A 
HETATM   11  C   UNL     1      43.097 -11.840   4.553  1.00  0.00     0.068 A 
HETATM   12 CL   UNL     1      42.752 -11.014   3.076  1.00  0.00    -0.081 Cl
HETATM   13  C   UNL     1      43.903 -11.190   5.492  1.00  0.00     0.044 A 
HETATM   14  C   UNL     1      44.158 -11.796   6.729  1.00  0.00     0.033 A 
HETATM   15  C   UNL     1      43.594 -13.044   7.027  1.00  0.00     0.020 A 
HETATM   16  C   UNL     1      42.801 -13.697   6.083  1.00  0.00     0.040 A 
BRANCH  14  17
HETATM   17  C   UNL     1      44.960 -11.113   7.775  1.00  0.00     0.251 C 
HETATM   18  N   UNL     1      44.284 -10.753   8.920  1.00  0.00    -0.353 N 
HETATM   19  H   UNL     1      43.273 -10.776   8.929  1.00  0.00     0.163 HD
HETATM   20  O   UNL     1      46.146 -10.882   7.578  1.00  0.00    -0.268 OA
BRANCH  18  21
HETATM   21  C   UNL     1      44.942 -10.030   9.986  1.00  0.00     0.161 C 
BRANCH  21  22
HETATM   22  C   UNL     1      43.969  -9.609  11.053  1.00  0.00    -0.038 A 
HETATM   23  C   UNL     1      43.617  -8.268  11.226  1.00  0.00     0.028 A 
HETATM   24  C   UNL     1      42.719  -7.942  12.231  1.00  0.00     0.116 A 
HETATM   25  N   UNL     1      42.162  -8.844  13.066  1.00  0.00    -0.273 NA
HETATM   26  C   UNL     1      42.519 -10.133  12.888  1.00  0.00     0.116 A 
HETATM   27  C   UNL     1      43.406 -10.558  11.912  1.00  0.00     0.028 A 
ENDBRANCH  21  22
ENDBRANCH  18  21
ENDBRANCH  14  17
ENDBRANCH   9  10
ENDBRANCH   6   9
TORSDOF 5
ENDMDL
MODEL 5
REMARK VINA RESULT:      -8.1      1.786      2.339
REMARK  5 active torsions:
REMARK  status: ('A' for Active; 'I' for Inactive)
REMARK    1  A    between atoms: C_6  and  O_7 
REMARK    2  A    between atoms: O_7  and  C_8 
REMARK    3  A    between atoms: C_12  and  C_13 
REMARK       I    between atoms: C_13  and  N_14 
REMARK    4  A    between atoms: N_14  and  C_15 
REMARK    5  A    between atoms: C_15  and  C_16 
ROOT
HETATM    1  C   UNL     1      44.392 -18.858   4.041  1.00  0.00     0.002 A 
HETATM    2  C   UNL     1      43.981 -18.217   5.211  1.00  0.00     0.025 A 
HETATM    3  C   UNL     1      43.003 -17.216   5.160  1.00  0.00     0.078 A 
HETATM    4  C   UNL     1      42.605 -16.568   6.377  1.00  0.00     0.102 C 
HETATM    5  N   UNL     1      42.309 -16.054   7.375  1.00  0.00    -0.191 NA
HETATM    6  C   UNL     1      42.428 -16.861   3.930  1.00  0.00     0.096 A 
HETATM    7  C   UNL     1      42.863 -17.493   2.756  1.00  0.00     0.039 A 
HETATM    8  C   UNL     1      43.836 -18.492   2.817  1.00  0.00     0.003 A 
ENDROOT
BRANCH   6   9
HETATM    9  O   UNL     1      41.482 -15.855   3.947  1.00  0.00    -0.308 OA
BRANCH   9  10
HETATM   10  C   UNL     1      41.157 -15.239   2.763  1.00  0.00     0.098 A 
HETATM   11  C   UNL     1      41.828 -14.110   2.272  1.00  0.00     0.068 A 
HETATM   12 CL   UNL     1      43.118 -13.360   3.143  1.00  0.00    -0.081 Cl
HETATM   13  C   UNL     1      41.486 -13.578   1.026  1.00  0.00     0.044 A 
HETATM   14  C   UNL     1      40.488 -14.191   0.258  1.00  0.00     0.033 A 
HETATM   15  C   UNL     1      39.847 -15.343   0.732  1.00  0.00     0.020 A 
HETATM   16  C   UNL     1      40.182 -15.865   1.983  1.00  0.00     0.040 A 
BRANCH  14  17
HETATM   17  C   UNL     1      40.136 -13.693  -1.096  1.00  0.00     0.251 C 
HETATM   18  N   UNL     1      41.082 -12.910  -1.720  1.00  0.00    -0.353 N 
HETATM   19  H   UNL     1      41.859 -12.546  -1.185  1.00  0.00     0.163 HD
HETATM   20  O   UNL     1      39.045 -13.968  -1.580  1.00  0.00    -0.268 OA
BRANCH  18  21
HETATM   21  C   UNL     1      40.832 -12.318  -3.016  1.00  0.00     0.161 C 
BRANCH  21  22
HETATM   22  C   UNL     1      40.355 -10.896  -2.893  1.00  0.00    -0.038 A 
HETATM   23  C   UNL     1      41.163  -9.907  -2.327  1.00  0.00     0.028 A 
HETATM   24  C   UNL     1      40.665  -8.615  -2.236  1.00  0.00     0.116 A 
HETATM   25  N   UNL     1      39.436  -8.251  -2.656  1.00  0.00    -0.273 NA
HETATM   26  C   UNL     1      38.668  -9.221  -3.194  1.00  0.00     0.116 A 
HETATM   27  C   UNL     1      39.076 -10.538  -3.330  1.00  0.00     0.028 A 
ENDBRANCH  21  22
ENDBRANCH  18  21
ENDBRANCH  14  17
ENDBRANCH   9  10
ENDBRANCH   6   9
TORSDOF 5
ENDMDL
MODEL 6
REMARK VINA RESULT:      -7.9      2.222      9.010
REMARK  5 active torsions:
REMARK  status: ('A' for Active; 'I' for Inactive)
REMARK    1  A    between atoms: C_6  and  O_7 
REMARK    2  A    between atoms: O_7  and  C_8 
REMARK    3  A    between atoms: C_12  and  C_13 
REMARK       I    between atoms: C_13  and  N_14 
REMARK    4  A    between atoms: N_14  and  C_15 
REMARK    5  A    between atoms: C_15  and  C_16 
ROOT
HETATM    1  C   UNL     1      41.046 -10.161  -2.912  1.00  0.00     0.002 A 
HETATM    2  C   UNL     1      40.406 -11.312  -3.373  1.00  0.00     0.025 A 
HETATM    3  C   UNL     1      39.876 -12.237  -2.463  1.00  0.00     0.078 A 
HETATM    4  C   UNL     1      39.230 -13.416  -2.964  1.00  0.00     0.102 C 
HETATM    5  N   UNL     1      38.720 -14.365  -3.397  1.00  0.00    -0.191 NA
HETATM    6  C   UNL     1      39.983 -12.001  -1.084  1.00  0.00     0.096 A 
HETATM    7  C   UNL     1      40.649 -10.854  -0.628  1.00  0.00     0.039 A 
HETATM    8  C   UNL     1      41.171  -9.937  -1.542  1.00  0.00     0.003 A 
ENDROOT
BRANCH   6   9
HETATM    9  O   UNL     1      39.455 -12.959  -0.241  1.00  0.00    -0.308 OA
BRANCH   9  10
HETATM   10  C   UNL     1      40.224 -13.412   0.803  1.00  0.00     0.098 A 
HETATM   11  C   UNL     1      39.965 -13.098   2.145  1.00  0.00     0.068 A 
HETATM   12 CL   UNL     1      38.658 -12.068   2.609  1.00  0.00    -0.081 Cl
HETATM   13  C   UNL     1      40.752 -13.651   3.158  1.00  0.00     0.044 A 
HETATM   14  C   UNL     1      41.784 -14.541   2.831  1.00  0.00     0.033 A 
HETATM   15  C   UNL     1      42.014 -14.884   1.493  1.00  0.00     0.020 A 
HETATM   16  C   UNL     1      41.236 -14.320   0.482  1.00  0.00     0.040 A 
BRANCH  14  17
HETATM   17  C   UNL     1      42.603 -15.196   3.882  1.00  0.00     0.251 C 
HETATM   18  N   UNL     1      43.061 -16.463   3.594  1.00  0.00    -0.353 N 
HETATM   19  H   UNL     1      42.675 -16.964   2.806  1.00  0.00     0.163 HD
HETATM   20  O   UNL     1      42.814 -14.614   4.939  1.00  0.00    -0.268 OA
BRANCH  18  21
HETATM   21  C   UNL     1      43.820 -17.226   4.560  1.00  0.00     0.161 C 
BRANCH  21  22
HETATM   22  C   UNL     1      43.870 -18.685   4.198  1.00  0.00    -0.038 A 
HETATM   23  C   UNL     1      44.031 -19.670   5.175  1.00  0.00     0.028 A 
HETATM   24  C   UNL     1      44.076 -20.998   4.778  1.00  0.00     0.116 A 
HETATM   25  N   UNL     1      43.980 -21.404   3.494  1.00  0.00    -0.273 NA
HETATM   26  C   UNL     1      43.831 -20.438   2.564  1.00  0.00     0.116 A 
HETATM   27  C   UNL     1      43.773 -19.086   2.861  1.00  0.00     0.028 A 
ENDBRANCH  21  22
ENDBRANCH  18  21
ENDBRANCH  14  17
ENDBRANCH   9  10
ENDBRANCH   6   9
TORSDOF 5
ENDMDL
MODEL 7
REMARK VINA RESULT:      -7.7      2.206      2.767
REMARK  5 active torsions:
REMARK  status: ('A' for Active; 'I' for Inactive)
REMARK    1  A    between atoms: C_6  and  O_7 
REMARK    2  A    between atoms: O_7  and  C_8 
REMARK    3  A    between atoms: C_12  and  C_13 
REMARK       I    between atoms: C_13  and  N_14 
REMARK    4  A    between atoms: N_14  and  C_15 
REMARK    5  A    between atoms: C_15  and  C_16 
ROOT
HETATM    1  C   UNL     1      44.256 -19.053   4.151  1.00  0.00     0.002 A 
HETATM    2  C   UNL     1      43.908 -18.414   5.342  1.00  0.00     0.025 A 
HETATM    3  C   UNL     1      43.189 -17.211   5.313  1.00  0.00     0.078 A 
HETATM    4  C   UNL     1      42.852 -16.571   6.551  1.00  0.00     0.102 C 
HETATM    5  N   UNL     1      42.599 -16.070   7.568  1.00  0.00    -0.191 NA
HETATM    6  C   UNL     1      42.812 -16.652   4.082  1.00  0.00     0.096 A 
HETATM    7  C   UNL     1      43.186 -17.288   2.890  1.00  0.00     0.039 A 
HETATM    8  C   UNL     1      43.899 -18.488   2.929  1.00  0.00     0.003 A 
ENDROOT
BRANCH   6   9
HETATM    9  O   UNL     1      42.120 -15.457   4.122  1.00  0.00    -0.308 OA
BRANCH   9  10
HETATM   10  C   UNL     1      41.550 -14.989   2.963  1.00  0.00     0.098 A 
HETATM   11  C   UNL     1      42.050 -13.893   2.246  1.00  0.00     0.068 A 
HETATM   12 CL   UNL     1      43.425 -12.998   2.783  1.00  0.00    -0.081 Cl
HETATM   13  C   UNL     1      41.456 -13.517   1.038  1.00  0.00     0.044 A 
HETATM   14  C   UNL     1      40.377 -14.254   0.534  1.00  0.00     0.033 A 
HETATM   15  C   UNL     1      39.905 -15.373   1.232  1.00  0.00     0.020 A 
HETATM   16  C   UNL     1      40.490 -15.739   2.445  1.00  0.00     0.040 A 
BRANCH  14  17
HETATM   17  C   UNL     1      39.757 -13.922  -0.774  1.00  0.00     0.251 C 
HETATM   18  N   UNL     1      38.593 -13.186  -0.727  1.00  0.00    -0.353 N 
HETATM   19  H   UNL     1      38.110 -13.076   0.154  1.00  0.00     0.163 HD
HETATM   20  O   UNL     1      40.273 -14.324  -1.810  1.00  0.00    -0.268 OA
BRANCH  18  21
HETATM   21  C   UNL     1      37.865 -12.852  -1.931  1.00  0.00     0.161 C 
BRANCH  21  22
HETATM   22  C   UNL     1      37.244 -11.484  -1.841  1.00  0.00    -0.038 A 
HETATM   23  C   UNL     1      36.669 -10.874  -2.958  1.00  0.00     0.028 A 
HETATM   24  C   UNL     1      36.117  -9.610  -2.813  1.00  0.00     0.116 A 
HETATM   25  N   UNL     1      36.105  -8.922  -1.652  1.00  0.00    -0.273 NA
HETATM   26  C   UNL     1      36.671  -9.525  -0.586  1.00  0.00     0.116 A 
HETATM   27  C   UNL     1      37.245 -10.785  -0.630  1.00  0.00     0.028 A 
ENDBRANCH  21  22
ENDBRANCH  18  21
ENDBRANCH  14  17
ENDBRANCH   9  10
ENDBRANCH   6   9
TORSDOF 5
ENDMDL
MODEL 8
REMARK VINA RESULT:      -7.6      7.022      9.458
REMARK  5 active torsions:
REMARK  status: ('A' for Active; 'I' for Inactive)
REMARK    1  A    between atoms: C_6  and  O_7 
REMARK    2  A    between atoms: O_7  and  C_8 
REMARK    3  A    between atoms: C_12  and  C_13 
REMARK       I    between atoms: C_13  and  N_14 
REMARK    4  A    between atoms: N_14  and  C_15 
REMARK    5  A    between atoms: C_15  and  C_16 
ROOT
HETATM    1  C   UNL     1      42.908  -8.941  12.115  1.00  0.00     0.002 A 
HETATM    2  C   UNL     1      42.534  -7.900  11.264  1.00  0.00     0.025 A 
HETATM    3  C   UNL     1      42.894  -7.933   9.910  1.00  0.00     0.078 A 
HETATM    4  C   UNL     1      42.504  -6.846   9.059  1.00  0.00     0.102 C 
HETATM    5  N   UNL     1      42.183  -5.949   8.396  1.00  0.00    -0.191 NA
HETATM    6  C   UNL     1      43.624  -9.020   9.407  1.00  0.00     0.096 A 
HETATM    7  C   UNL     1      44.016 -10.051  10.273  1.00  0.00     0.039 A 
HETATM    8  C   UNL     1      43.651 -10.011  11.620  1.00  0.00     0.003 A 
ENDROOT
BRANCH   6   9
HETATM    9  O   UNL     1      43.960  -8.984   8.068  1.00  0.00    -0.308 OA
BRANCH   9  10
HETATM   10  C   UNL     1      43.539 -10.010   7.257  1.00  0.00     0.098 A 
HETATM   11  C   UNL     1      44.389 -11.022   6.790  1.00  0.00     0.068 A 
HETATM   12 CL   UNL     1      46.074 -11.050   7.167  1.00  0.00    -0.081 Cl
HETATM   13  C   UNL     1      43.874 -12.071   6.023  1.00  0.00     0.044 A 
HETATM   14  C   UNL     1      42.502 -12.121   5.745  1.00  0.00     0.033 A 
HETATM   15  C   UNL     1      41.649 -11.130   6.247  1.00  0.00     0.020 A 
HETATM   16  C   UNL     1      42.167 -10.077   7.001  1.00  0.00     0.040 A 
BRANCH  14  17
HETATM   17  C   UNL     1      41.907 -13.250   4.985  1.00  0.00     0.251 C 
HETATM   18  N   UNL     1      42.765 -13.952   4.168  1.00  0.00    -0.353 N 
HETATM   19  H   UNL     1      43.678 -13.572   3.962  1.00  0.00     0.163 HD
HETATM   20  O   UNL     1      40.710 -13.490   5.092  1.00  0.00    -0.268 OA
BRANCH  18  21
HETATM   21  C   UNL     1      42.291 -15.035   3.334  1.00  0.00     0.161 C 
BRANCH  21  22
HETATM   22  C   UNL     1      43.039 -16.312   3.606  1.00  0.00    -0.038 A 
HETATM   23  C   UNL     1      43.161 -17.303   2.630  1.00  0.00     0.028 A 
HETATM   24  C   UNL     1      43.858 -18.461   2.943  1.00  0.00     0.116 A 
HETATM   25  N   UNL     1      44.426 -18.696   4.144  1.00  0.00    -0.273 NA
HETATM   26  C   UNL     1      44.293 -17.730   5.076  1.00  0.00     0.116 A 
HETATM   27  C   UNL     1      43.618 -16.540   4.859  1.00  0.00     0.028 A 
ENDBRANCH  21  22
ENDBRANCH  18  21
ENDBRANCH  14  17
ENDBRANCH   9  10
ENDBRANCH   6   9
TORSDOF 5
ENDMDL
MODEL 9
REMARK VINA RESULT:      -7.3      6.065      7.718
REMARK  5 active torsions:
REMARK  status: ('A' for Active; 'I' for Inactive)
REMARK    1  A    between atoms: C_6  and  O_7 
REMARK    2  A    between atoms: O_7  and  C_8 
REMARK    3  A    between atoms: C_12  and  C_13 
REMARK       I    between atoms: C_13  and  N_14 
REMARK    4  A    between atoms: N_14  and  C_15 
REMARK    5  A    between atoms: C_15  and  C_16 
ROOT
HETATM    1  C   UNL     1      43.218 -17.359   1.866  1.00  0.00     0.002 A 
HETATM    2  C   UNL     1      43.313 -17.996   3.104  1.00  0.00     0.025 A 
HETATM    3  C   UNL     1      43.299 -17.244   4.286  1.00  0.00     0.078 A 
HETATM    4  C   UNL     1      43.406 -17.924   5.545  1.00  0.00     0.102 C 
HETATM    5  N   UNL     1      43.503 -18.499   6.549  1.00  0.00    -0.191 NA
HETATM    6  C   UNL     1      43.181 -15.847   4.225  1.00  0.00     0.096 A 
HETATM    7  C   UNL     1      43.110 -15.213   2.977  1.00  0.00     0.039 A 
HETATM    8  C   UNL     1      43.122 -15.971   1.804  1.00  0.00     0.003 A 
ENDROOT
BRANCH   6   9
HETATM    9  O   UNL     1      43.190 -15.164   5.426  1.00  0.00    -0.308 OA
BRANCH   9  10
HETATM   10  C   UNL     1      42.247 -14.187   5.633  1.00  0.00     0.098 A 
HETATM   11  C   UNL     1      40.899 -14.462   5.902  1.00  0.00     0.068 A 
HETATM   12 CL   UNL     1      40.287 -16.076   5.962  1.00  0.00    -0.081 Cl
HETATM   13  C   UNL     1      40.011 -13.416   6.169  1.00  0.00     0.044 A 
HETATM   14  C   UNL     1      40.477 -12.096   6.193  1.00  0.00     0.033 A 
HETATM   15  C   UNL     1      41.833 -11.827   5.963  1.00  0.00     0.020 A 
HETATM   16  C   UNL     1      42.715 -12.872   5.683  1.00  0.00     0.040 A 
BRANCH  14  17
HETATM   17  C   UNL     1      39.579 -10.963   6.531  1.00  0.00     0.251 C 
HETATM   18  N   UNL     1      40.177  -9.728   6.651  1.00  0.00    -0.353 N 
HETATM   19  H   UNL     1      41.184  -9.666   6.707  1.00  0.00     0.163 HD
HETATM   20  O   UNL     1      38.384 -11.167   6.707  1.00  0.00    -0.268 OA
BRANCH  18  21
HETATM   21  C   UNL     1      39.416  -8.558   7.034  1.00  0.00     0.161 C 
BRANCH  21  22
HETATM   22  C   UNL     1      39.522  -8.288   8.510  1.00  0.00    -0.038 A 
HETATM   23  C   UNL     1      40.433  -8.981   9.311  1.00  0.00     0.028 A 
HETATM   24  C   UNL     1      40.480  -8.690  10.667  1.00  0.00     0.116 A 
HETATM   25  N   UNL     1      39.690  -7.777  11.269  1.00  0.00    -0.273 NA
HETATM   26  C   UNL     1      38.813  -7.122  10.480  1.00  0.00     0.116 A 
HETATM   27  C   UNL     1      38.692  -7.340   9.117  1.00  0.00     0.028 A 
ENDBRANCH  21  22
ENDBRANCH  18  21
ENDBRANCH  14  17
ENDBRANCH   9  10
ENDBRANCH   6   9
TORSDOF 5
ENDMDL
MODEL 10
REMARK VINA RESULT:      -7.3      7.178      9.510
REMARK  5 active torsions:
REMARK  status: ('A' for Active; 'I' for Inactive)
REMARK    1  A    between atoms: C_6  and  O_7 
REMARK    2  A    between atoms: O_7  and  C_8 
REMARK    3  A    between atoms: C_12  and  C_13 
REMARK       I    between atoms: C_13  and  N_14 
REMARK    4  A    between atoms: N_14  and  C_15 
REMARK    5  A    between atoms: C_15  and  C_16 
ROOT
HETATM    1  C   UNL     1      42.239  -6.843  11.024  1.00  0.00     0.002 A 
HETATM    2  C   UNL     1      42.603  -8.115  11.468  1.00  0.00     0.025 A 
HETATM    3  C   UNL     1      43.469  -8.908  10.703  1.00  0.00     0.078 A 
HETATM    4  C   UNL     1      43.820 -10.215  11.180  1.00  0.00     0.102 C 
HETATM    5  N   UNL     1      44.081 -11.272  11.585  1.00  0.00    -0.191 NA
HETATM    6  C   UNL     1      43.978  -8.418   9.491  1.00  0.00     0.096 A 
HETATM    7  C   UNL     1      43.590  -7.149   9.040  1.00  0.00     0.039 A 
HETATM    8  C   UNL     1      42.729  -6.365   9.810  1.00  0.00     0.003 A 
ENDROOT
BRANCH   6   9
HETATM    9  O   UNL     1      44.814  -9.256   8.778  1.00  0.00    -0.308 OA
BRANCH   9  10
HETATM   10  C   UNL     1      44.278 -10.008   7.760  1.00  0.00     0.098 A 
HETATM   11  C   UNL     1      45.039 -10.863   6.952  1.00  0.00     0.068 A 
HETATM   12 CL   UNL     1      46.748 -11.024   7.140  1.00  0.00    -0.081 Cl
HETATM   13  C   UNL     1      44.413 -11.649   5.979  1.00  0.00     0.044 A 
HETATM   14  C   UNL     1      43.020 -11.597   5.834  1.00  0.00     0.033 A 
HETATM   15  C   UNL     1      42.259 -10.771   6.671  1.00  0.00     0.020 A 
HETATM   16  C   UNL     1      42.887  -9.978   7.631  1.00  0.00     0.040 A 
BRANCH  14  17
HETATM   17  C   UNL     1      42.312 -12.458   4.854  1.00  0.00     0.251 C 
HETATM   18  N   UNL     1      42.992 -13.576   4.424  1.00  0.00    -0.353 N 
HETATM   19  H   UNL     1      43.980 -13.663   4.618  1.00  0.00     0.163 HD
HETATM   20  O   UNL     1      41.196 -12.140   4.460  1.00  0.00    -0.268 OA
BRANCH  18  21
HETATM   21  C   UNL     1      42.430 -14.461   3.427  1.00  0.00     0.161 C 
BRANCH  21  22
HETATM   22  C   UNL     1      42.990 -15.853   3.542  1.00  0.00    -0.038 A 
HETATM   23  C   UNL     1      43.012 -16.719   2.447  1.00  0.00     0.028 A 
HETATM   24  C   UNL     1      43.537 -17.992   2.618  1.00  0.00     0.116 A 
HETATM   25  N   UNL     1      44.025 -18.454   3.787  1.00  0.00    -0.273 NA
HETATM   26  C   UNL     1      43.990 -17.605   4.836  1.00  0.00     0.116 A 
HETATM   27  C   UNL     1      43.488 -16.316   4.765  1.00  0.00     0.028 A 
ENDBRANCH  21  22
ENDBRANCH  18  21
ENDBRANCH  14  17
ENDBRANCH   9  10
ENDBRANCH   6   9
TORSDOF 5
ENDMDL
