MODEL 1
REMARK VINA RESULT:      -8.7      0.000      0.000
REMARK  8 active torsions:
REMARK  status: ('A' for Active; 'I' for Inactive)
REMARK    1  A    between atoms: C_6  and  O_7 
REMARK    2  A    between atoms: O_7  and  C_8 
REMARK    3  A    between atoms: C_8  and  C_9 
REMARK    4  A    between atoms: C_9  and  C_10 
REMARK    5  A    between atoms: C_10  and  C_11 
REMARK    6  A    between atoms: C_11  and  N_12 
REMARK       I    between atoms: N_12  and  C_13 
REMARK    7  A    between atoms: C_13  and  C_14 
REMARK    8  A    between atoms: C_18  and  C_19 
ROOT
HETATM    1  N   UNL     1      43.506 -11.258   7.955  1.00  0.00    -0.345 N 
HETATM    2  C   UNL     1      44.273 -10.766   8.981  1.00  0.00     0.270 C 
HETATM    3  O   UNL     1      45.495 -10.875   9.012  1.00  0.00    -0.266 OA
HETATM    4  H   UNL     1      42.502 -11.184   7.992  1.00  0.00     0.163 HD
ENDROOT
BRANCH   2   5
HETATM    5  C   UNL     1      43.549 -10.089  10.023  1.00  0.00     0.120 A 
HETATM    6  N   UNL     1      42.198  -9.904   9.943  1.00  0.00    -0.272 N 
HETATM    7  H   UNL     1      41.590 -10.190   9.181  1.00  0.00     0.189 HD
HETATM    8  N   UNL     1      41.662  -9.287  11.005  1.00  0.00    -0.174 NA
HETATM    9  C   UNL     1      42.697  -9.079  11.835  1.00  0.00     0.089 A 
HETATM   10  C   UNL     1      43.905  -9.545  11.241  1.00  0.00     0.071 A 
BRANCH   9  11
HETATM   11  C   UNL     1      42.508  -8.465  13.154  1.00  0.00    -0.005 A 
HETATM   12  C   UNL     1      43.289  -7.372  13.565  1.00  0.00     0.017 A 
HETATM   13  C   UNL     1      43.112  -6.807  14.831  1.00  0.00     0.043 A 
HETATM   14  C   UNL     1      42.154  -7.331  15.690  1.00  0.00     0.116 A 
HETATM   15  F   UNL     1      41.989  -6.790  16.903  1.00  0.00    -0.206 F 
HETATM   16  C   UNL     1      41.370  -8.412  15.309  1.00  0.00     0.043 A 
HETATM   17  C   UNL     1      41.548  -8.978  14.044  1.00  0.00     0.017 A 
ENDBRANCH   9  11
ENDBRANCH   2   5
BRANCH   1  18
HETATM   18  C   UNL     1      44.098 -11.832   6.777  1.00  0.00     0.217 C 
BRANCH  18  19
HETATM   19  C   UNL     1      43.878 -13.336   6.753  1.00  0.00    -0.085 C 
BRANCH  19  20
HETATM   20  C   UNL     1      43.690 -14.625   6.732  1.00  0.00    -0.078 C 
BRANCH  20  21
HETATM   21  C   UNL     1      43.492 -16.081   6.707  1.00  0.00     0.269 C 
BRANCH  21  22
HETATM   22  O   UNL     1      44.367 -16.652   5.737  1.00  0.00    -0.340 OA
BRANCH  22  23
HETATM   23  C   UNL     1      43.855 -16.875   4.488  1.00  0.00     0.071 A 
HETATM   24  C   UNL     1      43.960 -18.196   4.046  1.00  0.00     0.055 A 
HETATM   25  C   UNL     1      43.473 -18.556   2.789  1.00  0.00     0.013 A 
HETATM   26  C   UNL     1      42.877 -17.605   1.964  1.00  0.00     0.019 A 
HETATM   27 BR   UNL     1      43.624 -20.346   2.200  1.00  0.00    -0.051 Br
HETATM   28  C   UNL     1      42.769 -16.286   2.403  1.00  0.00     0.004 A 
HETATM   29  C   UNL     1      43.256 -15.920   3.662  1.00  0.00     0.037 A 
ENDBRANCH  22  23
ENDBRANCH  21  22
ENDBRANCH  20  21
ENDBRANCH  19  20
ENDBRANCH  18  19
ENDBRANCH   1  18
TORSDOF 8
ENDMDL
MODEL 2
REMARK VINA RESULT:      -8.5      1.354      1.829
REMARK  8 active torsions:
REMARK  status: ('A' for Active; 'I' for Inactive)
REMARK    1  A    between atoms: C_6  and  O_7 
REMARK    2  A    between atoms: O_7  and  C_8 
REMARK    3  A    between atoms: C_8  and  C_9 
REMARK    4  A    between atoms: C_9  and  C_10 
REMARK    5  A    between atoms: C_10  and  C_11 
REMARK    6  A    between atoms: C_11  and  N_12 
REMARK       I    between atoms: N_12  and  C_13 
REMARK    7  A    between atoms: C_13  and  C_14 
REMARK    8  A    between atoms: C_18  and  C_19 
ROOT
HETATM    1  N   UNL     1      43.490 -11.559   7.833  1.00  0.00    -0.345 N 
HETATM    2  C   UNL     1      44.295 -10.954   8.765  1.00  0.00     0.270 C 
HETATM    3  O   UNL     1      45.520 -11.006   8.723  1.00  0.00    -0.266 OA
HETATM    4  H   UNL     1      42.487 -11.526   7.931  1.00  0.00     0.163 HD
ENDROOT
BRANCH   2   5
HETATM    5  C   UNL     1      43.606 -10.229   9.798  1.00  0.00     0.120 A 
HETATM    6  N   UNL     1      42.283  -9.908   9.678  1.00  0.00    -0.272 N 
HETATM    7  H   UNL     1      41.676 -10.117   8.890  1.00  0.00     0.189 HD
HETATM    8  N   UNL     1      41.774  -9.262  10.737  1.00  0.00    -0.174 NA
HETATM    9  C   UNL     1      42.795  -9.174  11.604  1.00  0.00     0.089 A 
HETATM   10  C   UNL     1      43.971  -9.747  11.039  1.00  0.00     0.071 A 
BRANCH   9  11
HETATM   11  C   UNL     1      42.623  -8.571  12.930  1.00  0.00    -0.005 A 
HETATM   12  C   UNL     1      41.686  -9.081  13.844  1.00  0.00     0.017 A 
HETATM   13  C   UNL     1      41.518  -8.486  15.098  1.00  0.00     0.043 A 
HETATM   14  C   UNL     1      42.286  -7.381  15.443  1.00  0.00     0.116 A 
HETATM   15  F   UNL     1      42.120  -6.813  16.643  1.00  0.00    -0.206 F 
HETATM   16  C   UNL     1      43.218  -6.856  14.558  1.00  0.00     0.043 A 
HETATM   17  C   UNL     1      43.384  -7.449  13.303  1.00  0.00     0.017 A 
ENDBRANCH   9  11
ENDBRANCH   2   5
BRANCH   1  18
HETATM   18  C   UNL     1      44.033 -12.198   6.665  1.00  0.00     0.217 C 
BRANCH  18  19
HETATM   19  C   UNL     1      43.866 -13.706   6.762  1.00  0.00    -0.085 C 
BRANCH  19  20
HETATM   20  C   UNL     1      43.724 -14.999   6.844  1.00  0.00    -0.078 C 
BRANCH  20  21
HETATM   21  C   UNL     1      43.550 -16.455   6.939  1.00  0.00     0.269 C 
BRANCH  21  22
HETATM   22  O   UNL     1      42.379 -16.830   6.217  1.00  0.00    -0.340 OA
BRANCH  22  23
HETATM   23  C   UNL     1      42.503 -16.984   4.863  1.00  0.00     0.071 A 
HETATM   24  C   UNL     1      41.487 -16.383   4.115  1.00  0.00     0.055 A 
HETATM   25  C   UNL     1      41.498 -16.465   2.723  1.00  0.00     0.013 A 
HETATM   26  C   UNL     1      42.520 -17.143   2.064  1.00  0.00     0.019 A 
HETATM   27 BR   UNL     1      40.116 -15.651   1.723  1.00  0.00    -0.051 Br
HETATM   28  C   UNL     1      43.537 -17.743   2.807  1.00  0.00     0.004 A 
HETATM   29  C   UNL     1      43.530 -17.664   4.203  1.00  0.00     0.037 A 
ENDBRANCH  22  23
ENDBRANCH  21  22
ENDBRANCH  20  21
ENDBRANCH  19  20
ENDBRANCH  18  19
ENDBRANCH   1  18
TORSDOF 8
ENDMDL
MODEL 3
REMARK VINA RESULT:      -8.0      5.328     11.842
REMARK  8 active torsions:
REMARK  status: ('A' for Active; 'I' for Inactive)
REMARK    1  A    between atoms: C_6  and  O_7 
REMARK    2  A    between atoms: O_7  and  C_8 
REMARK    3  A    between atoms: C_8  and  C_9 
REMARK    4  A    between atoms: C_9  and  C_10 
REMARK    5  A    between atoms: C_10  and  C_11 
REMARK    6  A    between atoms: C_11  and  N_12 
REMARK       I    between atoms: N_12  and  C_13 
REMARK    7  A    between atoms: C_13  and  C_14 
REMARK    8  A    between atoms: C_18  and  C_19 
ROOT
HETATM    1  N   UNL     1      43.136 -11.918   6.696  1.00  0.00    -0.345 N 
HETATM    2  C   UNL     1      42.280 -12.722   5.986  1.00  0.00     0.270 C 
HETATM    3  O   UNL     1      41.165 -12.358   5.628  1.00  0.00    -0.266 OA
HETATM    4  H   UNL     1      44.026 -12.274   7.007  1.00  0.00     0.163 HD
ENDROOT
BRANCH   2   5
HETATM    5  C   UNL     1      42.785 -14.030   5.666  1.00  0.00     0.120 A 
HETATM    6  N   UNL     1      43.564 -14.725   6.548  1.00  0.00    -0.272 N 
HETATM    7  H   UNL     1      43.870 -14.413   7.465  1.00  0.00     0.189 HD
HETATM    8  N   UNL     1      43.929 -15.942   6.120  1.00  0.00    -0.174 NA
HETATM    9  C   UNL     1      43.346 -16.069   4.917  1.00  0.00     0.089 A 
HETATM   10  C   UNL     1      42.640 -14.876   4.585  1.00  0.00     0.071 A 
BRANCH   9  11
HETATM   11  C   UNL     1      43.463 -17.305   4.137  1.00  0.00    -0.005 A 
HETATM   12  C   UNL     1      42.926 -17.400   2.842  1.00  0.00     0.017 A 
HETATM   13  C   UNL     1      43.029 -18.590   2.115  1.00  0.00     0.043 A 
HETATM   14  C   UNL     1      43.668 -19.687   2.678  1.00  0.00     0.116 A 
HETATM   15  F   UNL     1      43.762 -20.825   1.981  1.00  0.00    -0.206 F 
HETATM   16  C   UNL     1      44.206 -19.620   3.957  1.00  0.00     0.043 A 
HETATM   17  C   UNL     1      44.102 -18.431   4.685  1.00  0.00     0.017 A 
ENDBRANCH   9  11
ENDBRANCH   2   5
BRANCH   1  18
HETATM   18  C   UNL     1      42.829 -10.539   6.966  1.00  0.00     0.217 C 
BRANCH  18  19
HETATM   19  C   UNL     1      43.389 -10.128   8.318  1.00  0.00    -0.085 C 
BRANCH  19  20
HETATM   20  C   UNL     1      43.870  -9.773   9.476  1.00  0.00    -0.078 C 
BRANCH  20  21
HETATM   21  C   UNL     1      44.423  -9.369  10.776  1.00  0.00     0.269 C 
BRANCH  21  22
HETATM   22  O   UNL     1      43.740  -8.202  11.229  1.00  0.00    -0.340 OA
BRANCH  22  23
HETATM   23  C   UNL     1      42.953  -8.332  12.341  1.00  0.00     0.071 A 
HETATM   24  C   UNL     1      41.882  -9.217  12.193  1.00  0.00     0.055 A 
HETATM   25  C   UNL     1      41.005  -9.440  13.254  1.00  0.00     0.013 A 
HETATM   26  C   UNL     1      41.188  -8.787  14.470  1.00  0.00     0.019 A 
HETATM   27 BR   UNL     1      39.558 -10.638  13.042  1.00  0.00    -0.051 Br
HETATM   28  C   UNL     1      42.256  -7.904  14.622  1.00  0.00     0.004 A 
HETATM   29  C   UNL     1      43.139  -7.677  13.561  1.00  0.00     0.037 A 
ENDBRANCH  22  23
ENDBRANCH  21  22
ENDBRANCH  20  21
ENDBRANCH  19  20
ENDBRANCH  18  19
ENDBRANCH   1  18
TORSDOF 8
ENDMDL
MODEL 4
REMARK VINA RESULT:      -7.8      7.089     11.061
REMARK  8 active torsions:
REMARK  status: ('A' for Active; 'I' for Inactive)
REMARK    1  A    between atoms: C_6  and  O_7 
REMARK    2  A    between atoms: O_7  and  C_8 
REMARK    3  A    between atoms: C_8  and  C_9 
REMARK    4  A    between atoms: C_9  and  C_10 
REMARK    5  A    between atoms: C_10  and  C_11 
REMARK    6  A    between atoms: C_11  and  N_12 
REMARK       I    between atoms: N_12  and  C_13 
REMARK    7  A    between atoms: C_13  and  C_14 
REMARK    8  A    between atoms: C_18  and  C_19 
ROOT
HETATM    1  N   UNL     1      40.002 -13.469   1.900  1.00  0.00    -0.345 N 
HETATM    2  C   UNL     1      40.415 -14.355   0.937  1.00  0.00     0.270 C 
HETATM    3  O   UNL     1      39.996 -14.331  -0.215  1.00  0.00    -0.266 OA
HETATM    4  H   UNL     1      40.341 -13.553   2.846  1.00  0.00     0.163 HD
ENDROOT
BRANCH   2   5
HETATM    5  C   UNL     1      41.398 -15.315   1.362  1.00  0.00     0.120 A 
HETATM    6  N   UNL     1      42.703 -15.215   0.969  1.00  0.00    -0.272 N 
HETATM    7  H   UNL     1      43.101 -14.508   0.358  1.00  0.00     0.189 HD
HETATM    8  N   UNL     1      43.505 -16.164   1.474  1.00  0.00    -0.174 NA
HETATM    9  C   UNL     1      42.703 -16.905   2.255  1.00  0.00     0.089 A 
HETATM   10  C   UNL     1      41.366 -16.420   2.189  1.00  0.00     0.071 A 
BRANCH   9  11
HETATM   11  C   UNL     1      43.226 -18.029   3.039  1.00  0.00    -0.005 A 
HETATM   12  C   UNL     1      43.349 -19.311   2.479  1.00  0.00     0.017 A 
HETATM   13  C   UNL     1      43.832 -20.378   3.243  1.00  0.00     0.043 A 
HETATM   14  C   UNL     1      44.196 -20.167   4.567  1.00  0.00     0.116 A 
HETATM   15  F   UNL     1      44.656 -21.192   5.295  1.00  0.00    -0.206 F 
HETATM   16  C   UNL     1      44.084 -18.910   5.145  1.00  0.00     0.043 A 
HETATM   17  C   UNL     1      43.598 -17.844   4.383  1.00  0.00     0.017 A 
ENDBRANCH   9  11
ENDBRANCH   2   5
BRANCH   1  18
HETATM   18  C   UNL     1      39.133 -12.366   1.590  1.00  0.00     0.217 C 
BRANCH  18  19
HETATM   19  C   UNL     1      38.935 -11.489   2.815  1.00  0.00    -0.085 C 
BRANCH  19  20
HETATM   20  C   UNL     1      38.765 -10.737   3.867  1.00  0.00    -0.078 C 
BRANCH  20  21
HETATM   21  C   UNL     1      38.588  -9.885   5.051  1.00  0.00     0.269 C 
BRANCH  21  22
HETATM   22  O   UNL     1      38.925 -10.635   6.217  1.00  0.00    -0.340 OA
BRANCH  22  23
HETATM   23  C   UNL     1      40.067 -11.386   6.167  1.00  0.00     0.071 A 
HETATM   24  C   UNL     1      39.852 -12.766   6.118  1.00  0.00     0.055 A 
HETATM   25  C   UNL     1      40.935 -13.643   6.063  1.00  0.00     0.013 A 
HETATM   26  C   UNL     1      42.239 -13.155   6.054  1.00  0.00     0.019 A 
HETATM   27 BR   UNL     1      40.631 -15.508   6.000  1.00  0.00    -0.051 Br
HETATM   28  C   UNL     1      42.457 -11.779   6.100  1.00  0.00     0.004 A 
HETATM   29  C   UNL     1      41.375 -10.895   6.156  1.00  0.00     0.037 A 
ENDBRANCH  22  23
ENDBRANCH  21  22
ENDBRANCH  20  21
ENDBRANCH  19  20
ENDBRANCH  18  19
ENDBRANCH   1  18
TORSDOF 8
ENDMDL
MODEL 5
REMARK VINA RESULT:      -7.8      5.665     11.661
REMARK  8 active torsions:
REMARK  status: ('A' for Active; 'I' for Inactive)
REMARK    1  A    between atoms: C_6  and  O_7 
REMARK    2  A    between atoms: O_7  and  C_8 
REMARK    3  A    between atoms: C_8  and  C_9 
REMARK    4  A    between atoms: C_9  and  C_10 
REMARK    5  A    between atoms: C_10  and  C_11 
REMARK    6  A    between atoms: C_11  and  N_12 
REMARK       I    between atoms: N_12  and  C_13 
REMARK    7  A    between atoms: C_13  and  C_14 
REMARK    8  A    between atoms: C_18  and  C_19 
ROOT
HETATM    1  N   UNL     1      43.049 -11.979   5.081  1.00  0.00    -0.345 N 
HETATM    2  C   UNL     1      42.270 -13.075   5.356  1.00  0.00     0.270 C 
HETATM    3  O   UNL     1      41.345 -13.052   6.161  1.00  0.00    -0.266 OA
HETATM    4  H   UNL     1      43.825 -12.055   4.443  1.00  0.00     0.163 HD
ENDROOT
BRANCH   2   5
HETATM    5  C   UNL     1      42.595 -14.264   4.615  1.00  0.00     0.120 A 
HETATM    6  N   UNL     1      43.005 -14.199   3.313  1.00  0.00    -0.272 N 
HETATM    7  H   UNL     1      43.106 -13.361   2.749  1.00  0.00     0.189 HD
HETATM    8  N   UNL     1      43.304 -15.388   2.770  1.00  0.00    -0.174 NA
HETATM    9  C   UNL     1      43.109 -16.273   3.760  1.00  0.00     0.089 A 
HETATM   10  C   UNL     1      42.636 -15.608   4.928  1.00  0.00     0.071 A 
BRANCH   9  11
HETATM   11  C   UNL     1      43.386 -17.702   3.575  1.00  0.00    -0.005 A 
HETATM   12  C   UNL     1      43.092 -18.346   2.361  1.00  0.00     0.017 A 
HETATM   13  C   UNL     1      43.345 -19.713   2.203  1.00  0.00     0.043 A 
HETATM   14  C   UNL     1      43.891 -20.437   3.254  1.00  0.00     0.116 A 
HETATM   15  F   UNL     1      44.128 -21.746   3.100  1.00  0.00    -0.206 F 
HETATM   16  C   UNL     1      44.189 -19.825   4.464  1.00  0.00     0.043 A 
HETATM   17  C   UNL     1      43.935 -18.459   4.624  1.00  0.00     0.017 A 
ENDBRANCH   9  11
ENDBRANCH   2   5
BRANCH   1  18
HETATM   18  C   UNL     1      42.755 -10.685   5.635  1.00  0.00     0.217 C 
BRANCH  18  19
HETATM   19  C   UNL     1      43.667 -10.397   6.817  1.00  0.00    -0.085 C 
BRANCH  19  20
HETATM   20  C   UNL     1      44.448 -10.148   7.831  1.00  0.00    -0.078 C 
BRANCH  20  21
HETATM   21  C   UNL     1      45.331  -9.855   8.968  1.00  0.00     0.269 C 
BRANCH  21  22
HETATM   22  O   UNL     1      44.940 -10.659  10.079  1.00  0.00    -0.340 OA
BRANCH  22  23
HETATM   23  C   UNL     1      44.034 -10.120  10.950  1.00  0.00     0.071 A 
HETATM   24  C   UNL     1      43.720  -8.780  10.706  1.00  0.00     0.055 A 
HETATM   25  C   UNL     1      42.808  -8.112  11.523  1.00  0.00     0.013 A 
HETATM   26  C   UNL     1      42.199  -8.772  12.587  1.00  0.00     0.019 A 
HETATM   27 BR   UNL     1      42.395  -6.299  11.184  1.00  0.00    -0.051 Br
HETATM   28  C   UNL     1      42.507 -10.110  12.833  1.00  0.00     0.004 A 
HETATM   29  C   UNL     1      43.422 -10.783  12.017  1.00  0.00     0.037 A 
ENDBRANCH  22  23
ENDBRANCH  21  22
ENDBRANCH  20  21
ENDBRANCH  19  20
ENDBRANCH  18  19
ENDBRANCH   1  18
TORSDOF 8
ENDMDL
MODEL 6
REMARK VINA RESULT:      -7.7      6.582     10.719
REMARK  8 active torsions:
REMARK  status: ('A' for Active; 'I' for Inactive)
REMARK    1  A    between atoms: C_6  and  O_7 
REMARK    2  A    between atoms: O_7  and  C_8 
REMARK    3  A    between atoms: C_8  and  C_9 
REMARK    4  A    between atoms: C_9  and  C_10 
REMARK    5  A    between atoms: C_10  and  C_11 
REMARK    6  A    between atoms: C_11  and  N_12 
REMARK       I    between atoms: N_12  and  C_13 
REMARK    7  A    between atoms: C_13  and  C_14 
REMARK    8  A    between atoms: C_18  and  C_19 
ROOT
HETATM    1  N   UNL     1      41.642 -11.858   2.018  1.00  0.00    -0.345 N 
HETATM    2  C   UNL     1      42.811 -12.402   2.489  1.00  0.00     0.270 C 
HETATM    3  O   UNL     1      43.746 -11.723   2.899  1.00  0.00    -0.266 OA
HETATM    4  H   UNL     1      40.917 -12.453   1.651  1.00  0.00     0.163 HD
ENDROOT
BRANCH   2   5
HETATM    5  C   UNL     1      42.865 -13.840   2.490  1.00  0.00     0.120 A 
HETATM    6  N   UNL     1      42.589 -14.561   1.363  1.00  0.00    -0.272 N 
HETATM    7  H   UNL     1      42.315 -14.192   0.457  1.00  0.00     0.189 HD
HETATM    8  N   UNL     1      42.714 -15.887   1.513  1.00  0.00    -0.174 NA
HETATM    9  C   UNL     1      43.115 -16.049   2.784  1.00  0.00     0.089 A 
HETATM   10  C   UNL     1      43.195 -14.786   3.439  1.00  0.00     0.071 A 
BRANCH   9  11
HETATM   11  C   UNL     1      43.419 -17.377   3.327  1.00  0.00    -0.005 A 
HETATM   12  C   UNL     1      43.702 -17.557   4.691  1.00  0.00     0.017 A 
HETATM   13  C   UNL     1      44.008 -18.826   5.193  1.00  0.00     0.043 A 
HETATM   14  C   UNL     1      44.031 -19.917   4.335  1.00  0.00     0.116 A 
HETATM   15  F   UNL     1      44.328 -21.130   4.819  1.00  0.00    -0.206 F 
HETATM   16  C   UNL     1      43.757 -19.767   2.983  1.00  0.00     0.043 A 
HETATM   17  C   UNL     1      43.453 -18.499   2.480  1.00  0.00     0.017 A 
ENDBRANCH   9  11
ENDBRANCH   2   5
BRANCH   1  18
HETATM   18  C   UNL     1      41.386 -10.444   2.087  1.00  0.00     0.217 C 
BRANCH  18  19
HETATM   19  C   UNL     1      41.252 -10.001   3.534  1.00  0.00    -0.085 C 
BRANCH  19  20
HETATM   20  C   UNL     1      41.137  -9.620   4.775  1.00  0.00    -0.078 C 
BRANCH  20  21
HETATM   21  C   UNL     1      41.006  -9.175   6.170  1.00  0.00     0.269 C 
BRANCH  21  22
HETATM   22  O   UNL     1      41.277 -10.276   7.035  1.00  0.00    -0.340 OA
BRANCH  22  23
HETATM   23  C   UNL     1      42.523 -10.836   6.962  1.00  0.00     0.071 A 
HETATM   24  C   UNL     1      43.553 -10.023   7.444  1.00  0.00     0.055 A 
HETATM   25  C   UNL     1      44.871 -10.477   7.426  1.00  0.00     0.013 A 
HETATM   26  C   UNL     1      45.175 -11.743   6.931  1.00  0.00     0.019 A 
HETATM   27 BR   UNL     1      46.256  -9.368   8.077  1.00  0.00    -0.051 Br
HETATM   28  C   UNL     1      44.151 -12.557   6.452  1.00  0.00     0.004 A 
HETATM   29  C   UNL     1      42.826 -12.107   6.467  1.00  0.00     0.037 A 
ENDBRANCH  22  23
ENDBRANCH  21  22
ENDBRANCH  20  21
ENDBRANCH  19  20
ENDBRANCH  18  19
ENDBRANCH   1  18
TORSDOF 8
ENDMDL
MODEL 7
REMARK VINA RESULT:      -7.7      5.771     11.548
REMARK  8 active torsions:
REMARK  status: ('A' for Active; 'I' for Inactive)
REMARK    1  A    between atoms: C_6  and  O_7 
REMARK    2  A    between atoms: O_7  and  C_8 
REMARK    3  A    between atoms: C_8  and  C_9 
REMARK    4  A    between atoms: C_9  and  C_10 
REMARK    5  A    between atoms: C_10  and  C_11 
REMARK    6  A    between atoms: C_11  and  N_12 
REMARK       I    between atoms: N_12  and  C_13 
REMARK    7  A    between atoms: C_13  and  C_14 
REMARK    8  A    between atoms: C_18  and  C_19 
ROOT
HETATM    1  N   UNL     1      41.242 -11.526   6.540  1.00  0.00    -0.345 N 
HETATM    2  C   UNL     1      40.592 -12.679   6.176  1.00  0.00     0.270 C 
HETATM    3  O   UNL     1      39.371 -12.763   6.110  1.00  0.00    -0.266 OA
HETATM    4  H   UNL     1      42.247 -11.515   6.623  1.00  0.00     0.163 HD
ENDROOT
BRANCH   2   5
HETATM    5  C   UNL     1      41.444 -13.792   5.854  1.00  0.00     0.120 A 
HETATM    6  N   UNL     1      42.396 -14.233   6.729  1.00  0.00    -0.272 N 
HETATM    7  H   UNL     1      42.611 -13.842   7.642  1.00  0.00     0.189 HD
HETATM    8  N   UNL     1      43.087 -15.299   6.300  1.00  0.00    -0.174 NA
HETATM    9  C   UNL     1      42.552 -15.592   5.104  1.00  0.00     0.089 A 
HETATM   10  C   UNL     1      41.535 -14.650   4.777  1.00  0.00     0.071 A 
BRANCH   9  11
HETATM   11  C   UNL     1      43.007 -16.749   4.325  1.00  0.00    -0.005 A 
HETATM   12  C   UNL     1      42.542 -16.973   3.019  1.00  0.00     0.017 A 
HETATM   13  C   UNL     1      42.970 -18.089   2.293  1.00  0.00     0.043 A 
HETATM   14  C   UNL     1      43.864 -18.983   2.869  1.00  0.00     0.116 A 
HETATM   15  F   UNL     1      44.268 -20.051   2.173  1.00  0.00    -0.206 F 
HETATM   16  C   UNL     1      44.338 -18.785   4.159  1.00  0.00     0.043 A 
HETATM   17  C   UNL     1      43.909 -17.671   4.886  1.00  0.00     0.017 A 
ENDBRANCH   9  11
ENDBRANCH   2   5
BRANCH   1  18
HETATM   18  C   UNL     1      40.533 -10.294   6.753  1.00  0.00     0.217 C 
BRANCH  18  19
HETATM   19  C   UNL     1      41.400  -9.311   7.525  1.00  0.00    -0.085 C 
BRANCH  19  20
HETATM   20  C   UNL     1      42.142  -8.470   8.187  1.00  0.00    -0.078 C 
BRANCH  20  21
HETATM   21  C   UNL     1      42.975  -7.527   8.947  1.00  0.00     0.269 C 
BRANCH  21  22
HETATM   22  O   UNL     1      43.915  -8.263   9.727  1.00  0.00    -0.340 OA
BRANCH  22  23
HETATM   23  C   UNL     1      43.473  -8.780  10.913  1.00  0.00     0.071 A 
HETATM   24  C   UNL     1      43.262  -7.831  11.917  1.00  0.00     0.055 A 
HETATM   25  C   UNL     1      42.809  -8.228  13.175  1.00  0.00     0.013 A 
HETATM   26  C   UNL     1      42.560  -9.572  13.443  1.00  0.00     0.019 A 
HETATM   27 BR   UNL     1      42.531  -6.935  14.525  1.00  0.00    -0.051 Br
HETATM   28  C   UNL     1      42.768 -10.522  12.444  1.00  0.00     0.004 A 
HETATM   29  C   UNL     1      43.222 -10.128  11.181  1.00  0.00     0.037 A 
ENDBRANCH  22  23
ENDBRANCH  21  22
ENDBRANCH  20  21
ENDBRANCH  19  20
ENDBRANCH  18  19
ENDBRANCH   1  18
TORSDOF 8
ENDMDL
MODEL 8
REMARK VINA RESULT:      -7.7      5.763     11.019
REMARK  8 active torsions:
REMARK  status: ('A' for Active; 'I' for Inactive)
REMARK    1  A    between atoms: C_6  and  O_7 
REMARK    2  A    between atoms: O_7  and  C_8 
REMARK    3  A    between atoms: C_8  and  C_9 
REMARK    4  A    between atoms: C_9  and  C_10 
REMARK    5  A    between atoms: C_10  and  C_11 
REMARK    6  A    between atoms: C_11  and  N_12 
REMARK       I    between atoms: N_12  and  C_13 
REMARK    7  A    between atoms: C_13  and  C_14 
REMARK    8  A    between atoms: C_18  and  C_19 
ROOT
HETATM    1  N   UNL     1      41.442 -10.884   4.813  1.00  0.00    -0.345 N 
HETATM    2  C   UNL     1      40.966 -11.912   5.588  1.00  0.00     0.270 C 
HETATM    3  O   UNL     1      39.991 -11.796   6.323  1.00  0.00    -0.266 OA
HETATM    4  H   UNL     1      42.273 -11.012   4.257  1.00  0.00     0.163 HD
ENDROOT
BRANCH   2   5
HETATM    5  C   UNL     1      41.679 -13.156   5.470  1.00  0.00     0.120 A 
HETATM    6  N   UNL     1      42.321 -13.710   6.541  1.00  0.00    -0.272 N 
HETATM    7  H   UNL     1      42.380 -13.325   7.479  1.00  0.00     0.189 HD
HETATM    8  N   UNL     1      42.911 -14.886   6.282  1.00  0.00    -0.174 NA
HETATM    9  C   UNL     1      42.624 -15.132   4.994  1.00  0.00     0.089 A 
HETATM   10  C   UNL     1      41.875 -14.055   4.441  1.00  0.00     0.071 A 
BRANCH   9  11
HETATM   11  C   UNL     1      43.054 -16.373   4.339  1.00  0.00    -0.005 A 
HETATM   12  C   UNL     1      43.902 -17.283   4.993  1.00  0.00     0.017 A 
HETATM   13  C   UNL     1      44.318 -18.454   4.351  1.00  0.00     0.043 A 
HETATM   14  C   UNL     1      43.888 -18.719   3.058  1.00  0.00     0.116 A 
HETATM   15  F   UNL     1      44.291 -19.840   2.446  1.00  0.00    -0.206 F 
HETATM   16  C   UNL     1      43.051 -17.837   2.389  1.00  0.00     0.043 A 
HETATM   17  C   UNL     1      42.636 -16.665   3.029  1.00  0.00     0.017 A 
ENDBRANCH   9  11
ENDBRANCH   2   5
BRANCH   1  18
HETATM   18  C   UNL     1      40.752  -9.627   4.717  1.00  0.00     0.217 C 
BRANCH  18  19
HETATM   19  C   UNL     1      41.212  -8.685   5.818  1.00  0.00    -0.085 C 
BRANCH  19  20
HETATM   20  C   UNL     1      41.604  -7.878   6.762  1.00  0.00    -0.078 C 
BRANCH  20  21
HETATM   21  C   UNL     1      42.035  -6.959   7.826  1.00  0.00     0.269 C 
BRANCH  21  22
HETATM   22  O   UNL     1      43.456  -7.010   7.936  1.00  0.00    -0.340 OA
BRANCH  22  23
HETATM   23  C   UNL     1      43.981  -7.905   8.827  1.00  0.00     0.071 A 
HETATM   24  C   UNL     1      43.289  -7.992  10.038  1.00  0.00     0.055 A 
HETATM   25  C   UNL     1      43.722  -8.869  11.032  1.00  0.00     0.013 A 
HETATM   26  C   UNL     1      44.844  -9.668  10.829  1.00  0.00     0.019 A 
HETATM   27 BR   UNL     1      42.779  -8.974  12.668  1.00  0.00    -0.051 Br
HETATM   28  C   UNL     1      45.536  -9.586   9.621  1.00  0.00     0.004 A 
HETATM   29  C   UNL     1      45.106  -8.707   8.621  1.00  0.00     0.037 A 
ENDBRANCH  22  23
ENDBRANCH  21  22
ENDBRANCH  20  21
ENDBRANCH  19  20
ENDBRANCH  18  19
ENDBRANCH   1  18
TORSDOF 8
ENDMDL
MODEL 9
REMARK VINA RESULT:      -7.6      6.057     11.964
REMARK  8 active torsions:
REMARK  status: ('A' for Active; 'I' for Inactive)
REMARK    1  A    between atoms: C_6  and  O_7 
REMARK    2  A    between atoms: O_7  and  C_8 
REMARK    3  A    between atoms: C_8  and  C_9 
REMARK    4  A    between atoms: C_9  and  C_10 
REMARK    5  A    between atoms: C_10  and  C_11 
REMARK    6  A    between atoms: C_11  and  N_12 
REMARK       I    between atoms: N_12  and  C_13 
REMARK    7  A    between atoms: C_13  and  C_14 
REMARK    8  A    between atoms: C_18  and  C_19 
ROOT
HETATM    1  N   UNL     1      40.769 -11.305   6.452  1.00  0.00    -0.345 N 
HETATM    2  C   UNL     1      40.176 -12.513   6.183  1.00  0.00     0.270 C 
HETATM    3  O   UNL     1      38.960 -12.672   6.175  1.00  0.00    -0.266 OA
HETATM    4  H   UNL     1      41.774 -11.230   6.491  1.00  0.00     0.163 HD
ENDROOT
BRANCH   2   5
HETATM    5  C   UNL     1      41.081 -13.592   5.888  1.00  0.00     0.120 A 
HETATM    6  N   UNL     1      42.039 -13.979   6.782  1.00  0.00    -0.272 N 
HETATM    7  H   UNL     1      42.223 -13.567   7.692  1.00  0.00     0.189 HD
HETATM    8  N   UNL     1      42.781 -15.019   6.378  1.00  0.00    -0.174 NA
HETATM    9  C   UNL     1      42.277 -15.351   5.179  1.00  0.00     0.089 A 
HETATM   10  C   UNL     1      41.224 -14.460   4.824  1.00  0.00     0.071 A 
BRANCH   9  11
HETATM   11  C   UNL     1      42.793 -16.497   4.423  1.00  0.00    -0.005 A 
HETATM   12  C   UNL     1      43.765 -17.351   4.971  1.00  0.00     0.017 A 
HETATM   13  C   UNL     1      44.262 -18.430   4.234  1.00  0.00     0.043 A 
HETATM   14  C   UNL     1      43.790 -18.659   2.948  1.00  0.00     0.116 A 
HETATM   15  F   UNL     1      44.271 -19.691   2.244  1.00  0.00    -0.206 F 
HETATM   16  C   UNL     1      42.831 -17.830   2.381  1.00  0.00     0.043 A 
HETATM   17  C   UNL     1      42.335 -16.750   3.117  1.00  0.00     0.017 A 
ENDBRANCH   9  11
ENDBRANCH   2   5
BRANCH   1  18
HETATM   18  C   UNL     1      39.996 -10.105   6.625  1.00  0.00     0.217 C 
BRANCH  18  19
HETATM   19  C   UNL     1      39.845  -9.781   8.103  1.00  0.00    -0.085 C 
BRANCH  19  20
HETATM   20  C   UNL     1      39.714  -9.503   9.369  1.00  0.00    -0.078 C 
BRANCH  20  21
HETATM   21  C   UNL     1      39.561  -9.203  10.800  1.00  0.00     0.269 C 
BRANCH  21  22
HETATM   22  O   UNL     1      40.669  -9.754  11.510  1.00  0.00    -0.340 OA
BRANCH  22  23
HETATM   23  C   UNL     1      41.360  -8.912  12.337  1.00  0.00     0.071 A 
HETATM   24  C   UNL     1      40.569  -8.236  13.270  1.00  0.00     0.055 A 
HETATM   25  C   UNL     1      41.153  -7.349  14.173  1.00  0.00     0.013 A 
HETATM   26  C   UNL     1      42.528  -7.128  14.158  1.00  0.00     0.019 A 
HETATM   27 BR   UNL     1      40.072  -6.437  15.428  1.00  0.00    -0.051 Br
HETATM   28  C   UNL     1      43.321  -7.802  13.230  1.00  0.00     0.004 A 
HETATM   29  C   UNL     1      42.740  -8.693  12.322  1.00  0.00     0.037 A 
ENDBRANCH  22  23
ENDBRANCH  21  22
ENDBRANCH  20  21
ENDBRANCH  19  20
ENDBRANCH  18  19
ENDBRANCH   1  18
TORSDOF 8
ENDMDL
MODEL 10
REMARK VINA RESULT:      -7.6      5.805     12.020
REMARK  8 active torsions:
REMARK  status: ('A' for Active; 'I' for Inactive)
REMARK    1  A    between atoms: C_6  and  O_7 
REMARK    2  A    between atoms: O_7  and  C_8 
REMARK    3  A    between atoms: C_8  and  C_9 
REMARK    4  A    between atoms: C_9  and  C_10 
REMARK    5  A    between atoms: C_10  and  C_11 
REMARK    6  A    between atoms: C_11  and  N_12 
REMARK       I    between atoms: N_12  and  C_13 
REMARK    7  A    between atoms: C_13  and  C_14 
REMARK    8  A    between atoms: C_18  and  C_19 
ROOT
HETATM    1  N   UNL     1      43.830 -11.990   7.704  1.00  0.00    -0.345 N 
HETATM    2  C   UNL     1      42.948 -12.363   6.721  1.00  0.00     0.270 C 
HETATM    3  O   UNL     1      42.176 -11.575   6.184  1.00  0.00    -0.266 OA
HETATM    4  H   UNL     1      44.416 -12.680   8.148  1.00  0.00     0.163 HD
ENDROOT
BRANCH   2   5
HETATM    5  C   UNL     1      42.999 -13.748   6.339  1.00  0.00     0.120 A 
HETATM    6  N   UNL     1      42.603 -14.735   7.197  1.00  0.00    -0.272 N 
HETATM    7  H   UNL     1      42.266 -14.615   8.148  1.00  0.00     0.189 HD
HETATM    8  N   UNL     1      42.677 -15.972   6.686  1.00  0.00    -0.174 NA
HETATM    9  C   UNL     1      43.114 -15.795   5.429  1.00  0.00     0.089 A 
HETATM   10  C   UNL     1      43.353 -14.412   5.182  1.00  0.00     0.071 A 
BRANCH   9  11
HETATM   11  C   UNL     1      43.275 -16.925   4.508  1.00  0.00    -0.005 A 
HETATM   12  C   UNL     1      44.025 -18.056   4.871  1.00  0.00     0.017 A 
HETATM   13  C   UNL     1      44.186 -19.120   3.978  1.00  0.00     0.043 A 
HETATM   14  C   UNL     1      43.597 -19.057   2.721  1.00  0.00     0.116 A 
HETATM   15  F   UNL     1      43.756 -20.076   1.868  1.00  0.00    -0.206 F 
HETATM   16  C   UNL     1      42.852 -17.951   2.337  1.00  0.00     0.043 A 
HETATM   17  C   UNL     1      42.693 -16.886   3.229  1.00  0.00     0.017 A 
ENDBRANCH   9  11
ENDBRANCH   2   5
BRANCH   1  18
HETATM   18  C   UNL     1      43.995 -10.615   8.091  1.00  0.00     0.217 C 
BRANCH  18  19
HETATM   19  C   UNL     1      43.675 -10.438   9.566  1.00  0.00    -0.085 C 
BRANCH  19  20
HETATM   20  C   UNL     1      43.400 -10.287  10.831  1.00  0.00    -0.078 C 
BRANCH  20  21
HETATM   21  C   UNL     1      43.099 -10.128  12.261  1.00  0.00     0.269 C 
BRANCH  21  22
HETATM   22  O   UNL     1      41.690 -10.231  12.453  1.00  0.00    -0.340 OA
BRANCH  22  23
HETATM   23  C   UNL     1      41.058  -9.160  13.023  1.00  0.00     0.071 A 
HETATM   24  C   UNL     1      41.690  -8.654  14.163  1.00  0.00     0.055 A 
HETATM   25  C   UNL     1      41.148  -7.561  14.838  1.00  0.00     0.013 A 
HETATM   26  C   UNL     1      39.975  -6.962  14.386  1.00  0.00     0.019 A 
HETATM   27 BR   UNL     1      42.010  -6.887  16.380  1.00  0.00    -0.051 Br
HETATM   28  C   UNL     1      39.343  -7.463  13.249  1.00  0.00     0.004 A 
HETATM   29  C   UNL     1      39.882  -8.559  12.568  1.00  0.00     0.037 A 
ENDBRANCH  22  23
ENDBRANCH  21  22
ENDBRANCH  20  21
ENDBRANCH  19  20
ENDBRANCH  18  19
ENDBRANCH   1  18
TORSDOF 8
ENDMDL
