MODEL 1
REMARK VINA RESULT:      -8.3      0.000      0.000
REMARK  6 active torsions:
REMARK  status: ('A' for Active; 'I' for Inactive)
REMARK    1  A    between atoms: C_4  and  C_5 
REMARK    2  A    between atoms: C_5  and  N_6 
REMARK       I    between atoms: N_6  and  C_7 
REMARK    3  A    between atoms: C_7  and  C_8 
REMARK    4  A    between atoms: C_12  and  C_13 
REMARK    5  A    between atoms: C_13  and  O_14 
REMARK    6  A    between atoms: O_14  and  C_15 
ROOT
HETATM    1  C   UNL     1      44.245 -11.771   5.516  1.00  0.00     0.146 A 
HETATM    2  N   UNL     1      44.719 -11.262   4.360  1.00  0.00    -0.169 NA
HETATM    3  N   UNL     1      43.940 -11.815   3.413  1.00  0.00    -0.279 N 
HETATM    4  H   UNL     1      44.090 -11.544   2.446  1.00  0.00     0.189 HD
HETATM    5  C   UNL     1      43.026 -12.705   3.900  1.00  0.00     0.054 A 
HETATM    6  C   UNL     1      43.180 -12.676   5.268  1.00  0.00     0.068 A 
ENDROOT
BRANCH   1   7
HETATM    7  C   UNL     1      44.794 -11.414   6.833  1.00  0.00     0.272 C 
HETATM    8  N   UNL     1      45.620 -10.320   6.826  1.00  0.00    -0.350 N 
HETATM    9  H   UNL     1      45.775  -9.831   5.948  1.00  0.00     0.163 HD
HETATM   10  O   UNL     1      44.537 -12.051   7.853  1.00  0.00    -0.266 OA
BRANCH   8  11
HETATM   11  C   UNL     1      46.213  -9.803   8.031  1.00  0.00     0.182 C 
BRANCH  11  12
HETATM   12  C   UNL     1      45.209  -9.160   8.964  1.00  0.00     0.052 A 
HETATM   13  N   UNL     1      44.444  -8.140   8.489  1.00  0.00    -0.257 NA
HETATM   14  C   UNL     1      43.549  -7.571   9.332  1.00  0.00     0.031 A 
HETATM   15  C   UNL     1      42.724  -6.439   8.797  1.00  0.00     0.070 C 
HETATM   16  C   UNL     1      43.383  -7.994  10.646  1.00  0.00     0.027 A 
HETATM   17  C   UNL     1      44.165  -9.042  11.118  1.00  0.00     0.004 A 
HETATM   18  C   UNL     1      45.090  -9.635  10.267  1.00  0.00     0.029 A 
ENDBRANCH  11  12
ENDBRANCH   8  11
ENDBRANCH   1   7
BRANCH   5  19
HETATM   19  C   UNL     1      42.112 -13.476   3.023  1.00  0.00     0.234 C 
BRANCH  19  20
HETATM   20  O   UNL     1      41.657 -14.586   3.789  1.00  0.00    -0.345 OA
BRANCH  20  21
HETATM   21  C   UNL     1      42.270 -15.787   3.549  1.00  0.00     0.072 A 
HETATM   22  C   UNL     1      42.705 -16.461   4.696  1.00  0.00     0.076 A 
HETATM   23  C   UNL     1      43.339 -17.675   4.537  1.00  0.00     0.107 A 
HETATM   24  C   UNL     1      43.537 -18.229   3.295  1.00  0.00     0.105 A 
HETATM   25  O   UNL     1      43.832 -18.454   5.537  1.00  0.00    -0.323 OA
HETATM   26  O   UNL     1      44.180 -19.425   3.357  1.00  0.00    -0.323 OA
HETATM   27  C   UNL     1      43.111 -17.600   2.147  1.00  0.00     0.042 A 
HETATM   28  C   UNL     1      44.371 -19.558   4.780  1.00  0.00     0.352 A 
HETATM   29  C   UNL     1      42.467 -16.364   2.278  1.00  0.00     0.039 A 
ENDBRANCH  20  21
ENDBRANCH  19  20
ENDBRANCH   5  19
TORSDOF 6
ENDMDL
MODEL 2
REMARK VINA RESULT:      -8.3      1.630      1.888
REMARK  6 active torsions:
REMARK  status: ('A' for Active; 'I' for Inactive)
REMARK    1  A    between atoms: C_4  and  C_5 
REMARK    2  A    between atoms: C_5  and  N_6 
REMARK       I    between atoms: N_6  and  C_7 
REMARK    3  A    between atoms: C_7  and  C_8 
REMARK    4  A    between atoms: C_12  and  C_13 
REMARK    5  A    between atoms: C_13  and  O_14 
REMARK    6  A    between atoms: O_14  and  C_15 
ROOT
HETATM    1  C   UNL     1      44.366 -11.971   6.535  1.00  0.00     0.146 A 
HETATM    2  N   UNL     1      44.004 -11.514   5.318  1.00  0.00    -0.169 NA
HETATM    3  N   UNL     1      43.297 -12.526   4.783  1.00  0.00    -0.279 N 
HETATM    4  H   UNL     1      42.883 -12.393   3.866  1.00  0.00     0.189 HD
HETATM    5  C   UNL     1      43.238 -13.638   5.575  1.00  0.00     0.054 A 
HETATM    6  C   UNL     1      43.900 -13.297   6.734  1.00  0.00     0.068 A 
ENDROOT
BRANCH   1   7
HETATM    7  C   UNL     1      45.145 -11.170   7.491  1.00  0.00     0.272 C 
HETATM    8  N   UNL     1      44.438 -10.747   8.586  1.00  0.00    -0.350 N 
HETATM    9  H   UNL     1      43.463 -11.023   8.674  1.00  0.00     0.163 HD
HETATM   10  O   UNL     1      46.332 -10.900   7.316  1.00  0.00    -0.266 OA
BRANCH   8  11
HETATM   11  C   UNL     1      45.051  -9.989   9.645  1.00  0.00     0.182 C 
BRANCH  11  12
HETATM   12  C   UNL     1      44.103  -9.676  10.782  1.00  0.00     0.052 A 
HETATM   13  N   UNL     1      43.701  -8.387  10.955  1.00  0.00    -0.257 NA
HETATM   14  C   UNL     1      42.853  -8.118  11.977  1.00  0.00     0.031 A 
HETATM   15  C   UNL     1      42.432  -6.690  12.162  1.00  0.00     0.070 C 
HETATM   16  C   UNL     1      42.379  -9.101  12.838  1.00  0.00     0.027 A 
HETATM   17  C   UNL     1      42.790 -10.415  12.646  1.00  0.00     0.004 A 
HETATM   18  C   UNL     1      43.662 -10.709  11.605  1.00  0.00     0.029 A 
ENDBRANCH  11  12
ENDBRANCH   8  11
ENDBRANCH   1   7
BRANCH   5  19
HETATM   19  C   UNL     1      42.565 -14.889   5.151  1.00  0.00     0.234 C 
BRANCH  19  20
HETATM   20  O   UNL     1      43.098 -15.221   3.873  1.00  0.00    -0.345 OA
BRANCH  20  21
HETATM   21  C   UNL     1      43.268 -16.555   3.610  1.00  0.00     0.072 A 
HETATM   22  C   UNL     1      43.604 -17.331   4.725  1.00  0.00     0.076 A 
HETATM   23  C   UNL     1      43.799 -18.683   4.543  1.00  0.00     0.107 A 
HETATM   24  C   UNL     1      43.661 -19.273   3.308  1.00  0.00     0.105 A 
HETATM   25  O   UNL     1      44.138 -19.579   5.509  1.00  0.00    -0.323 OA
HETATM   26  O   UNL     1      43.897 -20.611   3.342  1.00  0.00    -0.323 OA
HETATM   27  C   UNL     1      43.320 -18.542   2.193  1.00  0.00     0.042 A 
HETATM   28  C   UNL     1      44.207 -20.797   4.739  1.00  0.00     0.352 A 
HETATM   29  C   UNL     1      43.118 -17.165   2.349  1.00  0.00     0.039 A 
ENDBRANCH  20  21
ENDBRANCH  19  20
ENDBRANCH   5  19
TORSDOF 6
ENDMDL
MODEL 3
REMARK VINA RESULT:      -8.3      2.757      9.425
REMARK  6 active torsions:
REMARK  status: ('A' for Active; 'I' for Inactive)
REMARK    1  A    between atoms: C_4  and  C_5 
REMARK    2  A    between atoms: C_5  and  N_6 
REMARK       I    between atoms: N_6  and  C_7 
REMARK    3  A    between atoms: C_7  and  C_8 
REMARK    4  A    between atoms: C_12  and  C_13 
REMARK    5  A    between atoms: C_13  and  O_14 
REMARK    6  A    between atoms: O_14  and  C_15 
ROOT
HETATM    1  C   UNL     1      44.637 -11.306   5.829  1.00  0.00     0.146 A 
HETATM    2  N   UNL     1      45.974 -11.127   5.846  1.00  0.00    -0.169 NA
HETATM    3  N   UNL     1      46.237 -10.732   7.105  1.00  0.00    -0.279 N 
HETATM    4  H   UNL     1      47.205 -10.570   7.367  1.00  0.00     0.189 HD
HETATM    5  C   UNL     1      45.124 -10.589   7.883  1.00  0.00     0.054 A 
HETATM    6  C   UNL     1      44.070 -10.984   7.089  1.00  0.00     0.068 A 
ENDROOT
BRANCH   1   7
HETATM    7  C   UNL     1      43.906 -11.767   4.639  1.00  0.00     0.272 C 
HETATM    8  N   UNL     1      43.029 -12.794   4.874  1.00  0.00    -0.350 N 
HETATM    9  H   UNL     1      42.928 -13.142   5.824  1.00  0.00     0.163 HD
HETATM   10  O   UNL     1      44.075 -11.274   3.525  1.00  0.00    -0.266 OA
BRANCH   8  11
HETATM   11  C   UNL     1      42.199 -13.343   3.834  1.00  0.00     0.182 C 
BRANCH  11  12
HETATM   12  C   UNL     1      42.667 -14.697   3.347  1.00  0.00     0.052 A 
HETATM   13  N   UNL     1      42.944 -15.658   4.270  1.00  0.00    -0.257 NA
HETATM   14  C   UNL     1      43.363 -16.866   3.823  1.00  0.00     0.031 A 
HETATM   15  C   UNL     1      43.678 -17.909   4.854  1.00  0.00     0.070 C 
HETATM   16  C   UNL     1      43.511 -17.156   2.471  1.00  0.00     0.027 A 
HETATM   17  C   UNL     1      43.218 -16.169   1.538  1.00  0.00     0.004 A 
HETATM   18  C   UNL     1      42.789 -14.923   1.978  1.00  0.00     0.029 A 
ENDBRANCH  11  12
ENDBRANCH   8  11
ENDBRANCH   1   7
BRANCH   5  19
HETATM   19  C   UNL     1      45.182 -10.102   9.282  1.00  0.00     0.234 C 
BRANCH  19  20
HETATM   20  O   UNL     1      44.203  -9.074   9.393  1.00  0.00    -0.345 OA
BRANCH  20  21
HETATM   21  C   UNL     1      43.417  -9.097  10.515  1.00  0.00     0.072 A 
HETATM   22  C   UNL     1      42.137  -9.630  10.321  1.00  0.00     0.076 A 
HETATM   23  C   UNL     1      41.283  -9.682  11.401  1.00  0.00     0.107 A 
HETATM   24  C   UNL     1      41.663  -9.237  12.645  1.00  0.00     0.105 A 
HETATM   25  O   UNL     1      40.008 -10.156  11.388  1.00  0.00    -0.323 OA
HETATM   26  O   UNL     1      40.676  -9.374  13.570  1.00  0.00    -0.323 OA
HETATM   27  C   UNL     1      42.917  -8.719  12.874  1.00  0.00     0.042 A 
HETATM   28  C   UNL     1      39.627  -9.950  12.764  1.00  0.00     0.352 A 
HETATM   29  C   UNL     1      43.806  -8.652  11.794  1.00  0.00     0.039 A 
ENDBRANCH  20  21
ENDBRANCH  19  20
ENDBRANCH   5  19
TORSDOF 6
ENDMDL
MODEL 4
REMARK VINA RESULT:      -8.3      6.168      9.590
REMARK  6 active torsions:
REMARK  status: ('A' for Active; 'I' for Inactive)
REMARK    1  A    between atoms: C_4  and  C_5 
REMARK    2  A    between atoms: C_5  and  N_6 
REMARK       I    between atoms: N_6  and  C_7 
REMARK    3  A    between atoms: C_7  and  C_8 
REMARK    4  A    between atoms: C_12  and  C_13 
REMARK    5  A    between atoms: C_13  and  O_14 
REMARK    6  A    between atoms: O_14  and  C_15 
ROOT
HETATM    1  C   UNL     1      40.780 -15.167   2.656  1.00  0.00     0.146 A 
HETATM    2  N   UNL     1      39.750 -14.318   2.849  1.00  0.00    -0.169 NA
HETATM    3  N   UNL     1      39.422 -13.910   1.610  1.00  0.00    -0.279 N 
HETATM    4  H   UNL     1      38.633 -13.281   1.502  1.00  0.00     0.189 HD
HETATM    5  C   UNL     1      40.234 -14.409   0.631  1.00  0.00     0.054 A 
HETATM    6  C   UNL     1      41.109 -15.254   1.278  1.00  0.00     0.068 A 
ENDROOT
BRANCH   1   7
HETATM    7  C   UNL     1      41.447 -15.879   3.756  1.00  0.00     0.272 C 
HETATM    8  N   UNL     1      42.801 -16.021   3.601  1.00  0.00    -0.350 N 
HETATM    9  H   UNL     1      43.244 -15.620   2.778  1.00  0.00     0.163 HD
HETATM   10  O   UNL     1      40.836 -16.315   4.730  1.00  0.00    -0.266 OA
BRANCH   8  11
HETATM   11  C   UNL     1      43.623 -16.655   4.599  1.00  0.00     0.182 C 
BRANCH  11  12
HETATM   12  C   UNL     1      43.722 -18.154   4.428  1.00  0.00     0.052 A 
HETATM   13  N   UNL     1      43.678 -18.667   3.168  1.00  0.00    -0.257 NA
HETATM   14  C   UNL     1      43.767 -20.012   3.025  1.00  0.00     0.031 A 
HETATM   15  C   UNL     1      43.702 -20.561   1.632  1.00  0.00     0.070 C 
HETATM   16  C   UNL     1      43.908 -20.873   4.108  1.00  0.00     0.027 A 
HETATM   17  C   UNL     1      43.960 -20.337   5.389  1.00  0.00     0.004 A 
HETATM   18  C   UNL     1      43.868 -18.960   5.554  1.00  0.00     0.029 A 
ENDBRANCH  11  12
ENDBRANCH   8  11
ENDBRANCH   1   7
BRANCH   5  19
HETATM   19  C   UNL     1      40.090 -14.037  -0.797  1.00  0.00     0.234 C 
BRANCH  19  20
HETATM   20  O   UNL     1      39.319 -12.840  -0.826  1.00  0.00    -0.345 OA
BRANCH  20  21
HETATM   21  C   UNL     1      39.907 -11.749  -1.411  1.00  0.00     0.072 A 
HETATM   22  C   UNL     1      40.873 -11.113  -0.622  1.00  0.00     0.076 A 
HETATM   23  C   UNL     1      41.506 -10.003  -1.138  1.00  0.00     0.107 A 
HETATM   24  C   UNL     1      41.217  -9.524  -2.394  1.00  0.00     0.105 A 
HETATM   25  O   UNL     1      42.457  -9.262  -0.508  1.00  0.00    -0.323 OA
HETATM   26  O   UNL     1      41.948  -8.423  -2.711  1.00  0.00    -0.323 OA
HETATM   27  C   UNL     1      40.282 -10.132  -3.201  1.00  0.00     0.042 A 
HETATM   28  C   UNL     1      42.726  -8.257  -1.508  1.00  0.00     0.352 A 
HETATM   29  C   UNL     1      39.621 -11.261  -2.701  1.00  0.00     0.039 A 
ENDBRANCH  20  21
ENDBRANCH  19  20
ENDBRANCH   5  19
TORSDOF 6
ENDMDL
MODEL 5
REMARK VINA RESULT:      -8.2      2.362      3.785
REMARK  6 active torsions:
REMARK  status: ('A' for Active; 'I' for Inactive)
REMARK    1  A    between atoms: C_4  and  C_5 
REMARK    2  A    between atoms: C_5  and  N_6 
REMARK       I    between atoms: N_6  and  C_7 
REMARK    3  A    between atoms: C_7  and  C_8 
REMARK    4  A    between atoms: C_12  and  C_13 
REMARK    5  A    between atoms: C_13  and  O_14 
REMARK    6  A    between atoms: O_14  and  C_15 
ROOT
HETATM    1  C   UNL     1      39.978 -12.752   4.088  1.00  0.00     0.146 A 
HETATM    2  N   UNL     1      38.936 -12.769   3.232  1.00  0.00    -0.169 NA
HETATM    3  N   UNL     1      39.118 -13.891   2.512  1.00  0.00    -0.279 N 
HETATM    4  H   UNL     1      38.421 -14.136   1.816  1.00  0.00     0.189 HD
HETATM    5  C   UNL     1      40.264 -14.566   2.824  1.00  0.00     0.054 A 
HETATM    6  C   UNL     1      40.830 -13.866   3.865  1.00  0.00     0.068 A 
ENDROOT
BRANCH   1   7
HETATM    7  C   UNL     1      40.171 -11.698   5.095  1.00  0.00     0.272 C 
HETATM    8  N   UNL     1      41.433 -11.644   5.625  1.00  0.00    -0.350 N 
HETATM    9  H   UNL     1      42.135 -12.297   5.285  1.00  0.00     0.163 HD
HETATM   10  O   UNL     1      39.269 -10.933   5.434  1.00  0.00    -0.266 OA
BRANCH   8  11
HETATM   11  C   UNL     1      41.814 -10.648   6.593  1.00  0.00     0.182 C 
BRANCH  11  12
HETATM   12  C   UNL     1      43.280 -10.703   6.963  1.00  0.00     0.052 A 
HETATM   13  N   UNL     1      43.662 -10.212   8.173  1.00  0.00    -0.257 NA
HETATM   14  C   UNL     1      44.977 -10.266   8.494  1.00  0.00     0.031 A 
HETATM   15  C   UNL     1      45.383  -9.707   9.825  1.00  0.00     0.070 C 
HETATM   16  C   UNL     1      45.936 -10.805   7.643  1.00  0.00     0.027 A 
HETATM   17  C   UNL     1      45.532 -11.311   6.413  1.00  0.00     0.004 A 
HETATM   18  C   UNL     1      44.187 -11.262   6.066  1.00  0.00     0.029 A 
ENDBRANCH  11  12
ENDBRANCH   8  11
ENDBRANCH   1   7
BRANCH   5  19
HETATM   19  C   UNL     1      40.690 -15.793   2.107  1.00  0.00     0.234 C 
BRANCH  19  20
HETATM   20  O   UNL     1      42.114 -15.785   2.105  1.00  0.00    -0.345 OA
BRANCH  20  21
HETATM   21  C   UNL     1      42.731 -16.769   2.831  1.00  0.00     0.072 A 
HETATM   22  C   UNL     1      42.715 -18.034   2.232  1.00  0.00     0.076 A 
HETATM   23  C   UNL     1      43.310 -19.080   2.903  1.00  0.00     0.107 A 
HETATM   24  C   UNL     1      43.917 -18.904   4.124  1.00  0.00     0.105 A 
HETATM   25  O   UNL     1      43.376 -20.369   2.474  1.00  0.00    -0.323 OA
HETATM   26  O   UNL     1      44.440 -20.057   4.616  1.00  0.00    -0.323 OA
HETATM   27  C   UNL     1      43.963 -17.671   4.736  1.00  0.00     0.042 A 
HETATM   28  C   UNL     1      44.086 -20.984   3.569  1.00  0.00     0.352 A 
HETATM   29  C   UNL     1      43.363 -16.590   4.078  1.00  0.00     0.039 A 
ENDBRANCH  20  21
ENDBRANCH  19  20
ENDBRANCH   5  19
TORSDOF 6
ENDMDL
MODEL 6
REMARK VINA RESULT:      -8.0      2.751      9.785
REMARK  6 active torsions:
REMARK  status: ('A' for Active; 'I' for Inactive)
REMARK    1  A    between atoms: C_4  and  C_5 
REMARK    2  A    between atoms: C_5  and  N_6 
REMARK       I    between atoms: N_6  and  C_7 
REMARK    3  A    between atoms: C_7  and  C_8 
REMARK    4  A    between atoms: C_12  and  C_13 
REMARK    5  A    between atoms: C_13  and  O_14 
REMARK    6  A    between atoms: O_14  and  C_15 
ROOT
HETATM    1  C   UNL     1      42.282 -13.061   5.800  1.00  0.00     0.146 A 
HETATM    2  N   UNL     1      41.543 -11.985   6.137  1.00  0.00    -0.169 NA
HETATM    3  N   UNL     1      42.398 -11.196   6.812  1.00  0.00    -0.279 N 
HETATM    4  H   UNL     1      42.066 -10.293   7.138  1.00  0.00     0.189 HD
HETATM    5  C   UNL     1      43.639 -11.742   6.978  1.00  0.00     0.054 A 
HETATM    6  C   UNL     1      43.603 -12.943   6.306  1.00  0.00     0.068 A 
ENDROOT
BRANCH   1   7
HETATM    7  C   UNL     1      41.748 -14.187   5.019  1.00  0.00     0.272 C 
HETATM    8  N   UNL     1      42.509 -14.536   3.933  1.00  0.00    -0.350 N 
HETATM    9  H   UNL     1      43.372 -14.028   3.757  1.00  0.00     0.163 HD
HETATM   10  O   UNL     1      40.702 -14.762   5.315  1.00  0.00    -0.266 OA
BRANCH   8  11
HETATM   11  C   UNL     1      42.161 -15.642   3.080  1.00  0.00     0.182 C 
BRANCH  11  12
HETATM   12  C   UNL     1      42.913 -16.912   3.411  1.00  0.00     0.052 A 
HETATM   13  N   UNL     1      42.853 -17.949   2.531  1.00  0.00    -0.257 NA
HETATM   14  C   UNL     1      43.530 -19.082   2.837  1.00  0.00     0.031 A 
HETATM   15  C   UNL     1      43.442 -20.220   1.864  1.00  0.00     0.070 C 
HETATM   16  C   UNL     1      44.279 -19.217   4.000  1.00  0.00     0.027 A 
HETATM   17  C   UNL     1      44.339 -18.149   4.888  1.00  0.00     0.004 A 
HETATM   18  C   UNL     1      43.649 -16.980   4.591  1.00  0.00     0.029 A 
ENDBRANCH  11  12
ENDBRANCH   8  11
ENDBRANCH   1   7
BRANCH   5  19
HETATM   19  C   UNL     1      44.713 -11.068   7.748  1.00  0.00     0.234 C 
BRANCH  19  20
HETATM   20  O   UNL     1      44.463 -11.351   9.121  1.00  0.00    -0.345 OA
BRANCH  20  21
HETATM   21  C   UNL     1      44.014 -10.307   9.887  1.00  0.00     0.072 A 
HETATM   22  C   UNL     1      43.571 -10.669  11.165  1.00  0.00     0.076 A 
HETATM   23  C   UNL     1      43.097  -9.677  11.995  1.00  0.00     0.107 A 
HETATM   24  C   UNL     1      43.062  -8.360  11.601  1.00  0.00     0.105 A 
HETATM   25  O   UNL     1      42.621  -9.851  13.257  1.00  0.00    -0.323 OA
HETATM   26  O   UNL     1      42.559  -7.542  12.563  1.00  0.00    -0.323 OA
HETATM   27  C   UNL     1      43.501  -7.967  10.356  1.00  0.00     0.042 A 
HETATM   28  C   UNL     1      42.274  -8.496  13.607  1.00  0.00     0.352 A 
HETATM   29  C   UNL     1      43.986  -8.956   9.491  1.00  0.00     0.039 A 
ENDBRANCH  20  21
ENDBRANCH  19  20
ENDBRANCH   5  19
TORSDOF 6
ENDMDL
MODEL 7
REMARK VINA RESULT:      -8.0      2.620      3.181
REMARK  6 active torsions:
REMARK  status: ('A' for Active; 'I' for Inactive)
REMARK    1  A    between atoms: C_4  and  C_5 
REMARK    2  A    between atoms: C_5  and  N_6 
REMARK       I    between atoms: N_6  and  C_7 
REMARK    3  A    between atoms: C_7  and  C_8 
REMARK    4  A    between atoms: C_12  and  C_13 
REMARK    5  A    between atoms: C_13  and  O_14 
REMARK    6  A    between atoms: O_14  and  C_15 
ROOT
HETATM    1  C   UNL     1      40.066 -12.105   6.097  1.00  0.00     0.146 A 
HETATM    2  N   UNL     1      39.362 -13.253   6.022  1.00  0.00    -0.169 NA
HETATM    3  N   UNL     1      39.962 -13.944   5.036  1.00  0.00    -0.279 N 
HETATM    4  H   UNL     1      39.619 -14.875   4.822  1.00  0.00     0.189 HD
HETATM    5  C   UNL     1      40.981 -13.267   4.429  1.00  0.00     0.054 A 
HETATM    6  C   UNL     1      41.093 -12.080   5.117  1.00  0.00     0.068 A 
ENDROOT
BRANCH   1   7
HETATM    7  C   UNL     1      39.770 -11.045   7.073  1.00  0.00     0.272 C 
HETATM    8  N   UNL     1      40.860 -10.313   7.464  1.00  0.00    -0.350 N 
HETATM    9  H   UNL     1      41.766 -10.526   7.052  1.00  0.00     0.163 HD
HETATM   10  O   UNL     1      38.637 -10.840   7.504  1.00  0.00    -0.266 OA
BRANCH   8  11
HETATM   11  C   UNL     1      40.750  -9.208   8.381  1.00  0.00     0.182 C 
BRANCH  11  12
HETATM   12  C   UNL     1      41.665  -9.333   9.579  1.00  0.00     0.052 A 
HETATM   13  N   UNL     1      43.003  -9.457   9.363  1.00  0.00    -0.257 NA
HETATM   14  C   UNL     1      43.813  -9.568  10.444  1.00  0.00     0.031 A 
HETATM   15  C   UNL     1      45.283  -9.719  10.188  1.00  0.00     0.070 C 
HETATM   16  C   UNL     1      43.331  -9.553  11.748  1.00  0.00     0.027 A 
HETATM   17  C   UNL     1      41.964  -9.417  11.956  1.00  0.00     0.004 A 
HETATM   18  C   UNL     1      41.117  -9.304  10.859  1.00  0.00     0.029 A 
ENDBRANCH  11  12
ENDBRANCH   8  11
ENDBRANCH   1   7
BRANCH   5  19
HETATM   19  C   UNL     1      41.734 -13.819   3.276  1.00  0.00     0.234 C 
BRANCH  19  20
HETATM   20  O   UNL     1      42.935 -14.371   3.805  1.00  0.00    -0.345 OA
BRANCH  20  21
HETATM   21  C   UNL     1      43.162 -15.697   3.548  1.00  0.00     0.072 A 
HETATM   22  C   UNL     1      43.503 -16.460   4.671  1.00  0.00     0.076 A 
HETATM   23  C   UNL     1      43.754 -17.804   4.494  1.00  0.00     0.107 A 
HETATM   24  C   UNL     1      43.667 -18.398   3.257  1.00  0.00     0.105 A 
HETATM   25  O   UNL     1      44.106 -18.686   5.468  1.00  0.00    -0.323 OA
HETATM   26  O   UNL     1      43.954 -19.726   3.297  1.00  0.00    -0.323 OA
HETATM   27  C   UNL     1      43.323 -17.681   2.134  1.00  0.00     0.042 A 
HETATM   28  C   UNL     1      44.239 -19.900   4.701  1.00  0.00     0.352 A 
HETATM   29  C   UNL     1      43.065 -16.313   2.284  1.00  0.00     0.039 A 
ENDBRANCH  20  21
ENDBRANCH  19  20
ENDBRANCH   5  19
TORSDOF 6
ENDMDL
MODEL 8
REMARK VINA RESULT:      -7.6      4.433      8.349
REMARK  6 active torsions:
REMARK  status: ('A' for Active; 'I' for Inactive)
REMARK    1  A    between atoms: C_4  and  C_5 
REMARK    2  A    between atoms: C_5  and  N_6 
REMARK       I    between atoms: N_6  and  C_7 
REMARK    3  A    between atoms: C_7  and  C_8 
REMARK    4  A    between atoms: C_12  and  C_13 
REMARK    5  A    between atoms: C_13  and  O_14 
REMARK    6  A    between atoms: O_14  and  C_15 
ROOT
HETATM    1  C   UNL     1      42.495 -12.859   4.583  1.00  0.00     0.146 A 
HETATM    2  N   UNL     1      41.870 -11.761   5.055  1.00  0.00    -0.169 NA
HETATM    3  N   UNL     1      41.549 -11.063   3.951  1.00  0.00    -0.279 N 
HETATM    4  H   UNL     1      41.027 -10.199   4.061  1.00  0.00     0.189 HD
HETATM    5  C   UNL     1      41.993 -11.631   2.791  1.00  0.00     0.054 A 
HETATM    6  C   UNL     1      42.587 -12.815   3.167  1.00  0.00     0.068 A 
ENDROOT
BRANCH   1   7
HETATM    7  C   UNL     1      43.004 -13.928   5.454  1.00  0.00     0.272 C 
HETATM    8  N   UNL     1      43.205 -15.128   4.822  1.00  0.00    -0.350 N 
HETATM    9  H   UNL     1      43.017 -15.192   3.825  1.00  0.00     0.163 HD
HETATM   10  O   UNL     1      43.225 -13.758   6.652  1.00  0.00    -0.266 OA
BRANCH   8  11
HETATM   11  C   UNL     1      43.739 -16.274   5.511  1.00  0.00     0.182 C 
BRANCH  11  12
HETATM   12  C   UNL     1      43.748 -17.528   4.665  1.00  0.00     0.052 A 
HETATM   13  N   UNL     1      44.039 -18.714   5.267  1.00  0.00    -0.257 NA
HETATM   14  C   UNL     1      44.044 -19.831   4.500  1.00  0.00     0.031 A 
HETATM   15  C   UNL     1      44.381 -21.127   5.176  1.00  0.00     0.070 C 
HETATM   16  C   UNL     1      43.761 -19.809   3.139  1.00  0.00     0.027 A 
HETATM   17  C   UNL     1      43.457 -18.593   2.537  1.00  0.00     0.004 A 
HETATM   18  C   UNL     1      43.449 -17.436   3.308  1.00  0.00     0.029 A 
ENDBRANCH  11  12
ENDBRANCH   8  11
ENDBRANCH   1   7
BRANCH   5  19
HETATM   19  C   UNL     1      41.804 -10.995   1.464  1.00  0.00     0.234 C 
BRANCH  19  20
HETATM   20  O   UNL     1      40.434 -11.178   1.121  1.00  0.00    -0.345 OA
BRANCH  20  21
HETATM   21  C   UNL     1      40.181 -11.719  -0.112  1.00  0.00     0.072 A 
HETATM   22  C   UNL     1      39.734 -13.045  -0.088  1.00  0.00     0.076 A 
HETATM   23  C   UNL     1      39.463 -13.664  -1.290  1.00  0.00     0.107 A 
HETATM   24  C   UNL     1      39.613 -13.009  -2.489  1.00  0.00     0.105 A 
HETATM   25  O   UNL     1      39.033 -14.944  -1.449  1.00  0.00    -0.323 OA
HETATM   26  O   UNL     1      39.297 -13.794  -3.553  1.00  0.00    -0.323 OA
HETATM   27  C   UNL     1      40.039 -11.701  -2.549  1.00  0.00     0.042 A 
HETATM   28  C   UNL     1      38.938 -15.022  -2.887  1.00  0.00     0.352 A 
HETATM   29  C   UNL     1      40.324 -11.049  -1.343  1.00  0.00     0.039 A 
ENDBRANCH  20  21
ENDBRANCH  19  20
ENDBRANCH   5  19
TORSDOF 6
ENDMDL
MODEL 9
REMARK VINA RESULT:      -7.4      2.256      3.358
REMARK  6 active torsions:
REMARK  status: ('A' for Active; 'I' for Inactive)
REMARK    1  A    between atoms: C_4  and  C_5 
REMARK    2  A    between atoms: C_5  and  N_6 
REMARK       I    between atoms: N_6  and  C_7 
REMARK    3  A    between atoms: C_7  and  C_8 
REMARK    4  A    between atoms: C_12  and  C_13 
REMARK    5  A    between atoms: C_13  and  O_14 
REMARK    6  A    between atoms: O_14  and  C_15 
ROOT
HETATM    1  C   UNL     1      44.236 -10.324   7.525  1.00  0.00     0.146 A 
HETATM    2  N   UNL     1      45.448 -10.861   7.275  1.00  0.00    -0.169 NA
HETATM    3  N   UNL     1      45.180 -11.942   6.520  1.00  0.00    -0.279 N 
HETATM    4  H   UNL     1      45.959 -12.493   6.173  1.00  0.00     0.189 HD
HETATM    5  C   UNL     1      43.846 -12.161   6.323  1.00  0.00     0.054 A 
HETATM    6  C   UNL     1      43.208 -11.109   6.941  1.00  0.00     0.068 A 
ENDROOT
BRANCH   1   7
HETATM    7  C   UNL     1      44.052  -9.095   8.310  1.00  0.00     0.272 C 
HETATM    8  N   UNL     1      42.888  -9.052   9.033  1.00  0.00    -0.350 N 
HETATM    9  H   UNL     1      42.262  -9.853   8.999  1.00  0.00     0.163 HD
HETATM   10  O   UNL     1      44.874  -8.180   8.311  1.00  0.00    -0.266 OA
BRANCH   8  11
HETATM   11  C   UNL     1      42.562  -7.943   9.891  1.00  0.00     0.182 C 
BRANCH  11  12
HETATM   12  C   UNL     1      42.357  -8.344  11.335  1.00  0.00     0.052 A 
HETATM   13  N   UNL     1      42.785  -7.497  12.311  1.00  0.00    -0.257 NA
HETATM   14  C   UNL     1      42.597  -7.867  13.601  1.00  0.00     0.031 A 
HETATM   15  C   UNL     1      43.088  -6.929  14.663  1.00  0.00     0.070 C 
HETATM   16  C   UNL     1      41.984  -9.063  13.957  1.00  0.00     0.027 A 
HETATM   17  C   UNL     1      41.544  -9.916  12.952  1.00  0.00     0.004 A 
HETATM   18  C   UNL     1      41.730  -9.554  11.623  1.00  0.00     0.029 A 
ENDBRANCH  11  12
ENDBRANCH   8  11
ENDBRANCH   1   7
BRANCH   5  19
HETATM   19  C   UNL     1      43.329 -13.332   5.575  1.00  0.00     0.234 C 
BRANCH  19  20
HETATM   20  O   UNL     1      43.639 -14.481   6.358  1.00  0.00    -0.345 OA
BRANCH  20  21
HETATM   21  C   UNL     1      43.676 -15.680   5.696  1.00  0.00     0.072 A 
HETATM   22  C   UNL     1      43.172 -15.641   4.391  1.00  0.00     0.076 A 
HETATM   23  C   UNL     1      43.168 -16.810   3.660  1.00  0.00     0.107 A 
HETATM   24  C   UNL     1      43.651 -17.988   4.178  1.00  0.00     0.105 A 
HETATM   25  O   UNL     1      42.708 -16.954   2.387  1.00  0.00    -0.323 OA
HETATM   26  O   UNL     1      43.555 -19.020   3.299  1.00  0.00    -0.323 OA
HETATM   27  C   UNL     1      44.165 -18.059   5.453  1.00  0.00     0.042 A 
HETATM   28  C   UNL     1      42.949 -18.359   2.169  1.00  0.00     0.352 A 
HETATM   29  C   UNL     1      44.179 -16.887   6.219  1.00  0.00     0.039 A 
ENDBRANCH  20  21
ENDBRANCH  19  20
ENDBRANCH   5  19
TORSDOF 6
ENDMDL
MODEL 10
REMARK VINA RESULT:      -7.3      2.601      3.281
REMARK  6 active torsions:
REMARK  status: ('A' for Active; 'I' for Inactive)
REMARK    1  A    between atoms: C_4  and  C_5 
REMARK    2  A    between atoms: C_5  and  N_6 
REMARK       I    between atoms: N_6  and  C_7 
REMARK    3  A    between atoms: C_7  and  C_8 
REMARK    4  A    between atoms: C_12  and  C_13 
REMARK    5  A    between atoms: C_13  and  O_14 
REMARK    6  A    between atoms: O_14  and  C_15 
ROOT
HETATM    1  C   UNL     1      40.769 -11.762   6.057  1.00  0.00     0.146 A 
HETATM    2  N   UNL     1      39.588 -12.410   6.126  1.00  0.00    -0.169 NA
HETATM    3  N   UNL     1      39.843 -13.618   5.591  1.00  0.00    -0.279 N 
HETATM    4  H   UNL     1      39.095 -14.304   5.571  1.00  0.00     0.189 HD
HETATM    5  C   UNL     1      41.120 -13.757   5.125  1.00  0.00     0.054 A 
HETATM    6  C   UNL     1      41.755 -12.576   5.440  1.00  0.00     0.068 A 
ENDROOT
BRANCH   1   7
HETATM    7  C   UNL     1      40.962 -10.393   6.559  1.00  0.00     0.272 C 
HETATM    8  N   UNL     1      40.808 -10.259   7.914  1.00  0.00    -0.350 N 
HETATM    9  H   UNL     1      40.600 -11.087   8.467  1.00  0.00     0.163 HD
HETATM   10  O   UNL     1      41.234  -9.449   5.820  1.00  0.00    -0.266 OA
BRANCH   8  11
HETATM   11  C   UNL     1      41.001  -8.999   8.584  1.00  0.00     0.182 C 
BRANCH  11  12
HETATM   12  C   UNL     1      42.192  -8.994   9.517  1.00  0.00     0.052 A 
HETATM   13  N   UNL     1      42.041  -8.459  10.759  1.00  0.00    -0.257 NA
HETATM   14  C   UNL     1      43.115  -8.460  11.586  1.00  0.00     0.031 A 
HETATM   15  C   UNL     1      42.935  -7.853  12.945  1.00  0.00     0.070 C 
HETATM   16  C   UNL     1      44.346  -8.988  11.216  1.00  0.00     0.027 A 
HETATM   17  C   UNL     1      44.486  -9.540   9.948  1.00  0.00     0.004 A 
HETATM   18  C   UNL     1      43.396  -9.545   9.085  1.00  0.00     0.029 A 
ENDBRANCH  11  12
ENDBRANCH   8  11
ENDBRANCH   1   7
BRANCH   5  19
HETATM   19  C   UNL     1      41.593 -14.984   4.441  1.00  0.00     0.234 C 
BRANCH  19  20
HETATM   20  O   UNL     1      42.470 -15.641   5.351  1.00  0.00    -0.345 OA
BRANCH  20  21
HETATM   21  C   UNL     1      42.949 -16.864   4.962  1.00  0.00     0.072 A 
HETATM   22  C   UNL     1      42.689 -17.196   3.628  1.00  0.00     0.076 A 
HETATM   23  C   UNL     1      43.134 -18.413   3.160  1.00  0.00     0.107 A 
HETATM   24  C   UNL     1      43.825 -19.288   3.966  1.00  0.00     0.105 A 
HETATM   25  O   UNL     1      42.960 -18.898   1.901  1.00  0.00    -0.323 OA
HETATM   26  O   UNL     1      44.171 -20.430   3.316  1.00  0.00    -0.323 OA
HETATM   27  C   UNL     1      44.109 -18.988   5.279  1.00  0.00     0.042 A 
HETATM   28  C   UNL     1      43.613 -20.179   2.010  1.00  0.00     0.352 A 
HETATM   29  C   UNL     1      43.666 -17.758   5.781  1.00  0.00     0.039 A 
ENDBRANCH  20  21
ENDBRANCH  19  20
ENDBRANCH   5  19
TORSDOF 6
ENDMDL
