MODEL 1
REMARK VINA RESULT:      -7.6      0.000      0.000
REMARK  6 active torsions:
REMARK  status: ('A' for Active; 'I' for Inactive)
REMARK    1  A    between atoms: C_2  and  N_3 
REMARK    2  A    between atoms: C_2  and  C_18 
REMARK    3  A    between atoms: N_3  and  C_6 
REMARK    4  A    between atoms: C_6  and  C_7 
REMARK    5  A    between atoms: C_10  and  N_11 
REMARK       I    between atoms: N_11  and  C_12 
REMARK    6  A    between atoms: C_12  and  O_13 
ROOT
HETATM    1  N   UNL     1      41.535 -14.838   5.291  1.00  0.00    -0.063 N 
HETATM    2  H   UNL     1      41.024 -15.674   4.979  1.00  0.00     0.278 HD
HETATM    3  H   UNL     1      41.377 -14.800   6.304  1.00  0.00     0.278 HD
ENDROOT
BRANCH   1   4
HETATM    4  C   UNL     1      42.995 -15.045   5.008  1.00  0.00     0.216 C 
HETATM    5  C   UNL     1      43.807 -14.911   6.296  1.00  0.00     0.045 C 
BRANCH   4   6
HETATM    6  C   UNL     1      43.217 -16.383   4.346  1.00  0.00    -0.009 A 
HETATM    7  C   UNL     1      43.110 -16.508   2.964  1.00  0.00     0.126 A 
HETATM    8  N   UNL     1      43.274 -17.644   2.264  1.00  0.00    -0.259 NA
HETATM    9  C   UNL     1      43.591 -18.752   2.983  1.00  0.00     0.074 A 
HETATM   10  C   UNL     1      43.727 -18.732   4.370  1.00  0.00     0.034 A 
HETATM   11  C   UNL     1      43.826 -20.050   2.443  1.00  0.00     0.040 A 
HETATM   12  S   UNL     1      44.132 -20.287   4.979  1.00  0.00    -0.100 SA
HETATM   13  C   UNL     1      43.536 -17.535   5.079  1.00  0.00     0.032 A 
HETATM   14  C   UNL     1      44.131 -20.976   3.415  1.00  0.00     0.053 A 
ENDBRANCH   4   6
ENDBRANCH   1   4
BRANCH   1  15
HETATM   15  C   UNL     1      40.885 -13.655   4.656  1.00  0.00     0.271 C 
BRANCH  15  16
HETATM   16  C   UNL     1      40.786 -13.825   3.166  1.00  0.00    -0.033 A 
HETATM   17  C   UNL     1      40.071 -14.895   2.612  1.00  0.00     0.011 A 
HETATM   18  C   UNL     1      39.993 -15.065   1.222  1.00  0.00     0.030 A 
HETATM   19  C   UNL     1      40.619 -14.169   0.358  1.00  0.00     0.036 A 
HETATM   20  C   UNL     1      41.323 -13.093   0.914  1.00  0.00     0.030 A 
HETATM   21  C   UNL     1      41.413 -12.922   2.300  1.00  0.00     0.011 A 
BRANCH  19  22
HETATM   22  N   UNL     1      40.591 -14.246  -1.043  1.00  0.00    -0.303 N 
HETATM   23  C   UNL     1      39.659 -13.869  -1.974  1.00  0.00     0.364 C 
HETATM   24  O   UNL     1      39.891 -14.021  -3.169  1.00  0.00    -0.238 OA
HETATM   25  H   UNL     1      41.393 -14.660  -1.503  1.00  0.00     0.171 HD
BRANCH  23  26
HETATM   26  O   UNL     1      38.503 -13.362  -1.480  1.00  0.00    -0.309 OA
HETATM   27  C   UNL     1      37.470 -13.209  -2.456  1.00  0.00     0.215 C 
ENDBRANCH  23  26
ENDBRANCH  19  22
ENDBRANCH  15  16
ENDBRANCH   1  15
TORSDOF 6
ENDMDL
MODEL 2
REMARK VINA RESULT:      -7.5      1.160      1.464
REMARK  6 active torsions:
REMARK  status: ('A' for Active; 'I' for Inactive)
REMARK    1  A    between atoms: C_2  and  N_3 
REMARK    2  A    between atoms: C_2  and  C_18 
REMARK    3  A    between atoms: N_3  and  C_6 
REMARK    4  A    between atoms: C_6  and  C_7 
REMARK    5  A    between atoms: C_10  and  N_11 
REMARK       I    between atoms: N_11  and  C_12 
REMARK    6  A    between atoms: C_12  and  O_13 
ROOT
HETATM    1  N   UNL     1      41.296 -14.824   5.511  1.00  0.00    -0.063 N 
HETATM    2  H   UNL     1      40.811 -15.677   5.202  1.00  0.00     0.278 HD
HETATM    3  H   UNL     1      41.108 -14.768   6.518  1.00  0.00     0.278 HD
ENDROOT
BRANCH   1   4
HETATM    4  C   UNL     1      42.767 -15.006   5.274  1.00  0.00     0.216 C 
HETATM    5  C   UNL     1      43.569 -14.316   6.377  1.00  0.00     0.045 C 
BRANCH   4   6
HETATM    6  C   UNL     1      43.106 -16.474   5.174  1.00  0.00    -0.009 A 
HETATM    7  C   UNL     1      43.305 -17.227   6.327  1.00  0.00     0.126 A 
HETATM    8  N   UNL     1      43.620 -18.534   6.365  1.00  0.00    -0.259 NA
HETATM    9  C   UNL     1      43.731 -19.161   5.165  1.00  0.00     0.074 A 
HETATM   10  C   UNL     1      43.547 -18.497   3.953  1.00  0.00     0.034 A 
HETATM   11  C   UNL     1      44.038 -20.539   4.977  1.00  0.00     0.040 A 
HETATM   12  S   UNL     1      43.755 -19.563   2.622  1.00  0.00    -0.100 SA
HETATM   13  C   UNL     1      43.231 -17.129   3.941  1.00  0.00     0.032 A 
HETATM   14  C   UNL     1      44.081 -20.892   3.647  1.00  0.00     0.053 A 
ENDBRANCH   4   6
ENDBRANCH   1   4
BRANCH   1  15
HETATM   15  C   UNL     1      40.641 -13.668   4.832  1.00  0.00     0.271 C 
BRANCH  15  16
HETATM   16  C   UNL     1      40.658 -13.834   3.339  1.00  0.00    -0.033 A 
HETATM   17  C   UNL     1      40.066 -14.952   2.735  1.00  0.00     0.011 A 
HETATM   18  C   UNL     1      40.097 -15.117   1.343  1.00  0.00     0.030 A 
HETATM   19  C   UNL     1      40.712 -14.170   0.525  1.00  0.00     0.036 A 
HETATM   20  C   UNL     1      41.291 -13.048   1.131  1.00  0.00     0.030 A 
HETATM   21  C   UNL     1      41.273 -12.881   2.520  1.00  0.00     0.011 A 
BRANCH  19  22
HETATM   22  N   UNL     1      40.786 -14.240  -0.875  1.00  0.00    -0.303 N 
HETATM   23  C   UNL     1      39.904 -13.903  -1.867  1.00  0.00     0.364 C 
HETATM   24  O   UNL     1      40.227 -14.036  -3.044  1.00  0.00    -0.238 OA
HETATM   25  H   UNL     1      41.639 -14.610  -1.278  1.00  0.00     0.171 HD
BRANCH  23  26
HETATM   26  O   UNL     1      38.692 -13.458  -1.454  1.00  0.00    -0.309 OA
HETATM   27  C   UNL     1      37.703 -13.421  -2.486  1.00  0.00     0.215 C 
ENDBRANCH  23  26
ENDBRANCH  19  22
ENDBRANCH  15  16
ENDBRANCH   1  15
TORSDOF 6
ENDMDL
MODEL 3
REMARK VINA RESULT:      -7.4      5.112      7.878
REMARK  6 active torsions:
REMARK  status: ('A' for Active; 'I' for Inactive)
REMARK    1  A    between atoms: C_2  and  N_3 
REMARK    2  A    between atoms: C_2  and  C_18 
REMARK    3  A    between atoms: N_3  and  C_6 
REMARK    4  A    between atoms: C_6  and  C_7 
REMARK    5  A    between atoms: C_10  and  N_11 
REMARK       I    between atoms: N_11  and  C_12 
REMARK    6  A    between atoms: C_12  and  O_13 
ROOT
HETATM    1  N   UNL     1      43.220 -12.768   4.837  1.00  0.00    -0.063 N 
HETATM    2  H   UNL     1      44.073 -13.327   4.696  1.00  0.00     0.278 HD
HETATM    3  H   UNL     1      42.844 -13.092   5.735  1.00  0.00     0.278 HD
ENDROOT
BRANCH   1   4
HETATM    4  C   UNL     1      43.613 -11.323   4.936  1.00  0.00     0.216 C 
HETATM    5  C   UNL     1      42.492 -10.433   4.399  1.00  0.00     0.045 C 
BRANCH   4   6
HETATM    6  C   UNL     1      43.970 -10.972   6.360  1.00  0.00    -0.009 A 
HETATM    7  C   UNL     1      45.203 -11.345   6.886  1.00  0.00     0.126 A 
HETATM    8  N   UNL     1      45.628 -11.100   8.138  1.00  0.00    -0.259 NA
HETATM    9  C   UNL     1      44.774 -10.410   8.938  1.00  0.00     0.074 A 
HETATM   10  C   UNL     1      43.519  -9.987   8.506  1.00  0.00     0.034 A 
HETATM   11  C   UNL     1      45.030 -10.029  10.287  1.00  0.00     0.040 A 
HETATM   12  S   UNL     1      42.684  -9.143   9.748  1.00  0.00    -0.100 SA
HETATM   13  C   UNL     1      43.093 -10.268   7.197  1.00  0.00     0.032 A 
HETATM   14  C   UNL     1      43.980  -9.335  10.845  1.00  0.00     0.053 A 
ENDBRANCH   4   6
ENDBRANCH   1   4
BRANCH   1  15
HETATM   15  C   UNL     1      42.263 -13.135   3.753  1.00  0.00     0.271 C 
BRANCH  15  16
HETATM   16  C   UNL     1      42.460 -14.558   3.312  1.00  0.00    -0.033 A 
HETATM   17  C   UNL     1      43.246 -14.859   2.192  1.00  0.00     0.011 A 
HETATM   18  C   UNL     1      43.416 -16.186   1.769  1.00  0.00     0.030 A 
HETATM   19  C   UNL     1      42.812 -17.237   2.457  1.00  0.00     0.036 A 
HETATM   20  C   UNL     1      42.038 -16.934   3.584  1.00  0.00     0.030 A 
HETATM   21  C   UNL     1      41.856 -15.612   4.007  1.00  0.00     0.011 A 
BRANCH  19  22
HETATM   22  N   UNL     1      42.930 -18.594   2.120  1.00  0.00    -0.303 N 
HETATM   23  C   UNL     1      43.657 -19.623   2.658  1.00  0.00     0.364 C 
HETATM   24  O   UNL     1      43.562 -20.752   2.188  1.00  0.00    -0.238 OA
HETATM   25  H   UNL     1      42.395 -18.925   1.326  1.00  0.00     0.171 HD
BRANCH  23  26
HETATM   26  O   UNL     1      44.474 -19.293   3.689  1.00  0.00    -0.309 OA
HETATM   27  C   UNL     1      44.287 -20.093   4.859  1.00  0.00     0.215 C 
ENDBRANCH  23  26
ENDBRANCH  19  22
ENDBRANCH  15  16
ENDBRANCH   1  15
TORSDOF 6
ENDMDL
MODEL 4
REMARK VINA RESULT:      -7.3      3.872      6.091
REMARK  6 active torsions:
REMARK  status: ('A' for Active; 'I' for Inactive)
REMARK    1  A    between atoms: C_2  and  N_3 
REMARK    2  A    between atoms: C_2  and  C_18 
REMARK    3  A    between atoms: N_3  and  C_6 
REMARK    4  A    between atoms: C_6  and  C_7 
REMARK    5  A    between atoms: C_10  and  N_11 
REMARK       I    between atoms: N_11  and  C_12 
REMARK    6  A    between atoms: C_12  and  O_13 
ROOT
HETATM    1  N   UNL     1      39.087 -14.556   2.663  1.00  0.00    -0.063 N 
HETATM    2  H   UNL     1      38.105 -14.639   2.367  1.00  0.00     0.278 HD
HETATM    3  H   UNL     1      39.083 -14.823   3.654  1.00  0.00     0.278 HD
ENDROOT
BRANCH   1   4
HETATM    4  C   UNL     1      39.903 -15.535   1.872  1.00  0.00     0.216 C 
HETATM    5  C   UNL     1      40.413 -14.882   0.587  1.00  0.00     0.045 C 
BRANCH   4   6
HETATM    6  C   UNL     1      41.037 -16.073   2.711  1.00  0.00    -0.009 A 
HETATM    7  C   UNL     1      42.175 -16.593   2.101  1.00  0.00     0.126 A 
HETATM    8  N   UNL     1      43.240 -17.109   2.739  1.00  0.00    -0.259 NA
HETATM    9  C   UNL     1      43.193 -17.095   4.096  1.00  0.00     0.074 A 
HETATM   10  C   UNL     1      42.101 -16.593   4.802  1.00  0.00     0.034 A 
HETATM   11  C   UNL     1      44.216 -17.573   4.965  1.00  0.00     0.040 A 
HETATM   12  S   UNL     1      42.346 -16.718   6.498  1.00  0.00    -0.100 SA
HETATM   13  C   UNL     1      40.995 -16.073   4.112  1.00  0.00     0.032 A 
HETATM   14  C   UNL     1      43.888 -17.427   6.294  1.00  0.00     0.053 A 
ENDBRANCH   4   6
ENDBRANCH   1   4
BRANCH   1  15
HETATM   15  C   UNL     1      39.465 -13.117   2.552  1.00  0.00     0.271 C 
BRANCH  15  16
HETATM   16  C   UNL     1      40.283 -12.677   3.734  1.00  0.00    -0.033 A 
HETATM   17  C   UNL     1      41.572 -12.157   3.559  1.00  0.00     0.011 A 
HETATM   18  C   UNL     1      42.344 -11.763   4.662  1.00  0.00     0.030 A 
HETATM   19  C   UNL     1      41.844 -11.874   5.958  1.00  0.00     0.036 A 
HETATM   20  C   UNL     1      40.550 -12.384   6.129  1.00  0.00     0.030 A 
HETATM   21  C   UNL     1      39.778 -12.787   5.034  1.00  0.00     0.011 A 
BRANCH  19  22
HETATM   22  N   UNL     1      42.532 -11.500   7.123  1.00  0.00    -0.303 N 
HETATM   23  C   UNL     1      43.846 -11.604   7.497  1.00  0.00     0.364 C 
HETATM   24  O   UNL     1      44.210 -11.163   8.583  1.00  0.00    -0.238 OA
HETATM   25  H   UNL     1      41.993 -11.068   7.864  1.00  0.00     0.171 HD
BRANCH  23  26
HETATM   26  O   UNL     1      44.663 -12.230   6.615  1.00  0.00    -0.309 OA
HETATM   27  C   UNL     1      45.776 -11.441   6.190  1.00  0.00     0.215 C 
ENDBRANCH  23  26
ENDBRANCH  19  22
ENDBRANCH  15  16
ENDBRANCH   1  15
TORSDOF 6
ENDMDL
MODEL 5
REMARK VINA RESULT:      -7.1      3.787      5.819
REMARK  6 active torsions:
REMARK  status: ('A' for Active; 'I' for Inactive)
REMARK    1  A    between atoms: C_2  and  N_3 
REMARK    2  A    between atoms: C_2  and  C_18 
REMARK    3  A    between atoms: N_3  and  C_6 
REMARK    4  A    between atoms: C_6  and  C_7 
REMARK    5  A    between atoms: C_10  and  N_11 
REMARK       I    between atoms: N_11  and  C_12 
REMARK    6  A    between atoms: C_12  and  O_13 
ROOT
HETATM    1  N   UNL     1      39.196 -14.100   2.674  1.00  0.00    -0.063 N 
HETATM    2  H   UNL     1      38.185 -14.026   2.498  1.00  0.00     0.278 HD
HETATM    3  H   UNL     1      39.278 -14.150   3.696  1.00  0.00     0.278 HD
ENDROOT
BRANCH   1   4
HETATM    4  C   UNL     1      39.690 -15.375   2.057  1.00  0.00     0.216 C 
HETATM    5  C   UNL     1      40.207 -15.111   0.642  1.00  0.00     0.045 C 
BRANCH   4   6
HETATM    6  C   UNL     1      40.750 -16.004   2.928  1.00  0.00    -0.009 A 
HETATM    7  C   UNL     1      40.778 -15.746   4.295  1.00  0.00     0.126 A 
HETATM    8  N   UNL     1      41.676 -16.237   5.168  1.00  0.00    -0.259 NA
HETATM    9  C   UNL     1      42.617 -17.072   4.655  1.00  0.00     0.074 A 
HETATM   10  C   UNL     1      42.673 -17.397   3.302  1.00  0.00     0.034 A 
HETATM   11  C   UNL     1      43.647 -17.715   5.402  1.00  0.00     0.040 A 
HETATM   12  S   UNL     1      43.974 -18.470   2.973  1.00  0.00    -0.100 SA
HETATM   13  C   UNL     1      41.733 -16.860   2.409  1.00  0.00     0.032 A 
HETATM   14  C   UNL     1      44.453 -18.504   4.613  1.00  0.00     0.053 A 
ENDBRANCH   4   6
ENDBRANCH   1   4
BRANCH   1  15
HETATM   15  C   UNL     1      39.824 -12.832   2.201  1.00  0.00     0.271 C 
BRANCH  15  16
HETATM   16  C   UNL     1      40.980 -12.439   3.077  1.00  0.00    -0.033 A 
HETATM   17  C   UNL     1      40.764 -11.817   4.313  1.00  0.00     0.011 A 
HETATM   18  C   UNL     1      41.842 -11.433   5.123  1.00  0.00     0.030 A 
HETATM   19  C   UNL     1      43.156 -11.667   4.721  1.00  0.00     0.036 A 
HETATM   20  C   UNL     1      43.369 -12.301   3.490  1.00  0.00     0.030 A 
HETATM   21  C   UNL     1      42.298 -12.679   2.672  1.00  0.00     0.011 A 
BRANCH  19  22
HETATM   22  N   UNL     1      44.299 -11.331   5.462  1.00  0.00    -0.303 N 
HETATM   23  C   UNL     1      44.775 -11.755   6.675  1.00  0.00     0.364 C 
HETATM   24  O   UNL     1      45.839 -11.319   7.102  1.00  0.00    -0.238 OA
HETATM   25  H   UNL     1      44.924 -10.639   5.067  1.00  0.00     0.171 HD
BRANCH  23  26
HETATM   26  O   UNL     1      43.989 -12.635   7.343  1.00  0.00    -0.309 OA
HETATM   27  C   UNL     1      44.045 -13.969   6.832  1.00  0.00     0.215 C 
ENDBRANCH  23  26
ENDBRANCH  19  22
ENDBRANCH  15  16
ENDBRANCH   1  15
TORSDOF 6
ENDMDL
MODEL 6
REMARK VINA RESULT:      -7.1      2.844      5.058
REMARK  6 active torsions:
REMARK  status: ('A' for Active; 'I' for Inactive)
REMARK    1  A    between atoms: C_2  and  N_3 
REMARK    2  A    between atoms: C_2  and  C_18 
REMARK    3  A    between atoms: N_3  and  C_6 
REMARK    4  A    between atoms: C_6  and  C_7 
REMARK    5  A    between atoms: C_10  and  N_11 
REMARK       I    between atoms: N_11  and  C_12 
REMARK    6  A    between atoms: C_12  and  O_13 
ROOT
HETATM    1  N   UNL     1      42.721 -17.598   5.738  1.00  0.00    -0.063 N 
HETATM    2  H   UNL     1      42.851 -18.482   6.249  1.00  0.00     0.278 HD
HETATM    3  H   UNL     1      41.717 -17.562   5.532  1.00  0.00     0.278 HD
ENDROOT
BRANCH   1   4
HETATM    4  C   UNL     1      43.098 -16.467   6.650  1.00  0.00     0.216 C 
HETATM    5  C   UNL     1      44.562 -16.082   6.437  1.00  0.00     0.045 C 
BRANCH   4   6
HETATM    6  C   UNL     1      42.176 -15.291   6.437  1.00  0.00    -0.009 A 
HETATM    7  C   UNL     1      40.807 -15.426   6.647  1.00  0.00     0.126 A 
HETATM    8  N   UNL     1      39.889 -14.458   6.480  1.00  0.00    -0.259 NA
HETATM    9  C   UNL     1      40.358 -13.244   6.092  1.00  0.00     0.074 A 
HETATM   10  C   UNL     1      41.711 -13.004   5.860  1.00  0.00     0.034 A 
HETATM   11  C   UNL     1      39.565 -12.081   5.875  1.00  0.00     0.040 A 
HETATM   12  S   UNL     1      41.981 -11.376   5.383  1.00  0.00    -0.100 SA
HETATM   13  C   UNL     1      42.649 -14.036   6.028  1.00  0.00     0.032 A 
HETATM   14  C   UNL     1      40.319 -10.995   5.489  1.00  0.00     0.053 A 
ENDBRANCH   4   6
ENDBRANCH   1   4
BRANCH   1  15
HETATM   15  C   UNL     1      43.474 -17.710   4.455  1.00  0.00     0.271 C 
BRANCH  15  16
HETATM   16  C   UNL     1      42.859 -16.849   3.388  1.00  0.00    -0.033 A 
HETATM   17  C   UNL     1      41.467 -16.766   3.247  1.00  0.00     0.011 A 
HETATM   18  C   UNL     1      40.892 -15.978   2.240  1.00  0.00     0.030 A 
HETATM   19  C   UNL     1      41.692 -15.252   1.359  1.00  0.00     0.036 A 
HETATM   20  C   UNL     1      43.082 -15.327   1.509  1.00  0.00     0.030 A 
HETATM   21  C   UNL     1      43.663 -16.119   2.506  1.00  0.00     0.011 A 
BRANCH  19  22
HETATM   22  N   UNL     1      41.213 -14.428   0.327  1.00  0.00    -0.303 N 
HETATM   23  C   UNL     1      40.920 -13.091   0.270  1.00  0.00     0.364 C 
HETATM   24  O   UNL     1      40.535 -12.594  -0.783  1.00  0.00    -0.238 OA
HETATM   25  H   UNL     1      41.028 -14.864  -0.569  1.00  0.00     0.171 HD
BRANCH  23  26
HETATM   26  O   UNL     1      41.060 -12.406   1.431  1.00  0.00    -0.309 OA
HETATM   27  C   UNL     1      39.909 -11.641   1.798  1.00  0.00     0.215 C 
ENDBRANCH  23  26
ENDBRANCH  19  22
ENDBRANCH  15  16
ENDBRANCH   1  15
TORSDOF 6
ENDMDL
MODEL 7
REMARK VINA RESULT:      -7.0      2.293      3.173
REMARK  6 active torsions:
REMARK  status: ('A' for Active; 'I' for Inactive)
REMARK    1  A    between atoms: C_2  and  N_3 
REMARK    2  A    between atoms: C_2  and  C_18 
REMARK    3  A    between atoms: N_3  and  C_6 
REMARK    4  A    between atoms: C_6  and  C_7 
REMARK    5  A    between atoms: C_10  and  N_11 
REMARK       I    between atoms: N_11  and  C_12 
REMARK    6  A    between atoms: C_12  and  O_13 
ROOT
HETATM    1  N   UNL     1      42.061 -15.214   0.997  1.00  0.00    -0.063 N 
HETATM    2  H   UNL     1      42.299 -14.554   0.245  1.00  0.00     0.278 HD
HETATM    3  H   UNL     1      42.226 -16.141   0.591  1.00  0.00     0.278 HD
ENDROOT
BRANCH   1   4
HETATM    4  C   UNL     1      43.000 -14.981   2.144  1.00  0.00     0.216 C 
HETATM    5  C   UNL     1      42.425 -13.930   3.093  1.00  0.00     0.045 C 
BRANCH   4   6
HETATM    6  C   UNL     1      43.287 -16.279   2.860  1.00  0.00    -0.009 A 
HETATM    7  C   UNL     1      43.557 -16.282   4.225  1.00  0.00     0.126 A 
HETATM    8  N   UNL     1      43.838 -17.368   4.967  1.00  0.00    -0.259 NA
HETATM    9  C   UNL     1      43.833 -18.559   4.314  1.00  0.00     0.074 A 
HETATM   10  C   UNL     1      43.570 -18.664   2.949  1.00  0.00     0.034 A 
HETATM   11  C   UNL     1      44.084 -19.829   4.908  1.00  0.00     0.040 A 
HETATM   12  S   UNL     1      43.639 -20.300   2.427  1.00  0.00    -0.100 SA
HETATM   13  C   UNL     1      43.294 -17.513   2.194  1.00  0.00     0.032 A 
HETATM   14  C   UNL     1      44.009 -20.859   3.999  1.00  0.00     0.053 A 
ENDBRANCH   4   6
ENDBRANCH   1   4
BRANCH   1  15
HETATM   15  C   UNL     1      40.603 -15.063   1.277  1.00  0.00     0.271 C 
BRANCH  15  16
HETATM   16  C   UNL     1      39.962 -14.100   0.317  1.00  0.00    -0.033 A 
HETATM   17  C   UNL     1      39.621 -14.502  -0.981  1.00  0.00     0.011 A 
HETATM   18  C   UNL     1      39.041 -13.600  -1.884  1.00  0.00     0.030 A 
HETATM   19  C   UNL     1      38.782 -12.282  -1.509  1.00  0.00     0.036 A 
HETATM   20  C   UNL     1      39.113 -11.886  -0.207  1.00  0.00     0.030 A 
HETATM   21  C   UNL     1      39.701 -12.779   0.697  1.00  0.00     0.011 A 
BRANCH  19  22
HETATM   22  N   UNL     1      38.196 -11.309  -2.333  1.00  0.00    -0.303 N 
HETATM   23  C   UNL     1      38.710 -10.473  -3.289  1.00  0.00     0.364 C 
HETATM   24  O   UNL     1      37.966  -9.715  -3.904  1.00  0.00    -0.238 OA
HETATM   25  H   UNL     1      37.200 -11.154  -2.236  1.00  0.00     0.171 HD
BRANCH  23  26
HETATM   26  O   UNL     1      40.053 -10.534  -3.466  1.00  0.00    -0.309 OA
HETATM   27  C   UNL     1      40.774  -9.486  -2.814  1.00  0.00     0.215 C 
ENDBRANCH  23  26
ENDBRANCH  19  22
ENDBRANCH  15  16
ENDBRANCH   1  15
TORSDOF 6
ENDMDL
MODEL 8
REMARK VINA RESULT:      -7.0      5.323      7.602
REMARK  6 active torsions:
REMARK  status: ('A' for Active; 'I' for Inactive)
REMARK    1  A    between atoms: C_2  and  N_3 
REMARK    2  A    between atoms: C_2  and  C_18 
REMARK    3  A    between atoms: N_3  and  C_6 
REMARK    4  A    between atoms: C_6  and  C_7 
REMARK    5  A    between atoms: C_10  and  N_11 
REMARK       I    between atoms: N_11  and  C_12 
REMARK    6  A    between atoms: C_12  and  O_13 
ROOT
HETATM    1  N   UNL     1      43.156 -13.993   4.654  1.00  0.00    -0.063 N 
HETATM    2  H   UNL     1      42.436 -14.059   5.386  1.00  0.00     0.278 HD
HETATM    3  H   UNL     1      44.010 -14.349   5.096  1.00  0.00     0.278 HD
ENDROOT
BRANCH   1   4
HETATM    4  C   UNL     1      42.756 -14.886   3.517  1.00  0.00     0.216 C 
HETATM    5  C   UNL     1      43.379 -14.392   2.212  1.00  0.00     0.045 C 
BRANCH   4   6
HETATM    6  C   UNL     1      43.140 -16.316   3.811  1.00  0.00    -0.009 A 
HETATM    7  C   UNL     1      43.589 -16.674   5.079  1.00  0.00     0.126 A 
HETATM    8  N   UNL     1      43.969 -17.907   5.456  1.00  0.00    -0.259 NA
HETATM    9  C   UNL     1      43.882 -18.879   4.511  1.00  0.00     0.074 A 
HETATM   10  C   UNL     1      43.441 -18.625   3.214  1.00  0.00     0.034 A 
HETATM   11  C   UNL     1      44.215 -20.251   4.702  1.00  0.00     0.040 A 
HETATM   12  S   UNL     1      43.446 -20.056   2.263  1.00  0.00    -0.100 SA
HETATM   13  C   UNL     1      43.063 -17.325   2.841  1.00  0.00     0.032 A 
HETATM   14  C   UNL     1      44.023 -21.002   3.564  1.00  0.00     0.053 A 
ENDBRANCH   4   6
ENDBRANCH   1   4
BRANCH   1  15
HETATM   15  C   UNL     1      43.342 -12.545   4.342  1.00  0.00     0.271 C 
BRANCH  15  16
HETATM   16  C   UNL     1      43.572 -11.745   5.593  1.00  0.00    -0.033 A 
HETATM   17  C   UNL     1      44.729 -11.932   6.361  1.00  0.00     0.011 A 
HETATM   18  C   UNL     1      44.936 -11.200   7.538  1.00  0.00     0.030 A 
HETATM   19  C   UNL     1      43.999 -10.262   7.970  1.00  0.00     0.036 A 
HETATM   20  C   UNL     1      42.849 -10.068   7.194  1.00  0.00     0.030 A 
HETATM   21  C   UNL     1      42.631 -10.803   6.022  1.00  0.00     0.011 A 
BRANCH  19  22
HETATM   22  N   UNL     1      44.119  -9.474   9.125  1.00  0.00    -0.303 N 
HETATM   23  C   UNL     1      44.119  -9.780  10.460  1.00  0.00     0.364 C 
HETATM   24  O   UNL     1      44.273  -8.892  11.292  1.00  0.00    -0.238 OA
HETATM   25  H   UNL     1      44.223  -8.474   8.998  1.00  0.00     0.171 HD
BRANCH  23  26
HETATM   26  O   UNL     1      43.915 -11.085  10.766  1.00  0.00    -0.309 OA
HETATM   27  C   UNL     1      43.504 -11.309  12.117  1.00  0.00     0.215 C 
ENDBRANCH  23  26
ENDBRANCH  19  22
ENDBRANCH  15  16
ENDBRANCH   1  15
TORSDOF 6
ENDMDL
MODEL 9
REMARK VINA RESULT:      -6.9      4.896      7.877
REMARK  6 active torsions:
REMARK  status: ('A' for Active; 'I' for Inactive)
REMARK    1  A    between atoms: C_2  and  N_3 
REMARK    2  A    between atoms: C_2  and  C_18 
REMARK    3  A    between atoms: N_3  and  C_6 
REMARK    4  A    between atoms: C_6  and  C_7 
REMARK    5  A    between atoms: C_10  and  N_11 
REMARK       I    between atoms: N_11  and  C_12 
REMARK    6  A    between atoms: C_12  and  O_13 
ROOT
HETATM    1  N   UNL     1      42.371 -13.118   4.993  1.00  0.00    -0.063 N 
HETATM    2  H   UNL     1      43.239 -13.089   5.545  1.00  0.00     0.278 HD
HETATM    3  H   UNL     1      41.884 -13.961   5.320  1.00  0.00     0.278 HD
ENDROOT
BRANCH   1   4
HETATM    4  C   UNL     1      41.562 -11.898   5.323  1.00  0.00     0.216 C 
HETATM    5  C   UNL     1      40.217 -12.304   5.926  1.00  0.00     0.045 C 
BRANCH   4   6
HETATM    6  C   UNL     1      42.335 -10.988   6.246  1.00  0.00    -0.009 A 
HETATM    7  C   UNL     1      41.713  -9.887   6.827  1.00  0.00     0.126 A 
HETATM    8  N   UNL     1      42.297  -9.001   7.653  1.00  0.00    -0.259 NA
HETATM    9  C   UNL     1      43.603  -9.229   7.951  1.00  0.00     0.074 A 
HETATM   10  C   UNL     1      44.315 -10.305   7.425  1.00  0.00     0.034 A 
HETATM   11  C   UNL     1      44.406  -8.430   8.815  1.00  0.00     0.040 A 
HETATM   12  S   UNL     1      45.937 -10.315   7.992  1.00  0.00    -0.100 SA
HETATM   13  C   UNL     1      43.685 -11.208   6.554  1.00  0.00     0.032 A 
HETATM   14  C   UNL     1      45.692  -8.907   8.928  1.00  0.00     0.053 A 
ENDBRANCH   4   6
ENDBRANCH   1   4
BRANCH   1  15
HETATM   15  C   UNL     1      42.757 -13.308   3.565  1.00  0.00     0.271 C 
BRANCH  15  16
HETATM   16  C   UNL     1      42.850 -14.766   3.216  1.00  0.00    -0.033 A 
HETATM   17  C   UNL     1      42.588 -15.751   4.177  1.00  0.00     0.011 A 
HETATM   18  C   UNL     1      42.692 -17.113   3.857  1.00  0.00     0.030 A 
HETATM   19  C   UNL     1      43.053 -17.519   2.574  1.00  0.00     0.036 A 
HETATM   20  C   UNL     1      43.302 -16.532   1.611  1.00  0.00     0.030 A 
HETATM   21  C   UNL     1      43.209 -15.171   1.925  1.00  0.00     0.011 A 
BRANCH  19  22
HETATM   22  N   UNL     1      43.174 -18.853   2.154  1.00  0.00    -0.303 N 
HETATM   23  C   UNL     1      43.742 -19.958   2.730  1.00  0.00     0.364 C 
HETATM   24  O   UNL     1      43.690 -21.042   2.159  1.00  0.00    -0.238 OA
HETATM   25  H   UNL     1      42.785 -19.094   1.250  1.00  0.00     0.171 HD
BRANCH  23  26
HETATM   26  O   UNL     1      44.362 -19.751   3.918  1.00  0.00    -0.309 OA
HETATM   27  C   UNL     1      44.103 -20.762   4.895  1.00  0.00     0.215 C 
ENDBRANCH  23  26
ENDBRANCH  19  22
ENDBRANCH  15  16
ENDBRANCH   1  15
TORSDOF 6
ENDMDL
MODEL 10
REMARK VINA RESULT:      -6.7      3.996      7.139
REMARK  6 active torsions:
REMARK  status: ('A' for Active; 'I' for Inactive)
REMARK    1  A    between atoms: C_2  and  N_3 
REMARK    2  A    between atoms: C_2  and  C_18 
REMARK    3  A    between atoms: N_3  and  C_6 
REMARK    4  A    between atoms: C_6  and  C_7 
REMARK    5  A    between atoms: C_10  and  N_11 
REMARK       I    between atoms: N_11  and  C_12 
REMARK    6  A    between atoms: C_12  and  O_13 
ROOT
HETATM    1  N   UNL     1      39.180 -13.389   0.762  1.00  0.00    -0.063 N 
HETATM    2  H   UNL     1      39.106 -13.728   1.731  1.00  0.00     0.278 HD
HETATM    3  H   UNL     1      38.244 -13.526   0.367  1.00  0.00     0.278 HD
ENDROOT
BRANCH   1   4
HETATM    4  C   UNL     1      39.513 -11.926   0.798  1.00  0.00     0.216 C 
HETATM    5  C   UNL     1      38.233 -11.095   0.880  1.00  0.00     0.045 C 
BRANCH   4   6
HETATM    6  C   UNL     1      40.446 -11.627   1.947  1.00  0.00    -0.009 A 
HETATM    7  C   UNL     1      41.777 -11.303   1.702  1.00  0.00     0.126 A 
HETATM    8  N   UNL     1      42.702 -11.029   2.639  1.00  0.00    -0.259 NA
HETATM    9  C   UNL     1      42.277 -11.056   3.929  1.00  0.00     0.074 A 
HETATM   10  C   UNL     1      40.964 -11.365   4.279  1.00  0.00     0.034 A 
HETATM   11  C   UNL     1      43.083 -10.781   5.072  1.00  0.00     0.040 A 
HETATM   12  S   UNL     1      40.746 -11.316   5.983  1.00  0.00    -0.100 SA
HETATM   13  C   UNL     1      40.021 -11.661   3.282  1.00  0.00     0.032 A 
HETATM   14  C   UNL     1      42.378 -10.884   6.249  1.00  0.00     0.053 A 
ENDBRANCH   4   6
ENDBRANCH   1   4
BRANCH   1  15
HETATM   15  C   UNL     1      40.140 -14.282   0.050  1.00  0.00     0.271 C 
BRANCH  15  16
HETATM   16  C   UNL     1      40.990 -15.052   1.022  1.00  0.00    -0.033 A 
HETATM   17  C   UNL     1      42.373 -14.843   1.086  1.00  0.00     0.011 A 
HETATM   18  C   UNL     1      43.170 -15.573   1.980  1.00  0.00     0.030 A 
HETATM   19  C   UNL     1      42.603 -16.520   2.831  1.00  0.00     0.036 A 
HETATM   20  C   UNL     1      41.218 -16.718   2.774  1.00  0.00     0.030 A 
HETATM   21  C   UNL     1      40.417 -15.999   1.878  1.00  0.00     0.011 A 
BRANCH  19  22
HETATM   22  N   UNL     1      43.312 -17.292   3.765  1.00  0.00    -0.303 N 
HETATM   23  C   UNL     1      44.023 -18.457   3.655  1.00  0.00     0.364 C 
HETATM   24  O   UNL     1      44.588 -18.925   4.638  1.00  0.00    -0.238 OA
HETATM   25  H   UNL     1      43.323 -16.967   4.725  1.00  0.00     0.171 HD
BRANCH  23  26
HETATM   26  O   UNL     1      44.026 -19.033   2.428  1.00  0.00    -0.309 OA
HETATM   27  C   UNL     1      43.456 -20.343   2.398  1.00  0.00     0.215 C 
ENDBRANCH  23  26
ENDBRANCH  19  22
ENDBRANCH  15  16
ENDBRANCH   1  15
TORSDOF 6
ENDMDL
