MODEL 1
REMARK VINA RESULT:      -8.1      0.000      0.000
REMARK  4 active torsions:
REMARK  status: ('A' for Active; 'I' for Inactive)
REMARK    1  A    between atoms: C_4  and  C_5 
REMARK       I    between atoms: C_5  and  N_6 
REMARK    2  A    between atoms: N_6  and  C_7 
REMARK    3  A    between atoms: C_7  and  N_8 
REMARK    4  A    between atoms: N_8  and  C_9 
ROOT
HETATM    1  C   UNL     1      43.616 -15.617   5.769  1.00  0.00     0.257 C 
HETATM    2  N   UNL     1      42.598 -14.697   5.554  1.00  0.00    -0.299 N 
HETATM    3  O   UNL     1      44.414 -15.632   6.696  1.00  0.00    -0.267 OA
HETATM    4  H   UNL     1      41.891 -14.974   4.875  1.00  0.00     0.171 HD
ENDROOT
BRANCH   2   5
HETATM    5  C   UNL     1      42.353 -13.453   6.094  1.00  0.00     0.180 C 
HETATM    6  S   UNL     1      41.283 -12.303   5.527  1.00  0.00    -0.040 SA
BRANCH   5   7
HETATM    7  N   UNL     1      43.063 -13.139   7.228  1.00  0.00    -0.318 N 
HETATM    8  H   UNL     1      42.768 -13.649   8.051  1.00  0.00     0.170 HD
BRANCH   7   9
HETATM    9  C   UNL     1      44.086 -12.192   7.388  1.00  0.00     0.129 A 
HETATM   10  N   UNL     1      44.140 -11.456   8.522  1.00  0.00    -0.236 NA
HETATM   11  C   UNL     1      45.157 -10.570   8.662  1.00  0.00     0.033 A 
HETATM   12  C   UNL     1      45.212  -9.780   9.936  1.00  0.00     0.070 C 
HETATM   13  C   UNL     1      46.120 -10.378   7.679  1.00  0.00     0.027 A 
HETATM   14  C   UNL     1      46.043 -11.131   6.514  1.00  0.00     0.006 A 
HETATM   15  C   UNL     1      45.012 -12.054   6.363  1.00  0.00     0.050 A 
ENDBRANCH   7   9
ENDBRANCH   5   7
ENDBRANCH   2   5
BRANCH   1  16
HETATM   16  C   UNL     1      43.613 -16.740   4.798  1.00  0.00     0.032 A 
HETATM   17  C   UNL     1      43.916 -18.045   5.214  1.00  0.00     0.023 A 
HETATM   18  C   UNL     1      43.931 -19.092   4.284  1.00  0.00    -0.061 A 
HETATM   19  C   UNL     1      44.271 -20.490   4.711  1.00  0.00     0.048 C 
HETATM   20  C   UNL     1      43.667 -18.811   2.938  1.00  0.00     0.007 A 
HETATM   21  C   UNL     1      43.353 -17.513   2.529  1.00  0.00     0.002 A 
HETATM   22  C   UNL     1      43.314 -16.477   3.460  1.00  0.00     0.017 A 
ENDBRANCH   1  16
TORSDOF 4
ENDMDL
MODEL 2
REMARK VINA RESULT:      -7.7      4.753      7.095
REMARK  4 active torsions:
REMARK  status: ('A' for Active; 'I' for Inactive)
REMARK    1  A    between atoms: C_4  and  C_5 
REMARK       I    between atoms: C_5  and  N_6 
REMARK    2  A    between atoms: N_6  and  C_7 
REMARK    3  A    between atoms: C_7  and  N_8 
REMARK    4  A    between atoms: N_8  and  C_9 
ROOT
HETATM    1  C   UNL     1      41.615 -15.708   2.841  1.00  0.00     0.257 C 
HETATM    2  N   UNL     1      42.244 -14.551   2.399  1.00  0.00    -0.299 N 
HETATM    3  O   UNL     1      40.412 -15.922   2.888  1.00  0.00    -0.267 OA
HETATM    4  H   UNL     1      43.240 -14.638   2.206  1.00  0.00     0.171 HD
ENDROOT
BRANCH   2   5
HETATM    5  C   UNL     1      41.770 -13.278   2.165  1.00  0.00     0.180 C 
HETATM    6  S   UNL     1      42.481 -11.838   2.625  1.00  0.00    -0.040 SA
BRANCH   5   7
HETATM    7  N   UNL     1      40.588 -13.195   1.466  1.00  0.00    -0.318 N 
HETATM    8  H   UNL     1      39.783 -12.989   2.044  1.00  0.00     0.170 HD
BRANCH   7   9
HETATM    9  C   UNL     1      40.364 -13.400   0.096  1.00  0.00     0.129 A 
HETATM   10  N   UNL     1      40.781 -12.469  -0.792  1.00  0.00    -0.236 NA
HETATM   11  C   UNL     1      40.579 -12.709  -2.112  1.00  0.00     0.033 A 
HETATM   12  C   UNL     1      41.067 -11.675  -3.082  1.00  0.00     0.070 C 
HETATM   13  C   UNL     1      39.942 -13.854  -2.574  1.00  0.00     0.027 A 
HETATM   14  C   UNL     1      39.508 -14.795  -1.647  1.00  0.00     0.006 A 
HETATM   15  C   UNL     1      39.722 -14.568  -0.291  1.00  0.00     0.050 A 
ENDBRANCH   7   9
ENDBRANCH   5   7
ENDBRANCH   2   5
BRANCH   1  16
HETATM   16  C   UNL     1      42.560 -16.804   3.173  1.00  0.00     0.032 A 
HETATM   17  C   UNL     1      42.633 -17.951   2.370  1.00  0.00     0.023 A 
HETATM   18  C   UNL     1      43.513 -18.988   2.706  1.00  0.00    -0.061 A 
HETATM   19  C   UNL     1      43.590 -20.230   1.867  1.00  0.00     0.048 C 
HETATM   20  C   UNL     1      44.293 -18.871   3.864  1.00  0.00     0.007 A 
HETATM   21  C   UNL     1      44.226 -17.721   4.655  1.00  0.00     0.002 A 
HETATM   22  C   UNL     1      43.369 -16.680   4.304  1.00  0.00     0.017 A 
ENDBRANCH   1  16
TORSDOF 4
ENDMDL
MODEL 3
REMARK VINA RESULT:      -7.6      2.566      3.489
REMARK  4 active torsions:
REMARK  status: ('A' for Active; 'I' for Inactive)
REMARK    1  A    between atoms: C_4  and  C_5 
REMARK       I    between atoms: C_5  and  N_6 
REMARK    2  A    between atoms: N_6  and  C_7 
REMARK    3  A    between atoms: C_7  and  N_8 
REMARK    4  A    between atoms: N_8  and  C_9 
ROOT
HETATM    1  C   UNL     1      41.723 -15.765   2.546  1.00  0.00     0.257 C 
HETATM    2  N   UNL     1      42.342 -14.525   2.443  1.00  0.00    -0.299 N 
HETATM    3  O   UNL     1      40.579 -16.049   2.220  1.00  0.00    -0.267 OA
HETATM    4  H   UNL     1      43.356 -14.530   2.534  1.00  0.00     0.171 HD
ENDROOT
BRANCH   2   5
HETATM    5  C   UNL     1      41.836 -13.260   2.235  1.00  0.00     0.180 C 
HETATM    6  S   UNL     1      41.129 -12.675   0.839  1.00  0.00    -0.040 SA
BRANCH   5   7
HETATM    7  N   UNL     1      41.917 -12.396   3.303  1.00  0.00    -0.318 N 
HETATM    8  H   UNL     1      41.332 -11.575   3.211  1.00  0.00     0.170 HD
BRANCH   7   9
HETATM    9  C   UNL     1      42.723 -12.491   4.447  1.00  0.00     0.129 A 
HETATM   10  N   UNL     1      42.517 -13.503   5.322  1.00  0.00    -0.236 NA
HETATM   11  C   UNL     1      43.332 -13.587   6.403  1.00  0.00     0.033 A 
HETATM   12  C   UNL     1      43.102 -14.727   7.351  1.00  0.00     0.070 C 
HETATM   13  C   UNL     1      44.341 -12.666   6.652  1.00  0.00     0.027 A 
HETATM   14  C   UNL     1      44.530 -11.625   5.750  1.00  0.00     0.006 A 
HETATM   15  C   UNL     1      43.711 -11.534   4.629  1.00  0.00     0.050 A 
ENDBRANCH   7   9
ENDBRANCH   5   7
ENDBRANCH   2   5
BRANCH   1  16
HETATM   16  C   UNL     1      42.635 -16.844   3.002  1.00  0.00     0.032 A 
HETATM   17  C   UNL     1      42.755 -18.035   2.270  1.00  0.00     0.023 A 
HETATM   18  C   UNL     1      43.603 -19.053   2.723  1.00  0.00    -0.061 A 
HETATM   19  C   UNL     1      43.729 -20.340   1.961  1.00  0.00     0.048 C 
HETATM   20  C   UNL     1      44.302 -18.875   3.924  1.00  0.00     0.007 A 
HETATM   21  C   UNL     1      44.189 -17.683   4.644  1.00  0.00     0.002 A 
HETATM   22  C   UNL     1      43.365 -16.661   4.178  1.00  0.00     0.017 A 
ENDBRANCH   1  16
TORSDOF 4
ENDMDL
MODEL 4
REMARK VINA RESULT:      -7.6      4.127      5.931
REMARK  4 active torsions:
REMARK  status: ('A' for Active; 'I' for Inactive)
REMARK    1  A    between atoms: C_4  and  C_5 
REMARK       I    between atoms: C_5  and  N_6 
REMARK    2  A    between atoms: N_6  and  C_7 
REMARK    3  A    between atoms: C_7  and  N_8 
REMARK    4  A    between atoms: N_8  and  C_9 
ROOT
HETATM    1  C   UNL     1      42.871 -15.902   3.595  1.00  0.00     0.257 C 
HETATM    2  N   UNL     1      41.856 -15.537   4.471  1.00  0.00    -0.299 N 
HETATM    3  O   UNL     1      43.472 -15.175   2.816  1.00  0.00    -0.267 OA
HETATM    4  H   UNL     1      41.644 -16.211   5.204  1.00  0.00     0.171 HD
ENDROOT
BRANCH   2   5
HETATM    5  C   UNL     1      41.064 -14.411   4.542  1.00  0.00     0.180 C 
HETATM    6  S   UNL     1      41.310 -13.066   5.501  1.00  0.00    -0.040 SA
BRANCH   5   7
HETATM    7  N   UNL     1      39.960 -14.399   3.722  1.00  0.00    -0.318 N 
HETATM    8  H   UNL     1      39.093 -14.613   4.199  1.00  0.00     0.170 HD
BRANCH   7   9
HETATM    9  C   UNL     1      39.899 -14.178   2.338  1.00  0.00     0.129 A 
HETATM   10  N   UNL     1      39.799 -12.912   1.871  1.00  0.00    -0.236 NA
HETATM   11  C   UNL     1      39.774 -12.726   0.528  1.00  0.00     0.033 A 
HETATM   12  C   UNL     1      39.684 -11.314   0.030  1.00  0.00     0.070 C 
HETATM   13  C   UNL     1      39.820 -13.782  -0.373  1.00  0.00     0.027 A 
HETATM   14  C   UNL     1      39.909 -15.078   0.123  1.00  0.00     0.006 A 
HETATM   15  C   UNL     1      39.951 -15.282   1.499  1.00  0.00     0.050 A 
ENDBRANCH   7   9
ENDBRANCH   5   7
ENDBRANCH   2   5
BRANCH   1  16
HETATM   16  C   UNL     1      43.303 -17.315   3.748  1.00  0.00     0.032 A 
HETATM   17  C   UNL     1      43.274 -18.193   2.655  1.00  0.00     0.023 A 
HETATM   18  C   UNL     1      43.664 -19.528   2.817  1.00  0.00    -0.061 A 
HETATM   19  C   UNL     1      43.620 -20.485   1.662  1.00  0.00     0.048 C 
HETATM   20  C   UNL     1      44.055 -19.975   4.086  1.00  0.00     0.007 A 
HETATM   21  C   UNL     1      44.095 -19.094   5.170  1.00  0.00     0.002 A 
HETATM   22  C   UNL     1      43.731 -17.760   5.000  1.00  0.00     0.017 A 
ENDBRANCH   1  16
TORSDOF 4
ENDMDL
MODEL 5
REMARK VINA RESULT:      -7.3      1.368      2.254
REMARK  4 active torsions:
REMARK  status: ('A' for Active; 'I' for Inactive)
REMARK    1  A    between atoms: C_4  and  C_5 
REMARK       I    between atoms: C_5  and  N_6 
REMARK    2  A    between atoms: N_6  and  C_7 
REMARK    3  A    between atoms: C_7  and  N_8 
REMARK    4  A    between atoms: N_8  and  C_9 
ROOT
HETATM    1  C   UNL     1      43.137 -14.774   5.495  1.00  0.00     0.257 C 
HETATM    2  N   UNL     1      42.388 -13.604   5.517  1.00  0.00    -0.299 N 
HETATM    3  O   UNL     1      43.937 -15.154   6.338  1.00  0.00    -0.267 OA
HETATM    4  H   UNL     1      41.607 -13.569   4.865  1.00  0.00     0.171 HD
ENDROOT
BRANCH   2   5
HETATM    5  C   UNL     1      42.500 -12.455   6.270  1.00  0.00     0.180 C 
HETATM    6  S   UNL     1      41.716 -11.002   6.012  1.00  0.00    -0.040 SA
BRANCH   5   7
HETATM    7  N   UNL     1      43.342 -12.525   7.355  1.00  0.00    -0.318 N 
HETATM    8  H   UNL     1      43.266 -13.389   7.877  1.00  0.00     0.170 HD
BRANCH   7   9
HETATM    9  C   UNL     1      44.233 -11.555   7.837  1.00  0.00     0.129 A 
HETATM   10  N   UNL     1      43.967 -10.932   9.009  1.00  0.00    -0.236 NA
HETATM   11  C   UNL     1      44.862 -10.021   9.465  1.00  0.00     0.033 A 
HETATM   12  C   UNL     1      44.560  -9.357  10.776  1.00  0.00     0.070 C 
HETATM   13  C   UNL     1      46.016  -9.692   8.766  1.00  0.00     0.027 A 
HETATM   14  C   UNL     1      46.268 -10.332   7.558  1.00  0.00     0.006 A 
HETATM   15  C   UNL     1      45.365 -11.279   7.084  1.00  0.00     0.050 A 
ENDBRANCH   7   9
ENDBRANCH   5   7
ENDBRANCH   2   5
BRANCH   1  16
HETATM   16  C   UNL     1      42.801 -15.668   4.359  1.00  0.00     0.032 A 
HETATM   17  C   UNL     1      41.705 -15.389   3.529  1.00  0.00     0.023 A 
HETATM   18  C   UNL     1      41.386 -16.252   2.474  1.00  0.00    -0.061 A 
HETATM   19  C   UNL     1      40.206 -15.976   1.588  1.00  0.00     0.048 C 
HETATM   20  C   UNL     1      42.158 -17.405   2.279  1.00  0.00     0.007 A 
HETATM   21  C   UNL     1      43.256 -17.674   3.100  1.00  0.00     0.002 A 
HETATM   22  C   UNL     1      43.587 -16.800   4.134  1.00  0.00     0.017 A 
ENDBRANCH   1  16
TORSDOF 4
ENDMDL
MODEL 6
REMARK VINA RESULT:      -7.0     15.817     16.691
REMARK  4 active torsions:
REMARK  status: ('A' for Active; 'I' for Inactive)
REMARK    1  A    between atoms: C_4  and  C_5 
REMARK       I    between atoms: C_5  and  N_6 
REMARK    2  A    between atoms: N_6  and  C_7 
REMARK    3  A    between atoms: C_7  and  N_8 
REMARK    4  A    between atoms: N_8  and  C_9 
ROOT
HETATM    1  C   UNL     1      43.874 -30.110  -0.392  1.00  0.00     0.257 C 
HETATM    2  N   UNL     1      43.755 -29.177   0.630  1.00  0.00    -0.299 N 
HETATM    3  O   UNL     1      43.609 -31.303  -0.337  1.00  0.00    -0.267 OA
HETATM    4  H   UNL     1      43.789 -28.201   0.341  1.00  0.00     0.171 HD
ENDROOT
BRANCH   2   5
HETATM    5  C   UNL     1      43.596 -29.319   1.991  1.00  0.00     0.180 C 
HETATM    6  S   UNL     1      42.242 -29.881   2.793  1.00  0.00    -0.040 SA
BRANCH   5   7
HETATM    7  N   UNL     1      44.678 -28.970   2.765  1.00  0.00    -0.318 N 
HETATM    8  H   UNL     1      44.440 -28.413   3.576  1.00  0.00     0.170 HD
BRANCH   7   9
HETATM    9  C   UNL     1      46.036 -29.244   2.546  1.00  0.00     0.129 A 
HETATM   10  N   UNL     1      46.580 -28.984   1.335  1.00  0.00    -0.236 NA
HETATM   11  C   UNL     1      47.903 -29.230   1.162  1.00  0.00     0.033 A 
HETATM   12  C   UNL     1      48.491 -28.915  -0.181  1.00  0.00     0.070 C 
HETATM   13  C   UNL     1      48.702 -29.758   2.168  1.00  0.00     0.027 A 
HETATM   14  C   UNL     1      48.125 -30.033   3.402  1.00  0.00     0.006 A 
HETATM   15  C   UNL     1      46.772 -29.771   3.598  1.00  0.00     0.050 A 
ENDBRANCH   7   9
ENDBRANCH   5   7
ENDBRANCH   2   5
BRANCH   1  16
HETATM   16  C   UNL     1      44.262 -29.513  -1.695  1.00  0.00     0.032 A 
HETATM   17  C   UNL     1      43.952 -30.163  -2.899  1.00  0.00     0.023 A 
HETATM   18  C   UNL     1      44.342 -29.600  -4.120  1.00  0.00    -0.061 A 
HETATM   19  C   UNL     1      44.034 -30.292  -5.416  1.00  0.00     0.048 C 
HETATM   20  C   UNL     1      45.065 -28.400  -4.118  1.00  0.00     0.007 A 
HETATM   21  C   UNL     1      45.362 -27.749  -2.918  1.00  0.00     0.002 A 
HETATM   22  C   UNL     1      44.950 -28.298  -1.705  1.00  0.00     0.017 A 
ENDBRANCH   1  16
TORSDOF 4
ENDMDL
MODEL 7
REMARK VINA RESULT:      -7.0      1.582      7.295
REMARK  4 active torsions:
REMARK  status: ('A' for Active; 'I' for Inactive)
REMARK    1  A    between atoms: C_4  and  C_5 
REMARK       I    between atoms: C_5  and  N_6 
REMARK    2  A    between atoms: N_6  and  C_7 
REMARK    3  A    between atoms: C_7  and  N_8 
REMARK    4  A    between atoms: N_8  and  C_9 
ROOT
HETATM    1  C   UNL     1      43.238 -12.629   6.446  1.00  0.00     0.257 C 
HETATM    2  N   UNL     1      43.029 -13.846   7.084  1.00  0.00    -0.299 N 
HETATM    3  O   UNL     1      42.642 -12.195   5.470  1.00  0.00    -0.267 OA
HETATM    4  H   UNL     1      43.442 -13.934   8.010  1.00  0.00     0.171 HD
ENDROOT
BRANCH   2   5
HETATM    5  C   UNL     1      42.352 -14.982   6.697  1.00  0.00     0.180 C 
HETATM    6  S   UNL     1      40.702 -15.157   6.511  1.00  0.00    -0.040 SA
BRANCH   5   7
HETATM    7  N   UNL     1      43.131 -16.084   6.427  1.00  0.00    -0.318 N 
HETATM    8  H   UNL     1      43.644 -16.429   7.228  1.00  0.00     0.170 HD
BRANCH   7   9
HETATM    9  C   UNL     1      43.328 -16.738   5.202  1.00  0.00     0.129 A 
HETATM   10  N   UNL     1      43.135 -16.058   4.047  1.00  0.00    -0.236 NA
HETATM   11  C   UNL     1      43.363 -16.707   2.878  1.00  0.00     0.033 A 
HETATM   12  C   UNL     1      43.164 -15.932   1.610  1.00  0.00     0.070 C 
HETATM   13  C   UNL     1      43.759 -18.038   2.827  1.00  0.00     0.027 A 
HETATM   14  C   UNL     1      43.940 -18.725   4.022  1.00  0.00     0.006 A 
HETATM   15  C   UNL     1      43.723 -18.067   5.229  1.00  0.00     0.050 A 
ENDBRANCH   7   9
ENDBRANCH   5   7
ENDBRANCH   2   5
BRANCH   1  16
HETATM   16  C   UNL     1      44.226 -11.762   7.137  1.00  0.00     0.032 A 
HETATM   17  C   UNL     1      43.900 -11.133   8.348  1.00  0.00     0.023 A 
HETATM   18  C   UNL     1      44.833 -10.301   8.979  1.00  0.00    -0.061 A 
HETATM   19  C   UNL     1      44.493  -9.607  10.265  1.00  0.00     0.048 C 
HETATM   20  C   UNL     1      46.077 -10.087   8.371  1.00  0.00     0.007 A 
HETATM   21  C   UNL     1      46.402 -10.725   7.171  1.00  0.00     0.002 A 
HETATM   22  C   UNL     1      45.482 -11.573   6.558  1.00  0.00     0.017 A 
ENDBRANCH   1  16
TORSDOF 4
ENDMDL
MODEL 8
REMARK VINA RESULT:      -6.9      1.875      7.744
REMARK  4 active torsions:
REMARK  status: ('A' for Active; 'I' for Inactive)
REMARK    1  A    between atoms: C_4  and  C_5 
REMARK       I    between atoms: C_5  and  N_6 
REMARK    2  A    between atoms: N_6  and  C_7 
REMARK    3  A    between atoms: C_7  and  N_8 
REMARK    4  A    between atoms: N_8  and  C_9 
ROOT
HETATM    1  C   UNL     1      43.431 -11.928   6.814  1.00  0.00     0.257 C 
HETATM    2  N   UNL     1      43.511 -13.275   7.144  1.00  0.00    -0.299 N 
HETATM    3  O   UNL     1      42.687 -11.412   5.991  1.00  0.00    -0.267 OA
HETATM    4  H   UNL     1      44.006 -13.488   8.008  1.00  0.00     0.171 HD
ENDROOT
BRANCH   2   5
HETATM    5  C   UNL     1      43.037 -14.406   6.514  1.00  0.00     0.180 C 
HETATM    6  S   UNL     1      42.365 -15.753   7.236  1.00  0.00    -0.040 SA
BRANCH   5   7
HETATM    7  N   UNL     1      43.122 -14.410   5.141  1.00  0.00    -0.318 N 
HETATM    8  H   UNL     1      43.408 -13.523   4.745  1.00  0.00     0.170 HD
BRANCH   7   9
HETATM    9  C   UNL     1      42.825 -15.450   4.249  1.00  0.00     0.129 A 
HETATM   10  N   UNL     1      43.659 -16.513   4.165  1.00  0.00    -0.236 NA
HETATM   11  C   UNL     1      43.330 -17.518   3.316  1.00  0.00     0.033 A 
HETATM   12  C   UNL     1      44.256 -18.696   3.252  1.00  0.00     0.070 C 
HETATM   13  C   UNL     1      42.191 -17.482   2.521  1.00  0.00     0.027 A 
HETATM   14  C   UNL     1      41.352 -16.377   2.609  1.00  0.00     0.006 A 
HETATM   15  C   UNL     1      41.670 -15.345   3.486  1.00  0.00     0.050 A 
ENDBRANCH   7   9
ENDBRANCH   5   7
ENDBRANCH   2   5
BRANCH   1  16
HETATM   16  C   UNL     1      44.285 -11.060   7.664  1.00  0.00     0.032 A 
HETATM   17  C   UNL     1      43.832 -10.619   8.916  1.00  0.00     0.023 A 
HETATM   18  C   UNL     1      44.638  -9.784   9.699  1.00  0.00    -0.061 A 
HETATM   19  C   UNL     1      44.161  -9.290  11.033  1.00  0.00     0.048 C 
HETATM   20  C   UNL     1      45.883  -9.376   9.202  1.00  0.00     0.007 A 
HETATM   21  C   UNL     1      46.336  -9.826   7.959  1.00  0.00     0.002 A 
HETATM   22  C   UNL     1      45.543 -10.679   7.193  1.00  0.00     0.017 A 
ENDBRANCH   1  16
TORSDOF 4
ENDMDL
MODEL 9
REMARK VINA RESULT:      -6.8     15.628     17.327
REMARK  4 active torsions:
REMARK  status: ('A' for Active; 'I' for Inactive)
REMARK    1  A    between atoms: C_4  and  C_5 
REMARK       I    between atoms: C_5  and  N_6 
REMARK    2  A    between atoms: N_6  and  C_7 
REMARK    3  A    between atoms: C_7  and  N_8 
REMARK    4  A    between atoms: N_8  and  C_9 
ROOT
HETATM    1  C   UNL     1      47.084 -28.854   2.148  1.00  0.00     0.257 C 
HETATM    2  N   UNL     1      46.037 -29.767   2.182  1.00  0.00    -0.299 N 
HETATM    3  O   UNL     1      47.005 -27.648   1.959  1.00  0.00    -0.267 OA
HETATM    4  H   UNL     1      46.259 -30.675   2.586  1.00  0.00     0.171 HD
ENDROOT
BRANCH   2   5
HETATM    5  C   UNL     1      44.727 -29.680   1.766  1.00  0.00     0.180 C 
HETATM    6  S   UNL     1      43.419 -30.520   2.376  1.00  0.00    -0.040 SA
BRANCH   5   7
HETATM    7  N   UNL     1      44.477 -28.793   0.744  1.00  0.00    -0.318 N 
HETATM    8  H   UNL     1      44.107 -27.904   1.055  1.00  0.00     0.170 HD
BRANCH   7   9
HETATM    9  C   UNL     1      44.626 -28.984  -0.637  1.00  0.00     0.129 A 
HETATM   10  N   UNL     1      44.350 -30.195  -1.175  1.00  0.00    -0.236 NA
HETATM   11  C   UNL     1      44.474 -30.341  -2.518  1.00  0.00     0.033 A 
HETATM   12  C   UNL     1      44.143 -31.684  -3.097  1.00  0.00     0.070 C 
HETATM   13  C   UNL     1      44.893 -29.308  -3.346  1.00  0.00     0.027 A 
HETATM   14  C   UNL     1      45.186 -28.074  -2.777  1.00  0.00     0.006 A 
HETATM   15  C   UNL     1      45.050 -27.906  -1.402  1.00  0.00     0.050 A 
ENDBRANCH   7   9
ENDBRANCH   5   7
ENDBRANCH   2   5
BRANCH   1  16
HETATM   16  C   UNL     1      48.399 -29.448   2.497  1.00  0.00     0.032 A 
HETATM   17  C   UNL     1      49.131 -30.172   1.543  1.00  0.00     0.023 A 
HETATM   18  C   UNL     1      50.360 -30.746   1.891  1.00  0.00    -0.061 A 
HETATM   19  C   UNL     1      51.146 -31.537   0.888  1.00  0.00     0.048 C 
HETATM   20  C   UNL     1      50.829 -30.609   3.204  1.00  0.00     0.007 A 
HETATM   21  C   UNL     1      50.103 -29.878   4.147  1.00  0.00     0.002 A 
HETATM   22  C   UNL     1      48.893 -29.286   3.792  1.00  0.00     0.017 A 
ENDBRANCH   1  16
TORSDOF 4
ENDMDL
MODEL 10
REMARK VINA RESULT:      -6.7      4.944      5.516
REMARK  4 active torsions:
REMARK  status: ('A' for Active; 'I' for Inactive)
REMARK    1  A    between atoms: C_4  and  C_5 
REMARK       I    between atoms: C_5  and  N_6 
REMARK    2  A    between atoms: N_6  and  C_7 
REMARK    3  A    between atoms: C_7  and  N_8 
REMARK    4  A    between atoms: N_8  and  C_9 
ROOT
HETATM    1  C   UNL     1      41.701 -15.748   3.141  1.00  0.00     0.257 C 
HETATM    2  N   UNL     1      40.960 -15.835   1.969  1.00  0.00    -0.299 N 
HETATM    3  O   UNL     1      41.598 -14.902   4.018  1.00  0.00    -0.267 OA
HETATM    4  H   UNL     1      41.014 -16.727   1.480  1.00  0.00     0.171 HD
ENDROOT
BRANCH   2   5
HETATM    5  C   UNL     1      40.147 -14.927   1.325  1.00  0.00     0.180 C 
HETATM    6  S   UNL     1      39.927 -14.764  -0.323  1.00  0.00    -0.040 SA
BRANCH   5   7
HETATM    7  N   UNL     1      39.436 -14.075   2.137  1.00  0.00    -0.318 N 
HETATM    8  H   UNL     1      38.604 -14.490   2.539  1.00  0.00     0.170 HD
BRANCH   7   9
HETATM    9  C   UNL     1      39.690 -12.727   2.429  1.00  0.00     0.129 A 
HETATM   10  N   UNL     1      40.414 -11.984   1.560  1.00  0.00    -0.236 NA
HETATM   11  C   UNL     1      40.618 -10.675   1.854  1.00  0.00     0.033 A 
HETATM   12  C   UNL     1      41.404  -9.863   0.869  1.00  0.00     0.070 C 
HETATM   13  C   UNL     1      40.135 -10.087   3.016  1.00  0.00     0.027 A 
HETATM   14  C   UNL     1      39.405 -10.867   3.905  1.00  0.00     0.006 A 
HETATM   15  C   UNL     1      39.176 -12.208   3.609  1.00  0.00     0.050 A 
ENDBRANCH   7   9
ENDBRANCH   5   7
ENDBRANCH   2   5
BRANCH   1  16
HETATM   16  C   UNL     1      42.621 -16.895   3.345  1.00  0.00     0.032 A 
HETATM   17  C   UNL     1      42.612 -17.984   2.461  1.00  0.00     0.023 A 
HETATM   18  C   UNL     1      43.470 -19.070   2.677  1.00  0.00    -0.061 A 
HETATM   19  C   UNL     1      43.459 -20.250   1.750  1.00  0.00     0.048 C 
HETATM   20  C   UNL     1      44.311 -19.062   3.797  1.00  0.00     0.007 A 
HETATM   21  C   UNL     1      44.326 -17.970   4.669  1.00  0.00     0.002 A 
HETATM   22  C   UNL     1      43.490 -16.880   4.438  1.00  0.00     0.017 A 
ENDBRANCH   1  16
TORSDOF 4
ENDMDL
