MODEL 1
REMARK VINA RESULT:      -9.4      0.000      0.000
REMARK  8 active torsions:
REMARK  status: ('A' for Active; 'I' for Inactive)
REMARK    1  A    between atoms: O_2  and  C_3 
REMARK    2  A    between atoms: C_4  and  O_5 
REMARK    3  A    between atoms: C_8  and  C_9 
REMARK    4  A    between atoms: C_9  and  N_10 
REMARK    5  A    between atoms: C_19  and  C_20 
REMARK    6  A    between atoms: C_20  and  N_21 
REMARK    7  A    between atoms: C_25  and  O_26 
REMARK    8  A    between atoms: C_25  and  C_27 
ROOT
HETATM    1  N   UNL     1      40.918 -15.693   1.577  1.00  0.00    -0.061 N 
HETATM    2  H   UNL     1      40.663 -16.676   1.430  1.00  0.00     0.280 HD
HETATM    3  C   UNL     1      40.244 -15.329   2.886  1.00  0.00     0.276 C 
HETATM    4  C   UNL     1      40.575 -13.969   3.436  1.00  0.00     0.002 A 
HETATM    5  C   UNL     1      40.263 -12.818   2.713  1.00  0.00     0.076 A 
HETATM    6  O   UNL     1      39.615 -12.896   1.513  1.00  0.00    -0.349 OA
HETATM    7  C   UNL     1      40.456 -13.432   0.483  1.00  0.00     0.203 C 
HETATM    8  C   UNL     1      40.320 -14.955   0.386  1.00  0.00     0.262 C 
HETATM    9  C   UNL     1      41.177 -13.819   4.701  1.00  0.00     0.020 A 
HETATM   10  C   UNL     1      41.507 -12.549   5.212  1.00  0.00    -0.032 A 
HETATM   11  C   UNL     1      41.167 -11.415   4.463  1.00  0.00     0.011 A 
HETATM   12  C   UNL     1      40.528 -11.551   3.228  1.00  0.00     0.038 A 
ENDROOT
BRANCH  10  13
HETATM   13  C   UNL     1      42.242 -12.419   6.527  1.00  0.00     0.273 C 
BRANCH  13  14
HETATM   14  N   UNL     1      43.028 -11.132   6.698  1.00  0.00    -0.067 N 
HETATM   15  H   UNL     1      43.321 -10.835   5.758  1.00  0.00     0.280 HD
HETATM   16  C   UNL     1      42.192 -10.018   7.284  1.00  0.00     0.238 C 
HETATM   17  C   UNL     1      43.040  -8.769   7.457  1.00  0.00     0.071 C 
HETATM   18  C   UNL     1      44.245  -9.017   8.387  1.00  0.00     0.089 C 
HETATM   19  C   UNL     1      45.079 -10.124   7.711  1.00  0.00     0.071 C 
HETATM   20  C   UNL     1      44.286 -11.403   7.498  1.00  0.00     0.238 C 
BRANCH  18  21
HETATM   21  O   UNL     1      45.038  -7.831   8.343  1.00  0.00    -0.385 OA
HETATM   22  H   UNL     1      44.911  -7.370   7.492  1.00  0.00     0.211 HD
ENDBRANCH  18  21
BRANCH  18  23
HETATM   23  C   UNL     1      43.850  -9.278   9.837  1.00  0.00    -0.006 A 
HETATM   24  C   UNL     1      43.937 -10.539  10.428  1.00  0.00     0.126 A 
HETATM   25  N   UNL     1      43.531 -10.831  11.682  1.00  0.00    -0.272 NA
HETATM   26  C   UNL     1      43.084  -9.814  12.442  1.00  0.00     0.116 A 
HETATM   27  C   UNL     1      43.015  -8.511  11.990  1.00  0.00     0.020 A 
HETATM   28  C   UNL     1      43.409  -8.245  10.679  1.00  0.00     0.013 A 
ENDBRANCH  18  23
ENDBRANCH  13  14
ENDBRANCH  10  13
BRANCH   1  29
HETATM   29  C   UNL     1      42.435 -15.691   1.580  1.00  0.00     0.274 C 
BRANCH  29  30
HETATM   30  C   UNL     1      43.044 -16.735   2.475  1.00  0.00    -0.030 A 
HETATM   31  C   UNL     1      43.500 -16.379   3.750  1.00  0.00     0.048 A 
HETATM   32  C   UNL     1      43.930 -17.353   4.652  1.00  0.00     0.102 A 
HETATM   33  C   UNL     1      43.945 -18.707   4.292  1.00  0.00     0.101 A 
HETATM   34  C   UNL     1      43.556 -19.058   2.996  1.00  0.00     0.040 A 
HETATM   35  C   UNL     1      43.105 -18.082   2.095  1.00  0.00     0.012 A 
BRANCH  32  36
HETATM   36  O   UNL     1      44.196 -16.918   5.927  1.00  0.00    -0.353 OA
HETATM   37  C   UNL     1      43.003 -16.479   6.584  1.00  0.00     0.210 C 
ENDBRANCH  32  36
BRANCH  33  38
HETATM   38  O   UNL     1      44.297 -19.599   5.266  1.00  0.00    -0.353 OA
HETATM   39  C   UNL     1      43.944 -20.963   5.060  1.00  0.00     0.210 C 
ENDBRANCH  33  38
ENDBRANCH  29  30
ENDBRANCH   1  29
TORSDOF 8
ENDMDL
MODEL 2
REMARK VINA RESULT:      -8.8      1.923      5.499
REMARK  8 active torsions:
REMARK  status: ('A' for Active; 'I' for Inactive)
REMARK    1  A    between atoms: O_2  and  C_3 
REMARK    2  A    between atoms: C_4  and  O_5 
REMARK    3  A    between atoms: C_8  and  C_9 
REMARK    4  A    between atoms: C_9  and  N_10 
REMARK    5  A    between atoms: C_19  and  C_20 
REMARK    6  A    between atoms: C_20  and  N_21 
REMARK    7  A    between atoms: C_25  and  O_26 
REMARK    8  A    between atoms: C_25  and  C_27 
ROOT
HETATM    1  N   UNL     1      42.344 -15.253   1.312  1.00  0.00    -0.061 N 
HETATM    2  H   UNL     1      42.594 -15.077   0.332  1.00  0.00     0.280 HD
HETATM    3  C   UNL     1      43.145 -14.225   2.088  1.00  0.00     0.276 C 
HETATM    4  C   UNL     1      42.856 -14.145   3.561  1.00  0.00     0.002 A 
HETATM    5  C   UNL     1      43.076 -15.249   4.386  1.00  0.00     0.076 A 
HETATM    6  O   UNL     1      43.596 -16.408   3.886  1.00  0.00    -0.349 OA
HETATM    7  C   UNL     1      42.659 -17.099   3.049  1.00  0.00     0.203 C 
HETATM    8  C   UNL     1      42.804 -16.679   1.582  1.00  0.00     0.262 C 
HETATM    9  C   UNL     1      42.388 -12.955   4.151  1.00  0.00     0.020 A 
HETATM   10  C   UNL     1      42.096 -12.881   5.526  1.00  0.00    -0.032 A 
HETATM   11  C   UNL     1      42.341 -14.005   6.326  1.00  0.00     0.011 A 
HETATM   12  C   UNL     1      42.849 -15.177   5.759  1.00  0.00     0.038 A 
ENDROOT
BRANCH  10  13
HETATM   13  C   UNL     1      41.501 -11.623   6.117  1.00  0.00     0.273 C 
BRANCH  13  14
HETATM   14  N   UNL     1      42.502 -10.530   6.441  1.00  0.00    -0.067 N 
HETATM   15  H   UNL     1      42.797 -10.120   5.545  1.00  0.00     0.280 HD
HETATM   16  C   UNL     1      41.899  -9.420   7.269  1.00  0.00     0.238 C 
HETATM   17  C   UNL     1      42.955  -8.374   7.584  1.00  0.00     0.071 C 
HETATM   18  C   UNL     1      44.143  -8.973   8.363  1.00  0.00     0.089 C 
HETATM   19  C   UNL     1      44.742 -10.061   7.448  1.00  0.00     0.071 C 
HETATM   20  C   UNL     1      43.733 -11.138   7.085  1.00  0.00     0.238 C 
BRANCH  18  21
HETATM   21  O   UNL     1      45.124  -7.941   8.458  1.00  0.00    -0.385 OA
HETATM   22  H   UNL     1      44.692  -7.067   8.517  1.00  0.00     0.211 HD
ENDBRANCH  18  21
BRANCH  18  23
HETATM   23  C   UNL     1      43.780  -9.423   9.774  1.00  0.00    -0.006 A 
HETATM   24  C   UNL     1      44.255 -10.609  10.335  1.00  0.00     0.126 A 
HETATM   25  N   UNL     1      43.902 -11.082  11.549  1.00  0.00    -0.272 NA
HETATM   26  C   UNL     1      43.095 -10.313  12.305  1.00  0.00     0.116 A 
HETATM   27  C   UNL     1      42.616  -9.088  11.885  1.00  0.00     0.020 A 
HETATM   28  C   UNL     1      42.969  -8.641  10.612  1.00  0.00     0.013 A 
ENDBRANCH  18  23
ENDBRANCH  13  14
ENDBRANCH  10  13
BRANCH   1  29
HETATM   29  C   UNL     1      40.835 -15.096   1.351  1.00  0.00     0.274 C 
BRANCH  29  30
HETATM   30  C   UNL     1      40.303 -14.080   0.377  1.00  0.00    -0.030 A 
HETATM   31  C   UNL     1      40.238 -14.391  -0.987  1.00  0.00     0.048 A 
HETATM   32  C   UNL     1      39.613 -13.527  -1.887  1.00  0.00     0.102 A 
HETATM   33  C   UNL     1      39.063 -12.314  -1.451  1.00  0.00     0.101 A 
HETATM   34  C   UNL     1      39.187 -11.970  -0.102  1.00  0.00     0.040 A 
HETATM   35  C   UNL     1      39.798 -12.846   0.807  1.00  0.00     0.012 A 
BRANCH  32  36
HETATM   36  O   UNL     1      39.456 -14.000  -3.166  1.00  0.00    -0.353 OA
HETATM   37  C   UNL     1      38.400 -14.963  -3.235  1.00  0.00     0.210 C 
ENDBRANCH  32  36
BRANCH  33  38
HETATM   38  O   UNL     1      38.393 -11.572  -2.385  1.00  0.00    -0.353 OA
HETATM   39  C   UNL     1      39.128 -10.556  -3.060  1.00  0.00     0.210 C 
ENDBRANCH  33  38
ENDBRANCH  29  30
ENDBRANCH   1  29
TORSDOF 8
ENDMDL
MODEL 3
REMARK VINA RESULT:      -8.6      3.285      6.593
REMARK  8 active torsions:
REMARK  status: ('A' for Active; 'I' for Inactive)
REMARK    1  A    between atoms: O_2  and  C_3 
REMARK    2  A    between atoms: C_4  and  O_5 
REMARK    3  A    between atoms: C_8  and  C_9 
REMARK    4  A    between atoms: C_9  and  N_10 
REMARK    5  A    between atoms: C_19  and  C_20 
REMARK    6  A    between atoms: C_20  and  N_21 
REMARK    7  A    between atoms: C_25  and  O_26 
REMARK    8  A    between atoms: C_25  and  C_27 
ROOT
HETATM    1  N   UNL     1      43.798 -11.319   6.339  1.00  0.00    -0.061 N 
HETATM    2  H   UNL     1      43.315 -11.328   5.433  1.00  0.00     0.280 HD
HETATM    3  C   UNL     1      43.268 -10.074   7.026  1.00  0.00     0.276 C 
HETATM    4  C   UNL     1      43.692  -9.885   8.456  1.00  0.00     0.002 A 
HETATM    5  C   UNL     1      45.042  -9.747   8.782  1.00  0.00     0.076 A 
HETATM    6  O   UNL     1      46.002  -9.737   7.811  1.00  0.00    -0.349 OA
HETATM    7  C   UNL     1      46.178 -11.031   7.218  1.00  0.00     0.203 C 
HETATM    8  C   UNL     1      45.276 -11.212   5.992  1.00  0.00     0.262 C 
HETATM    9  C   UNL     1      42.745  -9.812   9.496  1.00  0.00     0.020 A 
HETATM   10  C   UNL     1      43.137  -9.656  10.838  1.00  0.00    -0.032 A 
HETATM   11  C   UNL     1      44.501  -9.507  11.127  1.00  0.00     0.011 A 
HETATM   12  C   UNL     1      45.446  -9.532  10.097  1.00  0.00     0.038 A 
ENDROOT
BRANCH  10  13
HETATM   13  C   UNL     1      42.109  -9.680  11.946  1.00  0.00     0.273 C 
BRANCH  13  14
HETATM   14  N   UNL     1      42.370  -8.713  13.086  1.00  0.00    -0.067 N 
HETATM   15  H   UNL     1      43.297  -8.944  13.467  1.00  0.00     0.280 HD
HETATM   16  C   UNL     1      42.418  -7.275  12.624  1.00  0.00     0.238 C 
HETATM   17  C   UNL     1      42.653  -6.356  13.811  1.00  0.00     0.071 C 
HETATM   18  C   UNL     1      41.542  -6.492  14.872  1.00  0.00     0.089 C 
HETATM   19  C   UNL     1      41.579  -7.962  15.335  1.00  0.00     0.071 C 
HETATM   20  C   UNL     1      41.359  -8.939  14.192  1.00  0.00     0.238 C 
BRANCH  18  21
HETATM   21  O   UNL     1      41.955  -5.707  15.990  1.00  0.00    -0.385 OA
HETATM   22  H   UNL     1      42.823  -6.011  16.317  1.00  0.00     0.211 HD
ENDBRANCH  18  21
BRANCH  18  23
HETATM   23  C   UNL     1      40.185  -5.981  14.400  1.00  0.00    -0.006 A 
HETATM   24  C   UNL     1      38.988  -6.320  15.032  1.00  0.00     0.126 A 
HETATM   25  N   UNL     1      37.761  -5.951  14.607  1.00  0.00    -0.272 NA
HETATM   26  C   UNL     1      37.694  -5.132  13.540  1.00  0.00     0.116 A 
HETATM   27  C   UNL     1      38.813  -4.674  12.873  1.00  0.00     0.020 A 
HETATM   28  C   UNL     1      40.066  -5.098  13.313  1.00  0.00     0.013 A 
ENDBRANCH  18  23
ENDBRANCH  13  14
ENDBRANCH  10  13
BRANCH   1  29
HETATM   29  C   UNL     1      43.429 -12.645   6.978  1.00  0.00     0.274 C 
BRANCH  29  30
HETATM   30  C   UNL     1      43.433 -13.805   6.020  1.00  0.00    -0.030 A 
HETATM   31  C   UNL     1      43.988 -15.030   6.412  1.00  0.00     0.048 A 
HETATM   32  C   UNL     1      43.871 -16.159   5.601  1.00  0.00     0.102 A 
HETATM   33  C   UNL     1      43.223 -16.086   4.361  1.00  0.00     0.101 A 
HETATM   34  C   UNL     1      42.729 -14.849   3.937  1.00  0.00     0.040 A 
HETATM   35  C   UNL     1      42.828 -13.718   4.760  1.00  0.00     0.012 A 
BRANCH  32  36
HETATM   36  O   UNL     1      44.299 -17.342   6.150  1.00  0.00    -0.353 OA
HETATM   37  C   UNL     1      43.281 -17.935   6.962  1.00  0.00     0.210 C 
ENDBRANCH  32  36
BRANCH  33  38
HETATM   38  O   UNL     1      43.077 -17.259   3.673  1.00  0.00    -0.353 OA
HETATM   39  C   UNL     1      43.070 -17.184   2.251  1.00  0.00     0.210 C 
ENDBRANCH  33  38
ENDBRANCH  29  30
ENDBRANCH   1  29
TORSDOF 8
ENDMDL
MODEL 4
REMARK VINA RESULT:      -8.4      2.811      9.657
REMARK  8 active torsions:
REMARK  status: ('A' for Active; 'I' for Inactive)
REMARK    1  A    between atoms: O_2  and  C_3 
REMARK    2  A    between atoms: C_4  and  O_5 
REMARK    3  A    between atoms: C_8  and  C_9 
REMARK    4  A    between atoms: C_9  and  N_10 
REMARK    5  A    between atoms: C_19  and  C_20 
REMARK    6  A    between atoms: C_20  and  N_21 
REMARK    7  A    between atoms: C_25  and  O_26 
REMARK    8  A    between atoms: C_25  and  C_27 
ROOT
HETATM    1  N   UNL     1      43.044 -14.710   6.687  1.00  0.00    -0.061 N 
HETATM    2  H   UNL     1      42.918 -14.377   7.650  1.00  0.00     0.280 HD
HETATM    3  C   UNL     1      41.643 -15.079   6.237  1.00  0.00     0.276 C 
HETATM    4  C   UNL     1      41.499 -15.459   4.790  1.00  0.00     0.002 A 
HETATM    5  C   UNL     1      42.181 -16.563   4.277  1.00  0.00     0.076 A 
HETATM    6  O   UNL     1      42.958 -17.346   5.083  1.00  0.00    -0.349 OA
HETATM    7  C   UNL     1      44.157 -16.673   5.489  1.00  0.00     0.203 C 
HETATM    8  C   UNL     1      43.957 -15.923   6.811  1.00  0.00     0.262 C 
HETATM    9  C   UNL     1      40.655 -14.736   3.925  1.00  0.00     0.020 A 
HETATM   10  C   UNL     1      40.532 -15.076   2.564  1.00  0.00    -0.032 A 
HETATM   11  C   UNL     1      41.222 -16.199   2.087  1.00  0.00     0.011 A 
HETATM   12  C   UNL     1      42.026 -16.950   2.948  1.00  0.00     0.038 A 
ENDROOT
BRANCH  10  13
HETATM   13  C   UNL     1      39.698 -14.225   1.633  1.00  0.00     0.273 C 
BRANCH  13  14
HETATM   14  N   UNL     1      40.333 -13.937   0.286  1.00  0.00    -0.067 N 
HETATM   15  H   UNL     1      41.254 -14.395   0.285  1.00  0.00     0.280 HD
HETATM   16  C   UNL     1      39.540 -14.517  -0.863  1.00  0.00     0.238 C 
HETATM   17  C   UNL     1      40.208 -14.171  -2.183  1.00  0.00     0.071 C 
HETATM   18  C   UNL     1      40.321 -12.647  -2.387  1.00  0.00     0.089 C 
HETATM   19  C   UNL     1      41.178 -12.126  -1.216  1.00  0.00     0.071 C 
HETATM   20  C   UNL     1      40.570 -12.447   0.140  1.00  0.00     0.238 C 
BRANCH  18  21
HETATM   21  O   UNL     1      41.097 -12.456  -3.570  1.00  0.00    -0.385 OA
HETATM   22  H   UNL     1      40.741 -11.711  -4.092  1.00  0.00     0.211 HD
ENDBRANCH  18  21
BRANCH  18  23
HETATM   23  C   UNL     1      38.974 -11.958  -2.579  1.00  0.00    -0.006 A 
HETATM   24  C   UNL     1      37.776 -12.662  -2.705  1.00  0.00     0.126 A 
HETATM   25  N   UNL     1      36.574 -12.099  -2.949  1.00  0.00    -0.272 NA
HETATM   26  C   UNL     1      36.516 -10.755  -2.995  1.00  0.00     0.116 A 
HETATM   27  C   UNL     1      37.623  -9.948  -2.816  1.00  0.00     0.020 A 
HETATM   28  C   UNL     1      38.857 -10.558  -2.601  1.00  0.00     0.013 A 
ENDBRANCH  18  23
ENDBRANCH  13  14
ENDBRANCH  10  13
BRANCH   1  29
HETATM   29  C   UNL     1      43.695 -13.545   5.966  1.00  0.00     0.274 C 
BRANCH  29  30
HETATM   30  C   UNL     1      43.416 -12.207   6.594  1.00  0.00    -0.030 A 
HETATM   31  C   UNL     1      44.311 -11.677   7.532  1.00  0.00     0.048 A 
HETATM   32  C   UNL     1      44.154 -10.378   8.015  1.00  0.00     0.102 A 
HETATM   33  C   UNL     1      43.077  -9.584   7.597  1.00  0.00     0.101 A 
HETATM   34  C   UNL     1      42.144 -10.134   6.713  1.00  0.00     0.040 A 
HETATM   35  C   UNL     1      42.312 -11.433   6.211  1.00  0.00     0.012 A 
BRANCH  32  36
HETATM   36  O   UNL     1      45.174  -9.898   8.798  1.00  0.00    -0.353 OA
HETATM   37  C   UNL     1      46.263  -9.429   7.997  1.00  0.00     0.210 C 
ENDBRANCH  32  36
BRANCH  33  38
HETATM   38  O   UNL     1      43.050  -8.295   8.053  1.00  0.00    -0.353 OA
HETATM   39  C   UNL     1      42.048  -7.962   9.008  1.00  0.00     0.210 C 
ENDBRANCH  33  38
ENDBRANCH  29  30
ENDBRANCH   1  29
TORSDOF 8
ENDMDL
MODEL 5
REMARK VINA RESULT:      -8.4      1.649      2.504
REMARK  8 active torsions:
REMARK  status: ('A' for Active; 'I' for Inactive)
REMARK    1  A    between atoms: O_2  and  C_3 
REMARK    2  A    between atoms: C_4  and  O_5 
REMARK    3  A    between atoms: C_8  and  C_9 
REMARK    4  A    between atoms: C_9  and  N_10 
REMARK    5  A    between atoms: C_19  and  C_20 
REMARK    6  A    between atoms: C_20  and  N_21 
REMARK    7  A    between atoms: C_25  and  O_26 
REMARK    8  A    between atoms: C_25  and  C_27 
ROOT
HETATM    1  N   UNL     1      40.872 -14.842   1.267  1.00  0.00    -0.061 N 
HETATM    2  H   UNL     1      40.924 -15.848   1.073  1.00  0.00     0.280 HD
HETATM    3  C   UNL     1      39.748 -14.719   2.279  1.00  0.00     0.276 C 
HETATM    4  C   UNL     1      39.546 -13.351   2.869  1.00  0.00     0.002 A 
HETATM    5  C   UNL     1      39.212 -12.270   2.053  1.00  0.00     0.076 A 
HETATM    6  O   UNL     1      39.020 -12.436   0.711  1.00  0.00    -0.349 OA
HETATM    7  C   UNL     1      40.250 -12.700   0.022  1.00  0.00     0.203 C 
HETATM    8  C   UNL     1      40.526 -14.205  -0.072  1.00  0.00     0.262 C 
HETATM    9  C   UNL     1      39.657 -13.130   4.256  1.00  0.00     0.020 A 
HETATM   10  C   UNL     1      39.488 -11.848   4.811  1.00  0.00    -0.032 A 
HETATM   11  C   UNL     1      39.141 -10.788   3.962  1.00  0.00     0.011 A 
HETATM   12  C   UNL     1      38.983 -11.006   2.591  1.00  0.00     0.038 A 
ENDROOT
BRANCH  10  13
HETATM   13  C   UNL     1      39.710 -11.617   6.289  1.00  0.00     0.273 C 
BRANCH  13  14
HETATM   14  N   UNL     1      40.192 -10.225   6.656  1.00  0.00    -0.067 N 
HETATM   15  H   UNL     1      39.857  -9.589   5.919  1.00  0.00     0.280 HD
HETATM   16  C   UNL     1      39.617  -9.741   7.966  1.00  0.00     0.238 C 
HETATM   17  C   UNL     1      40.158  -8.359   8.292  1.00  0.00     0.071 C 
HETATM   18  C   UNL     1      41.696  -8.355   8.402  1.00  0.00     0.089 C 
HETATM   19  C   UNL     1      42.219  -8.810   7.024  1.00  0.00     0.071 C 
HETATM   20  C   UNL     1      41.707 -10.185   6.631  1.00  0.00     0.238 C 
BRANCH  18  21
HETATM   21  O   UNL     1      42.085  -6.990   8.552  1.00  0.00    -0.385 OA
HETATM   22  H   UNL     1      41.306  -6.434   8.745  1.00  0.00     0.211 HD
ENDBRANCH  18  21
BRANCH  18  23
HETATM   23  C   UNL     1      42.221  -9.139   9.600  1.00  0.00    -0.006 A 
HETATM   24  C   UNL     1      41.473  -9.337  10.761  1.00  0.00     0.126 A 
HETATM   25  N   UNL     1      41.923  -9.960  11.871  1.00  0.00    -0.272 NA
HETATM   26  C   UNL     1      43.157 -10.497  11.824  1.00  0.00     0.116 A 
HETATM   27  C   UNL     1      43.966 -10.425  10.707  1.00  0.00     0.020 A 
HETATM   28  C   UNL     1      43.488  -9.746   9.587  1.00  0.00     0.013 A 
ENDBRANCH  18  23
ENDBRANCH  13  14
ENDBRANCH  10  13
BRANCH   1  29
HETATM   29  C   UNL     1      42.260 -14.479   1.759  1.00  0.00     0.274 C 
BRANCH  29  30
HETATM   30  C   UNL     1      42.664 -15.189   3.022  1.00  0.00    -0.030 A 
HETATM   31  C   UNL     1      42.883 -16.572   3.004  1.00  0.00     0.048 A 
HETATM   32  C   UNL     1      43.401 -17.228   4.121  1.00  0.00     0.102 A 
HETATM   33  C   UNL     1      43.684 -16.523   5.298  1.00  0.00     0.101 A 
HETATM   34  C   UNL     1      43.403 -15.154   5.342  1.00  0.00     0.040 A 
HETATM   35  C   UNL     1      42.901 -14.490   4.213  1.00  0.00     0.012 A 
BRANCH  32  36
HETATM   36  O   UNL     1      43.733 -18.548   3.944  1.00  0.00    -0.353 OA
HETATM   37  C   UNL     1      43.573 -18.944   2.579  1.00  0.00     0.210 C 
ENDBRANCH  32  36
BRANCH  33  38
HETATM   38  O   UNL     1      44.271 -17.229   6.312  1.00  0.00    -0.353 OA
HETATM   39  C   UNL     1      43.961 -16.835   7.645  1.00  0.00     0.210 C 
ENDBRANCH  33  38
ENDBRANCH  29  30
ENDBRANCH   1  29
TORSDOF 8
ENDMDL
MODEL 6
REMARK VINA RESULT:      -8.4      1.735      2.041
REMARK  8 active torsions:
REMARK  status: ('A' for Active; 'I' for Inactive)
REMARK    1  A    between atoms: O_2  and  C_3 
REMARK    2  A    between atoms: C_4  and  O_5 
REMARK    3  A    between atoms: C_8  and  C_9 
REMARK    4  A    between atoms: C_9  and  N_10 
REMARK    5  A    between atoms: C_19  and  C_20 
REMARK    6  A    between atoms: C_20  and  N_21 
REMARK    7  A    between atoms: C_25  and  O_26 
REMARK    8  A    between atoms: C_25  and  C_27 
ROOT
HETATM    1  N   UNL     1      40.920 -15.493   1.810  1.00  0.00    -0.061 N 
HETATM    2  H   UNL     1      40.737 -16.503   1.833  1.00  0.00     0.280 HD
HETATM    3  C   UNL     1      40.102 -14.944   2.964  1.00  0.00     0.276 C 
HETATM    4  C   UNL     1      40.301 -13.486   3.271  1.00  0.00     0.002 A 
HETATM    5  C   UNL     1      39.998 -12.514   2.317  1.00  0.00     0.076 A 
HETATM    6  O   UNL     1      39.476 -12.859   1.103  1.00  0.00    -0.349 OA
HETATM    7  C   UNL     1      40.443 -13.513   0.270  1.00  0.00     0.203 C 
HETATM    8  C   UNL     1      40.402 -15.034   0.454  1.00  0.00     0.262 C 
HETATM    9  C   UNL     1      40.766 -13.061   4.531  1.00  0.00     0.020 A 
HETATM   10  C   UNL     1      40.974 -11.699   4.817  1.00  0.00    -0.032 A 
HETATM   11  C   UNL     1      40.646 -10.750   3.839  1.00  0.00     0.011 A 
HETATM   12  C   UNL     1      40.140 -11.158   2.602  1.00  0.00     0.038 A 
ENDROOT
BRANCH  10  13
HETATM   13  C   UNL     1      41.567 -11.275   6.141  1.00  0.00     0.273 C 
BRANCH  13  14
HETATM   14  N   UNL     1      41.098  -9.925   6.651  1.00  0.00    -0.067 N 
HETATM   15  H   UNL     1      40.904  -9.344   5.825  1.00  0.00     0.280 HD
HETATM   16  C   UNL     1      39.817 -10.020   7.447  1.00  0.00     0.238 C 
HETATM   17  C   UNL     1      39.416  -8.645   7.953  1.00  0.00     0.071 C 
HETATM   18  C   UNL     1      40.504  -8.025   8.852  1.00  0.00     0.089 C 
HETATM   19  C   UNL     1      41.765  -7.909   7.971  1.00  0.00     0.071 C 
HETATM   20  C   UNL     1      42.217  -9.252   7.422  1.00  0.00     0.238 C 
BRANCH  18  21
HETATM   21  O   UNL     1      40.083  -6.689   9.130  1.00  0.00    -0.385 OA
HETATM   22  H   UNL     1      40.858  -6.112   9.272  1.00  0.00     0.211 HD
ENDBRANCH  18  21
BRANCH  18  23
HETATM   23  C   UNL     1      40.688  -8.756  10.177  1.00  0.00    -0.006 A 
HETATM   24  C   UNL     1      41.943  -9.090  10.688  1.00  0.00     0.126 A 
HETATM   25  N   UNL     1      42.151  -9.800  11.818  1.00  0.00    -0.272 NA
HETATM   26  C   UNL     1      41.070 -10.142  12.544  1.00  0.00     0.116 A 
HETATM   27  C   UNL     1      39.781  -9.809  12.175  1.00  0.00     0.020 A 
HETATM   28  C   UNL     1      39.594  -9.105  10.986  1.00  0.00     0.013 A 
ENDBRANCH  18  23
ENDBRANCH  13  14
ENDBRANCH  10  13
BRANCH   1  29
HETATM   29  C   UNL     1      42.427 -15.380   1.943  1.00  0.00     0.274 C 
BRANCH  29  30
HETATM   30  C   UNL     1      43.055 -16.493   2.738  1.00  0.00    -0.030 A 
HETATM   31  C   UNL     1      43.389 -16.284   4.082  1.00  0.00     0.048 A 
HETATM   32  C   UNL     1      43.832 -17.340   4.880  1.00  0.00     0.102 A 
HETATM   33  C   UNL     1      43.982 -18.627   4.345  1.00  0.00     0.101 A 
HETATM   34  C   UNL     1      43.714 -18.823   2.987  1.00  0.00     0.040 A 
HETATM   35  C   UNL     1      43.250 -17.766   2.190  1.00  0.00     0.012 A 
BRANCH  32  36
HETATM   36  O   UNL     1      43.972 -17.068   6.217  1.00  0.00    -0.353 OA
HETATM   37  C   UNL     1      42.738 -16.620   6.786  1.00  0.00     0.210 C 
ENDBRANCH  32  36
BRANCH  33  38
HETATM   38  O   UNL     1      44.336 -19.619   5.218  1.00  0.00    -0.353 OA
HETATM   39  C   UNL     1      43.869 -20.934   4.936  1.00  0.00     0.210 C 
ENDBRANCH  33  38
ENDBRANCH  29  30
ENDBRANCH   1  29
TORSDOF 8
ENDMDL
MODEL 7
REMARK VINA RESULT:      -8.2      1.900      2.720
REMARK  8 active torsions:
REMARK  status: ('A' for Active; 'I' for Inactive)
REMARK    1  A    between atoms: O_2  and  C_3 
REMARK    2  A    between atoms: C_4  and  O_5 
REMARK    3  A    between atoms: C_8  and  C_9 
REMARK    4  A    between atoms: C_9  and  N_10 
REMARK    5  A    between atoms: C_19  and  C_20 
REMARK    6  A    between atoms: C_20  and  N_21 
REMARK    7  A    between atoms: C_25  and  O_26 
REMARK    8  A    between atoms: C_25  and  C_27 
ROOT
HETATM    1  N   UNL     1      40.705 -15.018   2.327  1.00  0.00    -0.061 N 
HETATM    2  H   UNL     1      40.467 -15.848   2.882  1.00  0.00     0.280 HD
HETATM    3  C   UNL     1      39.861 -13.914   2.935  1.00  0.00     0.276 C 
HETATM    4  C   UNL     1      40.122 -12.528   2.414  1.00  0.00     0.002 A 
HETATM    5  C   UNL     1      39.920 -12.229   1.066  1.00  0.00     0.076 A 
HETATM    6  O   UNL     1      39.442 -13.171   0.201  1.00  0.00    -0.349 OA
HETATM    7  C   UNL     1      40.413 -14.191  -0.071  1.00  0.00     0.203 C 
HETATM    8  C   UNL     1      40.281 -15.364   0.906  1.00  0.00     0.262 C 
HETATM    9  C   UNL     1      40.545 -11.493   3.270  1.00  0.00     0.020 A 
HETATM   10  C   UNL     1      40.811 -10.199   2.784  1.00  0.00    -0.032 A 
HETATM   11  C   UNL     1      40.585  -9.932   1.427  1.00  0.00     0.011 A 
HETATM   12  C   UNL     1      40.120 -10.940   0.578  1.00  0.00     0.038 A 
ENDROOT
BRANCH  10  13
HETATM   13  C   UNL     1      41.360  -9.132   3.703  1.00  0.00     0.273 C 
BRANCH  13  14
HETATM   14  N   UNL     1      41.076  -9.348   5.178  1.00  0.00    -0.067 N 
HETATM   15  H   UNL     1      40.057  -9.459   5.273  1.00  0.00     0.280 HD
HETATM   16  C   UNL     1      41.719 -10.606   5.713  1.00  0.00     0.238 C 
HETATM   17  C   UNL     1      41.424 -10.751   7.196  1.00  0.00     0.071 C 
HETATM   18  C   UNL     1      41.951  -9.550   8.006  1.00  0.00     0.089 C 
HETATM   19  C   UNL     1      41.223  -8.311   7.448  1.00  0.00     0.071 C 
HETATM   20  C   UNL     1      41.468  -8.111   5.961  1.00  0.00     0.238 C 
BRANCH  18  21
HETATM   21  O   UNL     1      41.479  -9.728   9.342  1.00  0.00    -0.385 OA
HETATM   22  H   UNL     1      42.167 -10.149   9.892  1.00  0.00     0.211 HD
ENDBRANCH  18  21
BRANCH  18  23
HETATM   23  C   UNL     1      43.473  -9.463   8.042  1.00  0.00    -0.006 A 
HETATM   24  C   UNL     1      44.155  -8.291   8.375  1.00  0.00     0.126 A 
HETATM   25  N   UNL     1      45.497  -8.148   8.348  1.00  0.00    -0.272 NA
HETATM   26  C   UNL     1      46.232  -9.237   8.056  1.00  0.00     0.116 A 
HETATM   27  C   UNL     1      45.673 -10.469   7.777  1.00  0.00     0.020 A 
HETATM   28  C   UNL     1      44.283 -10.579   7.778  1.00  0.00     0.013 A 
ENDBRANCH  18  23
ENDBRANCH  13  14
ENDBRANCH  10  13
BRANCH   1  29
HETATM   29  C   UNL     1      42.207 -14.877   2.484  1.00  0.00     0.274 C 
BRANCH  29  30
HETATM   30  C   UNL     1      42.882 -16.109   3.024  1.00  0.00    -0.030 A 
HETATM   31  C   UNL     1      43.231 -16.174   4.379  1.00  0.00     0.048 A 
HETATM   32  C   UNL     1      43.720 -17.357   4.934  1.00  0.00     0.102 A 
HETATM   33  C   UNL     1      43.902 -18.498   4.142  1.00  0.00     0.101 A 
HETATM   34  C   UNL     1      43.620 -18.415   2.775  1.00  0.00     0.040 A 
HETATM   35  C   UNL     1      43.110 -17.233   2.220  1.00  0.00     0.012 A 
BRANCH  32  36
HETATM   36  O   UNL     1      43.872 -17.365   6.298  1.00  0.00    -0.353 OA
HETATM   37  C   UNL     1      42.787 -16.692   6.944  1.00  0.00     0.210 C 
ENDBRANCH  32  36
BRANCH  33  38
HETATM   38  O   UNL     1      44.301 -19.637   4.785  1.00  0.00    -0.353 OA
HETATM   39  C   UNL     1      44.008 -20.880   4.154  1.00  0.00     0.210 C 
ENDBRANCH  33  38
ENDBRANCH  29  30
ENDBRANCH   1  29
TORSDOF 8
ENDMDL
MODEL 8
REMARK VINA RESULT:      -8.2      3.262      6.356
REMARK  8 active torsions:
REMARK  status: ('A' for Active; 'I' for Inactive)
REMARK    1  A    between atoms: O_2  and  C_3 
REMARK    2  A    between atoms: C_4  and  O_5 
REMARK    3  A    between atoms: C_8  and  C_9 
REMARK    4  A    between atoms: C_9  and  N_10 
REMARK    5  A    between atoms: C_19  and  C_20 
REMARK    6  A    between atoms: C_20  and  N_21 
REMARK    7  A    between atoms: C_25  and  O_26 
REMARK    8  A    between atoms: C_25  and  C_27 
ROOT
HETATM    1  N   UNL     1      43.745 -11.736   6.364  1.00  0.00    -0.061 N 
HETATM    2  H   UNL     1      43.194 -11.883   5.511  1.00  0.00     0.280 HD
HETATM    3  C   UNL     1      43.145 -10.487   6.981  1.00  0.00     0.276 C 
HETATM    4  C   UNL     1      43.663 -10.116   8.343  1.00  0.00     0.002 A 
HETATM    5  C   UNL     1      45.012  -9.814   8.529  1.00  0.00     0.076 A 
HETATM    6  O   UNL     1      45.882  -9.807   7.476  1.00  0.00    -0.349 OA
HETATM    7  C   UNL     1      46.146 -11.130   6.990  1.00  0.00     0.203 C 
HETATM    8  C   UNL     1      45.171 -11.521   5.874  1.00  0.00     0.262 C 
HETATM    9  C   UNL     1      42.802 -10.032   9.454  1.00  0.00     0.020 A 
HETATM   10  C   UNL     1      43.285  -9.705  10.735  1.00  0.00    -0.032 A 
HETATM   11  C   UNL     1      44.644  -9.396  10.882  1.00  0.00     0.011 A 
HETATM   12  C   UNL     1      45.498  -9.430   9.777  1.00  0.00     0.038 A 
ENDROOT
BRANCH  10  13
HETATM   13  C   UNL     1      42.359  -9.719  11.931  1.00  0.00     0.273 C 
BRANCH  13  14
HETATM   14  N   UNL     1      41.344  -8.592  11.969  1.00  0.00    -0.067 N 
HETATM   15  H   UNL     1      40.941  -8.520  11.026  1.00  0.00     0.280 HD
HETATM   16  C   UNL     1      40.207  -8.869  12.925  1.00  0.00     0.238 C 
HETATM   17  C   UNL     1      39.243  -7.696  12.941  1.00  0.00     0.071 C 
HETATM   18  C   UNL     1      39.937  -6.389  13.374  1.00  0.00     0.089 C 
HETATM   19  C   UNL     1      41.048  -6.137  12.335  1.00  0.00     0.071 C 
HETATM   20  C   UNL     1      42.046  -7.281  12.260  1.00  0.00     0.238 C 
BRANCH  18  21
HETATM   21  O   UNL     1      38.977  -5.346  13.198  1.00  0.00    -0.385 OA
HETATM   22  H   UNL     1      38.174  -5.694  12.765  1.00  0.00     0.211 HD
ENDBRANCH  18  21
BRANCH  18  23
HETATM   23  C   UNL     1      40.382  -6.391  14.832  1.00  0.00    -0.006 A 
HETATM   24  C   UNL     1      41.725  -6.414  15.212  1.00  0.00     0.126 A 
HETATM   25  N   UNL     1      42.163  -6.491  16.487  1.00  0.00    -0.272 NA
HETATM   26  C   UNL     1      41.237  -6.463  17.464  1.00  0.00     0.116 A 
HETATM   27  C   UNL     1      39.883  -6.372  17.214  1.00  0.00     0.020 A 
HETATM   28  C   UNL     1      39.457  -6.329  15.887  1.00  0.00     0.013 A 
ENDBRANCH  18  23
ENDBRANCH  13  14
ENDBRANCH  10  13
BRANCH   1  29
HETATM   29  C   UNL     1      43.573 -13.022   7.152  1.00  0.00     0.274 C 
BRANCH  29  30
HETATM   30  C   UNL     1      43.505 -14.257   6.296  1.00  0.00    -0.030 A 
HETATM   31  C   UNL     1      42.756 -14.243   5.112  1.00  0.00     0.048 A 
HETATM   32  C   UNL     1      42.798 -15.322   4.229  1.00  0.00     0.102 A 
HETATM   33  C   UNL     1      43.565 -16.458   4.521  1.00  0.00     0.101 A 
HETATM   34  C   UNL     1      44.259 -16.502   5.733  1.00  0.00     0.040 A 
HETATM   35  C   UNL     1      44.234 -15.410   6.613  1.00  0.00     0.012 A 
BRANCH  32  36
HETATM   36  O   UNL     1      42.165 -15.140   3.025  1.00  0.00    -0.353 OA
HETATM   37  C   UNL     1      40.828 -14.664   3.210  1.00  0.00     0.210 C 
ENDBRANCH  32  36
BRANCH  33  38
HETATM   38  O   UNL     1      43.618 -17.429   3.559  1.00  0.00    -0.353 OA
HETATM   39  C   UNL     1      44.192 -18.679   3.925  1.00  0.00     0.210 C 
ENDBRANCH  33  38
ENDBRANCH  29  30
ENDBRANCH   1  29
TORSDOF 8
ENDMDL
MODEL 9
REMARK VINA RESULT:      -8.1      2.434      3.414
REMARK  8 active torsions:
REMARK  status: ('A' for Active; 'I' for Inactive)
REMARK    1  A    between atoms: O_2  and  C_3 
REMARK    2  A    between atoms: C_4  and  O_5 
REMARK    3  A    between atoms: C_8  and  C_9 
REMARK    4  A    between atoms: C_9  and  N_10 
REMARK    5  A    between atoms: C_19  and  C_20 
REMARK    6  A    between atoms: C_20  and  N_21 
REMARK    7  A    between atoms: C_25  and  O_26 
REMARK    8  A    between atoms: C_25  and  C_27 
ROOT
HETATM    1  N   UNL     1      40.572 -14.003   4.151  1.00  0.00    -0.061 N 
HETATM    2  H   UNL     1      40.383 -14.991   4.353  1.00  0.00     0.280 HD
HETATM    3  C   UNL     1      39.974 -13.264   5.333  1.00  0.00     0.276 C 
HETATM    4  C   UNL     1      40.242 -11.785   5.383  1.00  0.00     0.002 A 
HETATM    5  C   UNL     1      39.789 -10.949   4.362  1.00  0.00     0.076 A 
HETATM    6  O   UNL     1      39.059 -11.444   3.319  1.00  0.00    -0.349 OA
HETATM    7  C   UNL     1      39.858 -12.246   2.439  1.00  0.00     0.203 C 
HETATM    8  C   UNL     1      39.832 -13.723   2.850  1.00  0.00     0.262 C 
HETATM    9  C   UNL     1      40.924 -11.202   6.469  1.00  0.00     0.020 A 
HETATM   10  C   UNL     1      41.194  -9.821   6.511  1.00  0.00    -0.032 A 
HETATM   11  C   UNL     1      40.713  -9.010   5.474  1.00  0.00     0.011 A 
HETATM   12  C   UNL     1      39.995  -9.572   4.415  1.00  0.00     0.038 A 
ENDROOT
BRANCH  10  13
HETATM   13  C   UNL     1      42.015  -9.234   7.637  1.00  0.00     0.273 C 
BRANCH  13  14
HETATM   14  N   UNL     1      41.676  -9.761   9.019  1.00  0.00    -0.067 N 
HETATM   15  H   UNL     1      41.586 -10.783   8.936  1.00  0.00     0.280 HD
HETATM   16  C   UNL     1      42.767  -9.485  10.027  1.00  0.00     0.238 C 
HETATM   17  C   UNL     1      42.358 -10.009  11.393  1.00  0.00     0.071 C 
HETATM   18  C   UNL     1      41.055  -9.354  11.893  1.00  0.00     0.089 C 
HETATM   19  C   UNL     1      39.976  -9.713  10.851  1.00  0.00     0.071 C 
HETATM   20  C   UNL     1      40.327  -9.225   9.455  1.00  0.00     0.238 C 
BRANCH  18  21
HETATM   21  O   UNL     1      40.697 -10.035  13.095  1.00  0.00    -0.385 OA
HETATM   22  H   UNL     1      41.360 -10.720  13.307  1.00  0.00     0.211 HD
ENDBRANCH  18  21
BRANCH  18  23
HETATM   23  C   UNL     1      41.202  -7.869  12.207  1.00  0.00    -0.006 A 
HETATM   24  C   UNL     1      42.361  -7.325  12.763  1.00  0.00     0.126 A 
HETATM   25  N   UNL     1      42.509  -6.033  13.125  1.00  0.00    -0.272 NA
HETATM   26  C   UNL     1      41.492  -5.193  12.856  1.00  0.00     0.116 A 
HETATM   27  C   UNL     1      40.321  -5.600  12.246  1.00  0.00     0.020 A 
HETATM   28  C   UNL     1      40.183  -6.947  11.915  1.00  0.00     0.013 A 
ENDBRANCH  18  23
ENDBRANCH  13  14
ENDBRANCH  10  13
BRANCH   1  29
HETATM   29  C   UNL     1      42.081 -13.928   4.007  1.00  0.00     0.274 C 
BRANCH  29  30
HETATM   30  C   UNL     1      42.727 -15.244   3.670  1.00  0.00    -0.030 A 
HETATM   31  C   UNL     1      43.251 -16.044   4.694  1.00  0.00     0.048 A 
HETATM   32  C   UNL     1      43.719 -17.331   4.426  1.00  0.00     0.102 A 
HETATM   33  C   UNL     1      43.705 -17.840   3.120  1.00  0.00     0.101 A 
HETATM   34  C   UNL     1      43.247 -17.018   2.087  1.00  0.00     0.040 A 
HETATM   35  C   UNL     1      42.757 -15.732   2.358  1.00  0.00     0.012 A 
BRANCH  32  36
HETATM   36  O   UNL     1      44.054 -18.090   5.519  1.00  0.00    -0.353 OA
HETATM   37  C   UNL     1      43.296 -17.703   6.669  1.00  0.00     0.210 C 
ENDBRANCH  32  36
BRANCH  33  38
HETATM   38  O   UNL     1      44.100 -19.140   2.963  1.00  0.00    -0.353 OA
HETATM   39  C   UNL     1      43.292 -19.972   2.137  1.00  0.00     0.210 C 
ENDBRANCH  33  38
ENDBRANCH  29  30
ENDBRANCH   1  29
TORSDOF 8
ENDMDL
MODEL 10
REMARK VINA RESULT:      -7.9      2.240      3.291
REMARK  8 active torsions:
REMARK  status: ('A' for Active; 'I' for Inactive)
REMARK    1  A    between atoms: O_2  and  C_3 
REMARK    2  A    between atoms: C_4  and  O_5 
REMARK    3  A    between atoms: C_8  and  C_9 
REMARK    4  A    between atoms: C_9  and  N_10 
REMARK    5  A    between atoms: C_19  and  C_20 
REMARK    6  A    between atoms: C_20  and  N_21 
REMARK    7  A    between atoms: C_25  and  O_26 
REMARK    8  A    between atoms: C_25  and  C_27 
ROOT
HETATM    1  N   UNL     1      41.253 -13.141   2.855  1.00  0.00    -0.061 N 
HETATM    2  H   UNL     1      40.763 -13.515   2.034  1.00  0.00     0.280 HD
HETATM    3  C   UNL     1      40.534 -11.838   3.150  1.00  0.00     0.276 C 
HETATM    4  C   UNL     1      40.945 -11.137   4.415  1.00  0.00     0.002 A 
HETATM    5  C   UNL     1      42.258 -10.695   4.585  1.00  0.00     0.076 A 
HETATM    6  O   UNL     1      43.186 -10.851   3.595  1.00  0.00    -0.349 OA
HETATM    7  C   UNL     1      43.566 -12.224   3.428  1.00  0.00     0.203 C 
HETATM    8  C   UNL     1      42.687 -12.926   2.389  1.00  0.00     0.262 C 
HETATM    9  C   UNL     1      40.017 -10.879   5.443  1.00  0.00     0.020 A 
HETATM   10  C   UNL     1      40.401 -10.241   6.637  1.00  0.00    -0.032 A 
HETATM   11  C   UNL     1      41.725  -9.800   6.767  1.00  0.00     0.011 A 
HETATM   12  C   UNL     1      42.643 -10.009   5.734  1.00  0.00     0.038 A 
ENDROOT
BRANCH  10  13
HETATM   13  C   UNL     1      39.411 -10.065   7.766  1.00  0.00     0.273 C 
BRANCH  13  14
HETATM   14  N   UNL     1      39.810  -9.045   8.816  1.00  0.00    -0.067 N 
HETATM   15  H   UNL     1      38.939  -8.651   9.196  1.00  0.00     0.280 HD
HETATM   16  C   UNL     1      40.564  -9.666   9.969  1.00  0.00     0.238 C 
HETATM   17  C   UNL     1      40.960  -8.594  10.970  1.00  0.00     0.071 C 
HETATM   18  C   UNL     1      41.851  -7.512  10.329  1.00  0.00     0.089 C 
HETATM   19  C   UNL     1      41.010  -6.886   9.199  1.00  0.00     0.071 C 
HETATM   20  C   UNL     1      40.571  -7.909   8.164  1.00  0.00     0.238 C 
BRANCH  18  21
HETATM   21  O   UNL     1      42.021  -6.494  11.316  1.00  0.00    -0.385 OA
HETATM   22  H   UNL     1      41.961  -5.610  10.906  1.00  0.00     0.211 HD
ENDBRANCH  18  21
BRANCH  18  23
HETATM   23  C   UNL     1      43.230  -8.022   9.922  1.00  0.00    -0.006 A 
HETATM   24  C   UNL     1      43.940  -7.500   8.840  1.00  0.00     0.126 A 
HETATM   25  N   UNL     1      45.127  -7.969   8.400  1.00  0.00    -0.272 NA
HETATM   26  C   UNL     1      45.703  -8.960   9.106  1.00  0.00     0.116 A 
HETATM   27  C   UNL     1      45.129  -9.511  10.235  1.00  0.00     0.020 A 
HETATM   28  C   UNL     1      43.887  -9.031  10.646  1.00  0.00     0.013 A 
ENDBRANCH  18  23
ENDBRANCH  13  14
ENDBRANCH  10  13
BRANCH   1  29
HETATM   29  C   UNL     1      41.123 -14.231   3.902  1.00  0.00     0.274 C 
BRANCH  29  30
HETATM   30  C   UNL     1      41.954 -15.453   3.617  1.00  0.00    -0.030 A 
HETATM   31  C   UNL     1      43.015 -15.787   4.467  1.00  0.00     0.048 A 
HETATM   32  C   UNL     1      43.704 -16.990   4.311  1.00  0.00     0.102 A 
HETATM   33  C   UNL     1      43.369 -17.878   3.280  1.00  0.00     0.101 A 
HETATM   34  C   UNL     1      42.356 -17.515   2.388  1.00  0.00     0.040 A 
HETATM   35  C   UNL     1      41.650 -16.315   2.556  1.00  0.00     0.012 A 
BRANCH  32  36
HETATM   36  O   UNL     1      44.611 -17.297   5.294  1.00  0.00    -0.353 OA
HETATM   37  C   UNL     1      44.373 -16.527   6.477  1.00  0.00     0.210 C 
ENDBRANCH  32  36
BRANCH  33  38
HETATM   38  O   UNL     1      44.036 -19.072   3.255  1.00  0.00    -0.353 OA
HETATM   39  C   UNL     1      43.510 -20.095   2.417  1.00  0.00     0.210 C 
ENDBRANCH  33  38
ENDBRANCH  29  30
ENDBRANCH   1  29
TORSDOF 8
ENDMDL
