MODEL 1
REMARK VINA RESULT:      -8.5      0.000      0.000
REMARK  7 active torsions:
REMARK  status: ('A' for Active; 'I' for Inactive)
REMARK    1  A    between atoms: C_8  and  C_9 
REMARK    2  A    between atoms: C_9  and  N_10 
REMARK    3  A    between atoms: C_9  and  C_14 
REMARK       I    between atoms: C_14  and  N_15 
REMARK    4  A    between atoms: N_15  and  C_16 
REMARK    5  A    between atoms: C_16  and  C_17 
REMARK    6  A    between atoms: C_17  and  C_18 
REMARK    7  A    between atoms: C_20  and  C_21 
ROOT
HETATM    1  C   UNL     1      40.260 -13.344   0.149  1.00  0.00     0.253 C 
HETATM    2  N   UNL     1      41.177 -14.365   0.085  1.00  0.00    -0.359 N 
HETATM    3  O   UNL     1      39.457 -13.188   1.071  1.00  0.00    -0.271 OA
HETATM    4  H   UNL     1      41.944 -14.312  -0.578  1.00  0.00     0.162 HD
ENDROOT
BRANCH   1   5
HETATM    5  C   UNL     1      40.203 -12.381  -1.056  1.00  0.00     0.311 C 
BRANCH   5   6
HETATM    6  C   UNL     1      38.913 -12.490  -1.795  1.00  0.00     0.031 A 
HETATM    7  C   UNL     1      38.372 -13.577  -2.471  1.00  0.00     0.035 A 
HETATM    8  C   UNL     1      38.828 -14.977  -2.671  1.00  0.00     0.070 C 
HETATM    9  N   UNL     1      37.173 -13.148  -2.978  1.00  0.00    -0.282 N 
HETATM   10  H   UNL     1      36.488 -13.668  -3.522  1.00  0.00     0.189 HD
HETATM   11  N   UNL     1      36.914 -11.868  -2.695  1.00  0.00    -0.179 NA
HETATM   12  C   UNL     1      37.949 -11.456  -1.967  1.00  0.00     0.061 A 
HETATM   13  C   UNL     1      37.973 -10.057  -1.457  1.00  0.00     0.073 C 
ENDBRANCH   5   6
BRANCH   5  14
HETATM   14  N   UNL     1      41.349 -12.689  -1.973  1.00  0.00    -0.062 N 
HETATM   15  H   UNL     1      41.804 -11.827  -2.292  1.00  0.00     0.275 HD
HETATM   16  H   UNL     1      42.059 -13.191  -1.422  1.00  0.00     0.275 HD
HETATM   17  H   UNL     1      41.068 -13.265  -2.771  1.00  0.00     0.275 HD
ENDBRANCH   5  14
ENDBRANCH   1   5
BRANCH   2  18
HETATM   18  C   UNL     1      41.380 -15.288   1.197  1.00  0.00     0.127 C 
BRANCH  18  19
HETATM   19  C   UNL     1      42.782 -15.177   1.804  1.00  0.00     0.058 C 
BRANCH  19  20
HETATM   20  C   UNL     1      43.176 -16.360   2.662  1.00  0.00    -0.056 A 
HETATM   21  C   UNL     1      43.119 -17.662   2.140  1.00  0.00     0.023 A 
HETATM   22  C   UNL     1      43.462 -18.773   2.928  1.00  0.00     0.048 A 
HETATM   23  C   UNL     1      43.872 -18.565   4.252  1.00  0.00     0.016 A 
HETATM   24  C   UNL     1      43.924 -17.276   4.781  1.00  0.00     0.001 A 
HETATM   25  C   UNL     1      43.574 -16.180   3.992  1.00  0.00     0.007 A 
BRANCH  22  26
HETATM   26  C   UNL     1      43.400 -20.176   2.371  1.00  0.00     0.417 C 
HETATM   27  F   UNL     1      44.372 -20.431   1.450  1.00  0.00    -0.166 F 
HETATM   28  F   UNL     1      43.560 -21.117   3.343  1.00  0.00    -0.166 F 
HETATM   29  F   UNL     1      42.218 -20.454   1.761  1.00  0.00    -0.166 F 
ENDBRANCH  22  26
ENDBRANCH  19  20
ENDBRANCH  18  19
ENDBRANCH   2  18
TORSDOF 7
ENDMDL
MODEL 2
REMARK VINA RESULT:      -8.5      1.495      2.376
REMARK  7 active torsions:
REMARK  status: ('A' for Active; 'I' for Inactive)
REMARK    1  A    between atoms: C_8  and  C_9 
REMARK    2  A    between atoms: C_9  and  N_10 
REMARK    3  A    between atoms: C_9  and  C_14 
REMARK       I    between atoms: C_14  and  N_15 
REMARK    4  A    between atoms: N_15  and  C_16 
REMARK    5  A    between atoms: C_16  and  C_17 
REMARK    6  A    between atoms: C_17  and  C_18 
REMARK    7  A    between atoms: C_20  and  C_21 
ROOT
HETATM    1  C   UNL     1      39.785 -13.306   1.072  1.00  0.00     0.253 C 
HETATM    2  N   UNL     1      39.922 -14.670   1.162  1.00  0.00    -0.359 N 
HETATM    3  O   UNL     1      40.134 -12.513   1.948  1.00  0.00    -0.271 OA
HETATM    4  H   UNL     1      39.821 -15.243   0.329  1.00  0.00     0.162 HD
ENDROOT
BRANCH   1   5
HETATM    5  C   UNL     1      39.081 -12.758  -0.188  1.00  0.00     0.311 C 
BRANCH   5   6
HETATM    6  C   UNL     1      39.958 -12.831  -1.391  1.00  0.00     0.031 A 
HETATM    7  C   UNL     1      41.003 -11.998  -1.773  1.00  0.00     0.035 A 
HETATM    8  C   UNL     1      41.635 -10.809  -1.145  1.00  0.00     0.070 C 
HETATM    9  N   UNL     1      41.472 -12.501  -2.959  1.00  0.00    -0.282 N 
HETATM   10  H   UNL     1      42.240 -12.163  -3.534  1.00  0.00     0.189 HD
HETATM   11  N   UNL     1      40.798 -13.577  -3.374  1.00  0.00    -0.179 NA
HETATM   12  C   UNL     1      39.886 -13.802  -2.430  1.00  0.00     0.061 A 
HETATM   13  C   UNL     1      38.963 -14.961  -2.569  1.00  0.00     0.073 C 
ENDBRANCH   5   6
BRANCH   5  14
HETATM   14  N   UNL     1      38.673 -11.337   0.067  1.00  0.00    -0.062 N 
HETATM   15  H   UNL     1      37.693 -11.186  -0.194  1.00  0.00     0.275 HD
HETATM   16  H   UNL     1      38.719 -11.180   1.083  1.00  0.00     0.275 HD
HETATM   17  H   UNL     1      39.281 -10.665  -0.409  1.00  0.00     0.275 HD
ENDBRANCH   5  14
ENDBRANCH   1   5
BRANCH   2  18
HETATM   18  C   UNL     1      40.640 -15.300   2.265  1.00  0.00     0.127 C 
BRANCH  18  19
HETATM   19  C   UNL     1      42.147 -15.398   2.005  1.00  0.00     0.058 C 
BRANCH  19  20
HETATM   20  C   UNL     1      42.831 -16.514   2.765  1.00  0.00    -0.056 A 
HETATM   21  C   UNL     1      42.846 -17.818   2.246  1.00  0.00     0.023 A 
HETATM   22  C   UNL     1      43.458 -18.870   2.947  1.00  0.00     0.048 A 
HETATM   23  C   UNL     1      44.065 -18.599   4.181  1.00  0.00     0.016 A 
HETATM   24  C   UNL     1      44.048 -17.309   4.709  1.00  0.00     0.001 A 
HETATM   25  C   UNL     1      43.431 -16.273   4.007  1.00  0.00     0.007 A 
BRANCH  22  26
HETATM   26  C   UNL     1      43.474 -20.275   2.392  1.00  0.00     0.417 C 
HETATM   27  F   UNL     1      44.503 -20.498   1.527  1.00  0.00    -0.166 F 
HETATM   28  F   UNL     1      43.613 -21.208   3.375  1.00  0.00    -0.166 F 
HETATM   29  F   UNL     1      42.337 -20.595   1.720  1.00  0.00    -0.166 F 
ENDBRANCH  22  26
ENDBRANCH  19  20
ENDBRANCH  18  19
ENDBRANCH   2  18
TORSDOF 7
ENDMDL
MODEL 3
REMARK VINA RESULT:      -8.3      3.785      5.890
REMARK  7 active torsions:
REMARK  status: ('A' for Active; 'I' for Inactive)
REMARK    1  A    between atoms: C_8  and  C_9 
REMARK    2  A    between atoms: C_9  and  N_10 
REMARK    3  A    between atoms: C_9  and  C_14 
REMARK       I    between atoms: C_14  and  N_15 
REMARK    4  A    between atoms: N_15  and  C_16 
REMARK    5  A    between atoms: C_16  and  C_17 
REMARK    6  A    between atoms: C_17  and  C_18 
REMARK    7  A    between atoms: C_20  and  C_21 
ROOT
HETATM    1  C   UNL     1      40.551 -13.550   3.507  1.00  0.00     0.253 C 
HETATM    2  N   UNL     1      41.766 -13.807   2.919  1.00  0.00    -0.359 N 
HETATM    3  O   UNL     1      39.462 -13.846   3.011  1.00  0.00    -0.271 OA
HETATM    4  H   UNL     1      42.617 -13.739   3.470  1.00  0.00     0.162 HD
ENDROOT
BRANCH   1   5
HETATM    5  C   UNL     1      40.573 -12.777   4.843  1.00  0.00     0.311 C 
BRANCH   5   6
HETATM    6  C   UNL     1      41.558 -13.352   5.803  1.00  0.00     0.031 A 
HETATM    7  C   UNL     1      41.523 -14.564   6.483  1.00  0.00     0.035 A 
HETATM    8  C   UNL     1      40.567 -15.700   6.484  1.00  0.00     0.070 C 
HETATM    9  N   UNL     1      42.665 -14.604   7.240  1.00  0.00    -0.282 N 
HETATM   10  H   UNL     1      42.991 -15.340   7.862  1.00  0.00     0.189 HD
HETATM   11  N   UNL     1      43.416 -13.506   7.112  1.00  0.00    -0.179 NA
HETATM   12  C   UNL     1      42.770 -12.742   6.235  1.00  0.00     0.061 A 
HETATM   13  C   UNL     1      43.352 -11.431   5.840  1.00  0.00     0.073 C 
ENDBRANCH   5   6
BRANCH   5  14
HETATM   14  N   UNL     1      39.196 -12.805   5.439  1.00  0.00    -0.062 N 
HETATM   15  H   UNL     1      39.041 -13.674   5.960  1.00  0.00     0.275 HD
HETATM   16  H   UNL     1      39.147 -12.049   6.137  1.00  0.00     0.275 HD
HETATM   17  H   UNL     1      38.464 -12.668   4.737  1.00  0.00     0.275 HD
ENDBRANCH   5  14
ENDBRANCH   1   5
BRANCH   2  18
HETATM   18  C   UNL     1      41.878 -14.599   1.699  1.00  0.00     0.127 C 
BRANCH  18  19
HETATM   19  C   UNL     1      43.233 -15.305   1.579  1.00  0.00     0.058 C 
BRANCH  19  20
HETATM   20  C   UNL     1      43.409 -16.463   2.536  1.00  0.00    -0.056 A 
HETATM   21  C   UNL     1      43.357 -17.784   2.066  1.00  0.00     0.023 A 
HETATM   22  C   UNL     1      43.499 -18.872   2.943  1.00  0.00     0.048 A 
HETATM   23  C   UNL     1      43.701 -18.620   4.307  1.00  0.00     0.016 A 
HETATM   24  C   UNL     1      43.746 -17.311   4.785  1.00  0.00     0.001 A 
HETATM   25  C   UNL     1      43.596 -16.238   3.906  1.00  0.00     0.007 A 
BRANCH  22  26
HETATM   26  C   UNL     1      43.442 -20.296   2.441  1.00  0.00     0.417 C 
HETATM   27  F   UNL     1      42.269 -20.597   1.817  1.00  0.00    -0.166 F 
HETATM   28  F   UNL     1      44.420 -20.552   1.528  1.00  0.00    -0.166 F 
HETATM   29  F   UNL     1      43.592 -21.215   3.431  1.00  0.00    -0.166 F 
ENDBRANCH  22  26
ENDBRANCH  19  20
ENDBRANCH  18  19
ENDBRANCH   2  18
TORSDOF 7
ENDMDL
MODEL 4
REMARK VINA RESULT:      -8.3      3.908      5.970
REMARK  7 active torsions:
REMARK  status: ('A' for Active; 'I' for Inactive)
REMARK    1  A    between atoms: C_8  and  C_9 
REMARK    2  A    between atoms: C_9  and  N_10 
REMARK    3  A    between atoms: C_9  and  C_14 
REMARK       I    between atoms: C_14  and  N_15 
REMARK    4  A    between atoms: N_15  and  C_16 
REMARK    5  A    between atoms: C_16  and  C_17 
REMARK    6  A    between atoms: C_17  and  C_18 
REMARK    7  A    between atoms: C_20  and  C_21 
ROOT
HETATM    1  C   UNL     1      40.889 -14.112   4.383  1.00  0.00     0.253 C 
HETATM    2  N   UNL     1      41.248 -13.857   3.082  1.00  0.00    -0.359 N 
HETATM    3  O   UNL     1      40.504 -15.207   4.797  1.00  0.00    -0.271 OA
HETATM    4  H   UNL     1      41.758 -13.008   2.856  1.00  0.00     0.162 HD
ENDROOT
BRANCH   1   5
HETATM    5  C   UNL     1      40.909 -12.915   5.358  1.00  0.00     0.311 C 
BRANCH   5   6
HETATM    6  C   UNL     1      42.299 -12.509   5.713  1.00  0.00     0.031 A 
HETATM    7  C   UNL     1      43.246 -13.180   6.477  1.00  0.00     0.035 A 
HETATM    8  C   UNL     1      43.250 -14.499   7.161  1.00  0.00     0.070 C 
HETATM    9  N   UNL     1      44.354 -12.373   6.499  1.00  0.00    -0.282 N 
HETATM   10  H   UNL     1      45.251 -12.535   6.950  1.00  0.00     0.189 HD
HETATM   11  N   UNL     1      44.183 -11.232   5.826  1.00  0.00    -0.179 NA
HETATM   12  C   UNL     1      42.950 -11.302   5.329  1.00  0.00     0.061 A 
HETATM   13  C   UNL     1      42.434 -10.184   4.493  1.00  0.00     0.073 C 
ENDBRANCH   5   6
BRANCH   5  14
HETATM   14  N   UNL     1      40.150 -13.289   6.597  1.00  0.00    -0.062 N 
HETATM   15  H   UNL     1      40.001 -12.470   7.196  1.00  0.00     0.275 HD
HETATM   16  H   UNL     1      39.212 -13.594   6.304  1.00  0.00     0.275 HD
HETATM   17  H   UNL     1      40.604 -14.042   7.121  1.00  0.00     0.275 HD
ENDBRANCH   5  14
ENDBRANCH   1   5
BRANCH   2  18
HETATM   18  C   UNL     1      41.345 -14.922   2.088  1.00  0.00     0.127 C 
BRANCH  18  19
HETATM   19  C   UNL     1      42.791 -15.362   1.839  1.00  0.00     0.058 C 
BRANCH  19  20
HETATM   20  C   UNL     1      43.231 -16.536   2.687  1.00  0.00    -0.056 A 
HETATM   21  C   UNL     1      43.165 -17.841   2.177  1.00  0.00     0.023 A 
HETATM   22  C   UNL     1      43.550 -18.944   2.957  1.00  0.00     0.048 A 
HETATM   23  C   UNL     1      44.013 -18.723   4.262  1.00  0.00     0.016 A 
HETATM   24  C   UNL     1      44.074 -17.430   4.780  1.00  0.00     0.001 A 
HETATM   25  C   UNL     1      43.682 -16.342   3.999  1.00  0.00     0.007 A 
BRANCH  22  26
HETATM   26  C   UNL     1      43.478 -20.352   2.413  1.00  0.00     0.417 C 
HETATM   27  F   UNL     1      44.429 -20.612   1.472  1.00  0.00    -0.166 F 
HETATM   28  F   UNL     1      43.663 -21.284   3.388  1.00  0.00    -0.166 F 
HETATM   29  F   UNL     1      42.283 -20.637   1.833  1.00  0.00    -0.166 F 
ENDBRANCH  22  26
ENDBRANCH  19  20
ENDBRANCH  18  19
ENDBRANCH   2  18
TORSDOF 7
ENDMDL
MODEL 5
REMARK VINA RESULT:      -8.0      4.785      6.579
REMARK  7 active torsions:
REMARK  status: ('A' for Active; 'I' for Inactive)
REMARK    1  A    between atoms: C_8  and  C_9 
REMARK    2  A    between atoms: C_9  and  N_10 
REMARK    3  A    between atoms: C_9  and  C_14 
REMARK       I    between atoms: C_14  and  N_15 
REMARK    4  A    between atoms: N_15  and  C_16 
REMARK    5  A    between atoms: C_16  and  C_17 
REMARK    6  A    between atoms: C_17  and  C_18 
REMARK    7  A    between atoms: C_20  and  C_21 
ROOT
HETATM    1  C   UNL     1      42.712 -12.262   2.952  1.00  0.00     0.253 C 
HETATM    2  N   UNL     1      43.368 -13.469   2.956  1.00  0.00    -0.359 N 
HETATM    3  O   UNL     1      42.046 -11.836   2.006  1.00  0.00    -0.271 OA
HETATM    4  H   UNL     1      43.709 -13.854   3.832  1.00  0.00     0.162 HD
ENDROOT
BRANCH   1   5
HETATM    5  C   UNL     1      42.890 -11.367   4.198  1.00  0.00     0.311 C 
BRANCH   5   6
HETATM    6  C   UNL     1      43.072 -12.171   5.439  1.00  0.00     0.031 A 
HETATM    7  C   UNL     1      42.199 -13.068   6.045  1.00  0.00     0.035 A 
HETATM    8  C   UNL     1      40.847 -13.569   5.687  1.00  0.00     0.070 C 
HETATM    9  N   UNL     1      42.848 -13.529   7.162  1.00  0.00    -0.282 N 
HETATM   10  H   UNL     1      42.529 -14.208   7.849  1.00  0.00     0.189 HD
HETATM   11  N   UNL     1      44.057 -12.984   7.327  1.00  0.00    -0.179 NA
HETATM   12  C   UNL     1      44.217 -12.170   6.286  1.00  0.00     0.061 A 
HETATM   13  C   UNL     1      45.486 -11.406   6.144  1.00  0.00     0.073 C 
ENDBRANCH   5   6
BRANCH   5  14
HETATM   14  N   UNL     1      41.687 -10.480   4.330  1.00  0.00    -0.062 N 
HETATM   15  H   UNL     1      41.750  -9.681   3.690  1.00  0.00     0.275 HD
HETATM   16  H   UNL     1      40.868 -11.021   4.020  1.00  0.00     0.275 HD
HETATM   17  H   UNL     1      41.540 -10.162   5.292  1.00  0.00     0.275 HD
ENDBRANCH   5  14
ENDBRANCH   1   5
BRANCH   2  18
HETATM   18  C   UNL     1      43.212 -14.434   1.873  1.00  0.00     0.127 C 
BRANCH  18  19
HETATM   19  C   UNL     1      42.236 -15.560   2.226  1.00  0.00     0.058 C 
BRANCH  19  20
HETATM   20  C   UNL     1      42.840 -16.652   3.081  1.00  0.00    -0.056 A 
HETATM   21  C   UNL     1      42.820 -16.547   4.481  1.00  0.00     0.023 A 
HETATM   22  C   UNL     1      43.394 -17.541   5.290  1.00  0.00     0.048 A 
HETATM   23  C   UNL     1      43.988 -18.653   4.679  1.00  0.00     0.016 A 
HETATM   24  C   UNL     1      44.020 -18.763   3.289  1.00  0.00     0.001 A 
HETATM   25  C   UNL     1      43.453 -17.766   2.494  1.00  0.00     0.007 A 
BRANCH  22  26
HETATM   26  C   UNL     1      43.376 -17.430   6.797  1.00  0.00     0.417 C 
HETATM   27  F   UNL     1      43.363 -18.640   7.424  1.00  0.00    -0.166 F 
HETATM   28  F   UNL     1      44.476 -16.783   7.273  1.00  0.00    -0.166 F 
HETATM   29  F   UNL     1      42.299 -16.748   7.267  1.00  0.00    -0.166 F 
ENDBRANCH  22  26
ENDBRANCH  19  20
ENDBRANCH  18  19
ENDBRANCH   2  18
TORSDOF 7
ENDMDL
MODEL 6
REMARK VINA RESULT:      -7.9      2.710      3.665
REMARK  7 active torsions:
REMARK  status: ('A' for Active; 'I' for Inactive)
REMARK    1  A    between atoms: C_8  and  C_9 
REMARK    2  A    between atoms: C_9  and  N_10 
REMARK    3  A    between atoms: C_9  and  C_14 
REMARK       I    between atoms: C_14  and  N_15 
REMARK    4  A    between atoms: N_15  and  C_16 
REMARK    5  A    between atoms: C_16  and  C_17 
REMARK    6  A    between atoms: C_17  and  C_18 
REMARK    7  A    between atoms: C_20  and  C_21 
ROOT
HETATM    1  C   UNL     1      39.835 -13.420   1.096  1.00  0.00     0.253 C 
HETATM    2  N   UNL     1      39.991 -14.786   1.102  1.00  0.00    -0.359 N 
HETATM    3  O   UNL     1      40.179 -12.677   2.016  1.00  0.00    -0.271 OA
HETATM    4  H   UNL     1      39.892 -15.308   0.237  1.00  0.00     0.162 HD
ENDROOT
BRANCH   1   5
HETATM    5  C   UNL     1      39.114 -12.807  -0.124  1.00  0.00     0.311 C 
BRANCH   5   6
HETATM    6  C   UNL     1      39.966 -12.837  -1.347  1.00  0.00     0.031 A 
HETATM    7  C   UNL     1      40.992 -11.979  -1.729  1.00  0.00     0.035 A 
HETATM    8  C   UNL     1      41.620 -10.797  -1.084  1.00  0.00     0.070 C 
HETATM    9  N   UNL     1      41.443 -12.445  -2.937  1.00  0.00    -0.282 N 
HETATM   10  H   UNL     1      42.193 -12.082  -3.519  1.00  0.00     0.189 HD
HETATM   11  N   UNL     1      40.775 -13.520  -3.365  1.00  0.00    -0.179 NA
HETATM   12  C   UNL     1      39.887 -13.782  -2.409  1.00  0.00     0.061 A 
HETATM   13  C   UNL     1      38.976 -14.950  -2.558  1.00  0.00     0.073 C 
ENDBRANCH   5   6
BRANCH   5  14
HETATM   14  N   UNL     1      38.731 -11.394   0.202  1.00  0.00    -0.062 N 
HETATM   15  H   UNL     1      39.547 -10.856   0.512  1.00  0.00     0.275 HD
HETATM   16  H   UNL     1      38.419 -10.949  -0.672  1.00  0.00     0.275 HD
HETATM   17  H   UNL     1      37.980 -11.344   0.896  1.00  0.00     0.275 HD
ENDBRANCH   5  14
ENDBRANCH   1   5
BRANCH   2  18
HETATM   18  C   UNL     1      40.726 -15.471   2.160  1.00  0.00     0.127 C 
BRANCH  18  19
HETATM   19  C   UNL     1      42.118 -15.927   1.709  1.00  0.00     0.058 C 
BRANCH  19  20
HETATM   20  C   UNL     1      42.844 -16.783   2.723  1.00  0.00    -0.056 A 
HETATM   21  C   UNL     1      43.176 -16.261   3.982  1.00  0.00     0.023 A 
HETATM   22  C   UNL     1      43.867 -17.034   4.929  1.00  0.00     0.048 A 
HETATM   23  C   UNL     1      44.220 -18.350   4.600  1.00  0.00     0.016 A 
HETATM   24  C   UNL     1      43.902 -18.876   3.348  1.00  0.00     0.001 A 
HETATM   25  C   UNL     1      43.222 -18.096   2.413  1.00  0.00     0.007 A 
BRANCH  22  26
HETATM   26  C   UNL     1      44.227 -16.475   6.285  1.00  0.00     0.417 C 
HETATM   27  F   UNL     1      43.596 -15.300   6.565  1.00  0.00    -0.166 F 
HETATM   28  F   UNL     1      43.885 -17.324   7.293  1.00  0.00    -0.166 F 
HETATM   29  F   UNL     1      45.557 -16.233   6.424  1.00  0.00    -0.166 F 
ENDBRANCH  22  26
ENDBRANCH  19  20
ENDBRANCH  18  19
ENDBRANCH   2  18
TORSDOF 7
ENDMDL
MODEL 7
REMARK VINA RESULT:      -7.8      4.497      6.087
REMARK  7 active torsions:
REMARK  status: ('A' for Active; 'I' for Inactive)
REMARK    1  A    between atoms: C_8  and  C_9 
REMARK    2  A    between atoms: C_9  and  N_10 
REMARK    3  A    between atoms: C_9  and  C_14 
REMARK       I    between atoms: C_14  and  N_15 
REMARK    4  A    between atoms: N_15  and  C_16 
REMARK    5  A    between atoms: C_16  and  C_17 
REMARK    6  A    between atoms: C_17  and  C_18 
REMARK    7  A    between atoms: C_20  and  C_21 
ROOT
HETATM    1  C   UNL     1      40.537 -13.883   4.675  1.00  0.00     0.253 C 
HETATM    2  N   UNL     1      40.475 -14.282   3.362  1.00  0.00    -0.359 N 
HETATM    3  O   UNL     1      40.326 -14.624   5.637  1.00  0.00    -0.271 OA
HETATM    4  H   UNL     1      40.870 -13.690   2.636  1.00  0.00     0.162 HD
ENDROOT
BRANCH   1   5
HETATM    5  C   UNL     1      40.823 -12.389   4.937  1.00  0.00     0.311 C 
BRANCH   5   6
HETATM    6  C   UNL     1      42.251 -12.043   4.690  1.00  0.00     0.031 A 
HETATM    7  C   UNL     1      43.371 -12.310   5.470  1.00  0.00     0.035 A 
HETATM    8  C   UNL     1      43.566 -13.033   6.753  1.00  0.00     0.070 C 
HETATM    9  N   UNL     1      44.437 -11.775   4.794  1.00  0.00    -0.282 N 
HETATM   10  H   UNL     1      45.422 -11.782   5.049  1.00  0.00     0.189 HD
HETATM   11  N   UNL     1      44.085 -11.171   3.655  1.00  0.00    -0.179 NA
HETATM   12  C   UNL     1      42.767 -11.337   3.567  1.00  0.00     0.061 A 
HETATM   13  C   UNL     1      42.041 -10.795   2.386  1.00  0.00     0.073 C 
ENDBRANCH   5   6
BRANCH   5  14
HETATM   14  N   UNL     1      40.453 -12.068   6.356  1.00  0.00    -0.062 N 
HETATM   15  H   UNL     1      40.662 -11.089   6.575  1.00  0.00     0.275 HD
HETATM   16  H   UNL     1      39.431 -12.160   6.436  1.00  0.00     0.275 HD
HETATM   17  H   UNL     1      40.905 -12.694   7.028  1.00  0.00     0.275 HD
ENDBRANCH   5  14
ENDBRANCH   1   5
BRANCH   2  18
HETATM   18  C   UNL     1      40.293 -15.681   2.990  1.00  0.00     0.127 C 
BRANCH  18  19
HETATM   19  C   UNL     1      41.480 -16.239   2.199  1.00  0.00     0.058 C 
BRANCH  19  20
HETATM   20  C   UNL     1      42.434 -17.073   3.027  1.00  0.00    -0.056 A 
HETATM   21  C   UNL     1      42.511 -16.889   4.416  1.00  0.00     0.023 A 
HETATM   22  C   UNL     1      43.405 -17.640   5.198  1.00  0.00     0.048 A 
HETATM   23  C   UNL     1      44.223 -18.588   4.569  1.00  0.00     0.016 A 
HETATM   24  C   UNL     1      44.159 -18.772   3.188  1.00  0.00     0.001 A 
HETATM   25  C   UNL     1      43.273 -18.015   2.420  1.00  0.00     0.007 A 
BRANCH  22  26
HETATM   26  C   UNL     1      43.491 -17.444   6.693  1.00  0.00     0.417 C 
HETATM   27  F   UNL     1      44.648 -16.841   7.089  1.00  0.00    -0.166 F 
HETATM   28  F   UNL     1      42.487 -16.652   7.161  1.00  0.00    -0.166 F 
HETATM   29  F   UNL     1      43.414 -18.610   7.387  1.00  0.00    -0.166 F 
ENDBRANCH  22  26
ENDBRANCH  19  20
ENDBRANCH  18  19
ENDBRANCH   2  18
TORSDOF 7
ENDMDL
MODEL 8
REMARK VINA RESULT:      -7.8      3.693      4.955
REMARK  7 active torsions:
REMARK  status: ('A' for Active; 'I' for Inactive)
REMARK    1  A    between atoms: C_8  and  C_9 
REMARK    2  A    between atoms: C_9  and  N_10 
REMARK    3  A    between atoms: C_9  and  C_14 
REMARK       I    between atoms: C_14  and  N_15 
REMARK    4  A    between atoms: N_15  and  C_16 
REMARK    5  A    between atoms: C_16  and  C_17 
REMARK    6  A    between atoms: C_17  and  C_18 
REMARK    7  A    between atoms: C_20  and  C_21 
ROOT
HETATM    1  C   UNL     1      41.488 -13.339   2.924  1.00  0.00     0.253 C 
HETATM    2  N   UNL     1      41.679 -14.447   2.135  1.00  0.00    -0.359 N 
HETATM    3  O   UNL     1      42.391 -12.735   3.505  1.00  0.00    -0.271 OA
HETATM    4  H   UNL     1      40.936 -14.760   1.517  1.00  0.00     0.162 HD
ENDROOT
BRANCH   1   5
HETATM    5  C   UNL     1      40.029 -12.880   3.140  1.00  0.00     0.311 C 
BRANCH   5   6
HETATM    6  C   UNL     1      39.799 -12.393   4.529  1.00  0.00     0.031 A 
HETATM    7  C   UNL     1      39.977 -13.056   5.738  1.00  0.00     0.035 A 
HETATM    8  C   UNL     1      40.476 -14.411   6.088  1.00  0.00     0.070 C 
HETATM    9  N   UNL     1      39.617 -12.164   6.714  1.00  0.00    -0.282 N 
HETATM   10  H   UNL     1      39.626 -12.288   7.724  1.00  0.00     0.189 HD
HETATM   11  N   UNL     1      39.204 -10.991   6.225  1.00  0.00    -0.179 NA
HETATM   12  C   UNL     1      39.321 -11.105   4.904  1.00  0.00     0.061 A 
HETATM   13  C   UNL     1      38.959  -9.950   4.037  1.00  0.00     0.073 C 
ENDBRANCH   5   6
BRANCH   5  14
HETATM   14  N   UNL     1      39.113 -14.028   2.837  1.00  0.00    -0.062 N 
HETATM   15  H   UNL     1      39.193 -14.310   1.854  1.00  0.00     0.275 HD
HETATM   16  H   UNL     1      39.439 -14.836   3.386  1.00  0.00     0.275 HD
HETATM   17  H   UNL     1      38.139 -13.824   3.077  1.00  0.00     0.275 HD
ENDBRANCH   5  14
ENDBRANCH   1   5
BRANCH   2  18
HETATM   18  C   UNL     1      43.014 -14.927   1.792  1.00  0.00     0.127 C 
BRANCH  18  19
HETATM   19  C   UNL     1      43.095 -16.456   1.748  1.00  0.00     0.058 C 
BRANCH  19  20
HETATM   20  C   UNL     1      43.408 -17.094   3.084  1.00  0.00    -0.056 A 
HETATM   21  C   UNL     1      43.607 -18.480   3.177  1.00  0.00     0.023 A 
HETATM   22  C   UNL     1      43.878 -19.092   4.412  1.00  0.00     0.048 A 
HETATM   23  C   UNL     1      43.955 -18.294   5.561  1.00  0.00     0.016 A 
HETATM   24  C   UNL     1      43.750 -16.917   5.480  1.00  0.00     0.001 A 
HETATM   25  C   UNL     1      43.474 -16.321   4.250  1.00  0.00     0.007 A 
BRANCH  22  26
HETATM   26  C   UNL     1      44.091 -20.584   4.516  1.00  0.00     0.417 C 
HETATM   27  F   UNL     1      43.110 -21.218   5.219  1.00  0.00    -0.166 F 
HETATM   28  F   UNL     1      44.109 -21.182   3.292  1.00  0.00    -0.166 F 
HETATM   29  F   UNL     1      45.263 -20.913   5.120  1.00  0.00    -0.166 F 
ENDBRANCH  22  26
ENDBRANCH  19  20
ENDBRANCH  18  19
ENDBRANCH   2  18
TORSDOF 7
ENDMDL
MODEL 9
REMARK VINA RESULT:      -7.7      2.446      3.451
REMARK  7 active torsions:
REMARK  status: ('A' for Active; 'I' for Inactive)
REMARK    1  A    between atoms: C_8  and  C_9 
REMARK    2  A    between atoms: C_9  and  N_10 
REMARK    3  A    between atoms: C_9  and  C_14 
REMARK       I    between atoms: C_14  and  N_15 
REMARK    4  A    between atoms: N_15  and  C_16 
REMARK    5  A    between atoms: C_16  and  C_17 
REMARK    6  A    between atoms: C_17  and  C_18 
REMARK    7  A    between atoms: C_20  and  C_21 
ROOT
HETATM    1  C   UNL     1      40.500 -13.177   3.538  1.00  0.00     0.253 C 
HETATM    2  N   UNL     1      41.160 -13.781   4.581  1.00  0.00    -0.359 N 
HETATM    3  O   UNL     1      39.302 -12.889   3.546  1.00  0.00    -0.271 OA
HETATM    4  H   UNL     1      42.175 -13.790   4.598  1.00  0.00     0.162 HD
ENDROOT
BRANCH   1   5
HETATM    5  C   UNL     1      41.319 -12.914   2.255  1.00  0.00     0.311 C 
BRANCH   5   6
HETATM    6  C   UNL     1      40.618 -13.410   1.037  1.00  0.00     0.031 A 
HETATM    7  C   UNL     1      40.115 -14.676   0.762  1.00  0.00     0.035 A 
HETATM    8  C   UNL     1      40.051 -15.936   1.547  1.00  0.00     0.070 C 
HETATM    9  N   UNL     1      39.574 -14.602  -0.496  1.00  0.00    -0.282 N 
HETATM   10  H   UNL     1      39.104 -15.329  -1.030  1.00  0.00     0.189 HD
HETATM   11  N   UNL     1      39.709 -13.395  -1.053  1.00  0.00    -0.179 NA
HETATM   12  C   UNL     1      40.325 -12.655  -0.135  1.00  0.00     0.061 A 
HETATM   13  C   UNL     1      40.618 -11.225  -0.425  1.00  0.00     0.073 C 
ENDBRANCH   5   6
BRANCH   5  14
HETATM   14  N   UNL     1      42.655 -13.584   2.390  1.00  0.00    -0.062 N 
HETATM   15  H   UNL     1      42.559 -14.506   2.828  1.00  0.00     0.275 HD
HETATM   16  H   UNL     1      43.008 -13.762   1.440  1.00  0.00     0.275 HD
HETATM   17  H   UNL     1      43.330 -13.008   2.901  1.00  0.00     0.275 HD
ENDBRANCH   5  14
ENDBRANCH   1   5
BRANCH   2  18
HETATM   18  C   UNL     1      40.515 -14.007   5.871  1.00  0.00     0.127 C 
BRANCH  18  19
HETATM   19  C   UNL     1      40.500 -15.487   6.269  1.00  0.00     0.058 C 
BRANCH  19  20
HETATM   20  C   UNL     1      41.759 -16.238   5.892  1.00  0.00    -0.056 A 
HETATM   21  C   UNL     1      41.977 -16.630   4.563  1.00  0.00     0.023 A 
HETATM   22  C   UNL     1      43.129 -17.346   4.198  1.00  0.00     0.048 A 
HETATM   23  C   UNL     1      44.072 -17.661   5.187  1.00  0.00     0.016 A 
HETATM   24  C   UNL     1      43.860 -17.283   6.512  1.00  0.00     0.001 A 
HETATM   25  C   UNL     1      42.708 -16.579   6.864  1.00  0.00     0.007 A 
BRANCH  22  26
HETATM   26  C   UNL     1      43.367 -17.771   2.768  1.00  0.00     0.417 C 
HETATM   27  F   UNL     1      43.657 -16.729   1.940  1.00  0.00    -0.166 F 
HETATM   28  F   UNL     1      44.420 -18.628   2.661  1.00  0.00    -0.166 F 
HETATM   29  F   UNL     1      42.299 -18.407   2.218  1.00  0.00    -0.166 F 
ENDBRANCH  22  26
ENDBRANCH  19  20
ENDBRANCH  18  19
ENDBRANCH   2  18
TORSDOF 7
ENDMDL
MODEL 10
REMARK VINA RESULT:      -7.7      4.295      5.454
REMARK  7 active torsions:
REMARK  status: ('A' for Active; 'I' for Inactive)
REMARK    1  A    between atoms: C_8  and  C_9 
REMARK    2  A    between atoms: C_9  and  N_10 
REMARK    3  A    between atoms: C_9  and  C_14 
REMARK       I    between atoms: C_14  and  N_15 
REMARK    4  A    between atoms: N_15  and  C_16 
REMARK    5  A    between atoms: C_16  and  C_17 
REMARK    6  A    between atoms: C_17  and  C_18 
REMARK    7  A    between atoms: C_20  and  C_21 
ROOT
HETATM    1  C   UNL     1      42.468 -13.459   2.202  1.00  0.00     0.253 C 
HETATM    2  N   UNL     1      43.364 -14.469   2.458  1.00  0.00    -0.359 N 
HETATM    3  O   UNL     1      41.845 -13.334   1.147  1.00  0.00    -0.271 OA
HETATM    4  H   UNL     1      43.672 -14.639   3.411  1.00  0.00     0.162 HD
ENDROOT
BRANCH   1   5
HETATM    5  C   UNL     1      42.299 -12.383   3.296  1.00  0.00     0.311 C 
BRANCH   5   6
HETATM    6  C   UNL     1      41.200 -12.721   4.245  1.00  0.00     0.031 A 
HETATM    7  C   UNL     1      39.824 -12.632   4.069  1.00  0.00     0.035 A 
HETATM    8  C   UNL     1      38.972 -12.228   2.921  1.00  0.00     0.070 C 
HETATM    9  N   UNL     1      39.265 -13.059   5.246  1.00  0.00    -0.282 N 
HETATM   10  H   UNL     1      38.281 -13.144   5.489  1.00  0.00     0.189 HD
HETATM   11  N   UNL     1      40.175 -13.394   6.165  1.00  0.00    -0.179 NA
HETATM   12  C   UNL     1      41.353 -13.211   5.573  1.00  0.00     0.061 A 
HETATM   13  C   UNL     1      42.602 -13.517   6.322  1.00  0.00     0.073 C 
ENDBRANCH   5   6
BRANCH   5  14
HETATM   14  N   UNL     1      42.023 -11.064   2.637  1.00  0.00    -0.062 N 
HETATM   15  H   UNL     1      41.363 -10.509   3.191  1.00  0.00     0.275 HD
HETATM   16  H   UNL     1      42.903 -10.530   2.636  1.00  0.00     0.275 HD
HETATM   17  H   UNL     1      41.689 -11.170   1.675  1.00  0.00     0.275 HD
ENDBRANCH   5  14
ENDBRANCH   1   5
BRANCH   2  18
HETATM   18  C   UNL     1      43.549 -15.585   1.537  1.00  0.00     0.127 C 
BRANCH  18  19
HETATM   19  C   UNL     1      42.617 -16.762   1.844  1.00  0.00     0.058 C 
BRANCH  19  20
HETATM   20  C   UNL     1      43.103 -17.654   2.966  1.00  0.00    -0.056 A 
HETATM   21  C   UNL     1      43.031 -17.219   4.298  1.00  0.00     0.023 A 
HETATM   22  C   UNL     1      43.496 -18.026   5.350  1.00  0.00     0.048 A 
HETATM   23  C   UNL     1      44.031 -19.286   5.051  1.00  0.00     0.016 A 
HETATM   24  C   UNL     1      44.114 -19.724   3.730  1.00  0.00     0.001 A 
HETATM   25  C   UNL     1      43.657 -18.911   2.692  1.00  0.00     0.007 A 
BRANCH  22  26
HETATM   26  C   UNL     1      43.422 -17.560   6.785  1.00  0.00     0.417 C 
HETATM   27  F   UNL     1      42.296 -16.842   7.059  1.00  0.00    -0.166 F 
HETATM   28  F   UNL     1      43.413 -18.605   7.659  1.00  0.00    -0.166 F 
HETATM   29  F   UNL     1      44.470 -16.772   7.142  1.00  0.00    -0.166 F 
ENDBRANCH  22  26
ENDBRANCH  19  20
ENDBRANCH  18  19
ENDBRANCH   2  18
TORSDOF 7
ENDMDL
