MODEL 1
REMARK VINA RESULT:      -8.9      0.000      0.000
REMARK  2 active torsions:
REMARK  status: ('A' for Active; 'I' for Inactive)
REMARK    1  A    between atoms: C_4  and  N_5 
REMARK    2  A    between atoms: C_12  and  C_13 
ROOT
HETATM    1  N   UNL     1      43.292 -16.714   5.122  1.00  0.00    -0.236 N 
HETATM    2  N   UNL     1      44.192 -16.030   5.969  1.00  0.00    -0.179 NA
HETATM    3  C   UNL     1      43.674 -14.760   6.135  1.00  0.00     0.119 A 
HETATM    4  C   UNL     1      42.495 -14.608   5.508  1.00  0.00     0.123 A 
HETATM    5  C   UNL     1      42.205 -15.876   4.823  1.00  0.00     0.280 A 
HETATM    6  O   UNL     1      41.221 -16.092   4.138  1.00  0.00    -0.265 OA
HETATM    7  N   UNL     1      44.255 -13.717   6.802  1.00  0.00    -0.344 N 
HETATM    8  C   UNL     1      43.678 -12.464   6.848  1.00  0.00     0.049 A 
HETATM    9  C   UNL     1      42.498 -12.209   6.251  1.00  0.00     0.086 A 
HETATM   10  C   UNL     1      41.804 -13.316   5.526  1.00  0.00     0.193 A 
HETATM   11  O   UNL     1      40.724 -13.110   4.989  1.00  0.00    -0.287 OA
HETATM   12  H   UNL     1      45.131 -15.981   5.573  1.00  0.00     0.155 HD
HETATM   13  H   UNL     1      45.135 -13.874   7.279  1.00  0.00     0.167 HD
ENDROOT
BRANCH   8  14
HETATM   14  C   UNL     1      44.393 -11.392   7.574  1.00  0.00     0.012 A 
HETATM   15  C   UNL     1      45.608 -10.838   7.130  1.00  0.00     0.046 A 
HETATM   16 CL   UNL     1      46.378 -11.352   5.666  1.00  0.00    -0.083 Cl
HETATM   17  C   UNL     1      46.240  -9.828   7.863  1.00  0.00     0.025 A 
HETATM   18  C   UNL     1      45.672  -9.355   9.045  1.00  0.00     0.002 A 
HETATM   19  C   UNL     1      44.471  -9.895   9.499  1.00  0.00     0.001 A 
HETATM   20  C   UNL     1      43.839 -10.906   8.772  1.00  0.00     0.015 A 
ENDBRANCH   8  14
BRANCH   1  21
HETATM   21  C   UNL     1      43.543 -18.046   4.728  1.00  0.00     0.055 A 
HETATM   22  C   UNL     1      43.723 -19.063   5.673  1.00  0.00     0.031 A 
HETATM   23  C   UNL     1      43.954 -20.384   5.276  1.00  0.00     0.002 A 
HETATM   24  C   UNL     1      44.011 -20.709   3.924  1.00  0.00     0.000 A 
HETATM   25  C   UNL     1      43.843 -19.712   2.969  1.00  0.00     0.002 A 
HETATM   26  C   UNL     1      43.612 -18.391   3.367  1.00  0.00     0.031 A 
ENDBRANCH   1  21
TORSDOF 2
ENDMDL
MODEL 2
REMARK VINA RESULT:      -8.8      5.244      7.903
REMARK  2 active torsions:
REMARK  status: ('A' for Active; 'I' for Inactive)
REMARK    1  A    between atoms: C_4  and  N_5 
REMARK    2  A    between atoms: C_12  and  C_13 
ROOT
HETATM    1  N   UNL     1      40.070 -14.104  -0.053  1.00  0.00    -0.236 N 
HETATM    2  N   UNL     1      40.131 -15.366   0.578  1.00  0.00    -0.179 NA
HETATM    3  C   UNL     1      41.111 -15.264   1.547  1.00  0.00     0.119 A 
HETATM    4  C   UNL     1      41.632 -14.027   1.612  1.00  0.00     0.123 A 
HETATM    5  C   UNL     1      40.973 -13.227   0.569  1.00  0.00     0.280 A 
HETATM    6  O   UNL     1      41.213 -12.056   0.329  1.00  0.00    -0.265 OA
HETATM    7  N   UNL     1      41.583 -16.268   2.347  1.00  0.00    -0.344 N 
HETATM    8  C   UNL     1      42.618 -16.070   3.237  1.00  0.00     0.049 A 
HETATM    9  C   UNL     1      43.207 -14.866   3.377  1.00  0.00     0.086 A 
HETATM   10  C   UNL     1      42.719 -13.725   2.546  1.00  0.00     0.193 A 
HETATM   11  O   UNL     1      43.230 -12.620   2.668  1.00  0.00    -0.287 OA
HETATM   12  H   UNL     1      40.356 -16.114  -0.077  1.00  0.00     0.155 HD
HETATM   13  H   UNL     1      41.154 -17.183   2.283  1.00  0.00     0.167 HD
ENDROOT
BRANCH   8  14
HETATM   14  C   UNL     1      43.076 -17.222   4.044  1.00  0.00     0.012 A 
HETATM   15  C   UNL     1      42.851 -17.333   5.428  1.00  0.00     0.046 A 
HETATM   16 CL   UNL     1      41.990 -16.125   6.324  1.00  0.00    -0.083 Cl
HETATM   17  C   UNL     1      43.312 -18.446   6.138  1.00  0.00     0.025 A 
HETATM   18  C   UNL     1      44.002 -19.464   5.481  1.00  0.00     0.002 A 
HETATM   19  C   UNL     1      44.235 -19.369   4.112  1.00  0.00     0.001 A 
HETATM   20  C   UNL     1      43.779 -18.257   3.400  1.00  0.00     0.015 A 
ENDBRANCH   8  14
BRANCH   1  21
HETATM   21  C   UNL     1      39.175 -13.874  -1.121  1.00  0.00     0.055 A 
HETATM   22  C   UNL     1      39.091 -14.759  -2.203  1.00  0.00     0.031 A 
HETATM   23  C   UNL     1      38.189 -14.534  -3.249  1.00  0.00     0.002 A 
HETATM   24  C   UNL     1      37.358 -13.418  -3.230  1.00  0.00     0.000 A 
HETATM   25  C   UNL     1      37.432 -12.523  -2.168  1.00  0.00     0.002 A 
HETATM   26  C   UNL     1      38.334 -12.748  -1.123  1.00  0.00     0.031 A 
ENDBRANCH   1  21
TORSDOF 2
ENDMDL
MODEL 3
REMARK VINA RESULT:      -8.8      1.710      7.644
REMARK  2 active torsions:
REMARK  status: ('A' for Active; 'I' for Inactive)
REMARK    1  A    between atoms: C_4  and  N_5 
REMARK    2  A    between atoms: C_12  and  C_13 
ROOT
HETATM    1  N   UNL     1      43.896 -12.309   7.007  1.00  0.00    -0.236 N 
HETATM    2  N   UNL     1      44.605 -13.519   6.840  1.00  0.00    -0.179 NA
HETATM    3  C   UNL     1      43.771 -14.359   6.127  1.00  0.00     0.119 A 
HETATM    4  C   UNL     1      42.619 -13.756   5.786  1.00  0.00     0.123 A 
HETATM    5  C   UNL     1      42.659 -12.399   6.350  1.00  0.00     0.280 A 
HETATM    6  O   UNL     1      41.768 -11.574   6.251  1.00  0.00    -0.265 OA
HETATM    7  N   UNL     1      43.999 -15.669   5.812  1.00  0.00    -0.344 N 
HETATM    8  C   UNL     1      43.063 -16.438   5.151  1.00  0.00     0.049 A 
HETATM    9  C   UNL     1      41.876 -15.928   4.766  1.00  0.00     0.086 A 
HETATM   10  C   UNL     1      41.579 -14.494   5.064  1.00  0.00     0.193 A 
HETATM   11  O   UNL     1      40.514 -14.006   4.710  1.00  0.00    -0.287 OA
HETATM   12  H   UNL     1      44.858 -13.944   7.733  1.00  0.00     0.155 HD
HETATM   13  H   UNL     1      44.887 -16.084   6.069  1.00  0.00     0.167 HD
ENDROOT
BRANCH   8  14
HETATM   14  C   UNL     1      43.390 -17.853   4.874  1.00  0.00     0.012 A 
HETATM   15  C   UNL     1      43.585 -18.360   3.576  1.00  0.00     0.046 A 
HETATM   16 CL   UNL     1      43.478 -17.357   2.167  1.00  0.00    -0.083 Cl
HETATM   17  C   UNL     1      43.889 -19.711   3.376  1.00  0.00     0.025 A 
HETATM   18  C   UNL     1      44.004 -20.574   4.464  1.00  0.00     0.002 A 
HETATM   19  C   UNL     1      43.812 -20.089   5.756  1.00  0.00     0.001 A 
HETATM   20  C   UNL     1      43.505 -18.742   5.959  1.00  0.00     0.015 A 
ENDBRANCH   8  14
BRANCH   1  21
HETATM   21  C   UNL     1      44.463 -11.233   7.725  1.00  0.00     0.055 A 
HETATM   22  C   UNL     1      43.889 -10.768   8.914  1.00  0.00     0.031 A 
HETATM   23  C   UNL     1      44.466  -9.713   9.629  1.00  0.00     0.002 A 
HETATM   24  C   UNL     1      45.628  -9.105   9.164  1.00  0.00     0.000 A 
HETATM   25  C   UNL     1      46.210  -9.547   7.980  1.00  0.00     0.002 A 
HETATM   26  C   UNL     1      45.631 -10.601   7.265  1.00  0.00     0.031 A 
ENDBRANCH   1  21
TORSDOF 2
ENDMDL
MODEL 4
REMARK VINA RESULT:      -8.5      1.651      2.244
REMARK  2 active torsions:
REMARK  status: ('A' for Active; 'I' for Inactive)
REMARK    1  A    between atoms: C_4  and  N_5 
REMARK    2  A    between atoms: C_12  and  C_13 
ROOT
HETATM    1  N   UNL     1      43.214 -14.951   4.549  1.00  0.00    -0.236 N 
HETATM    2  N   UNL     1      43.528 -14.673   5.898  1.00  0.00    -0.179 NA
HETATM    3  C   UNL     1      43.347 -13.313   6.062  1.00  0.00     0.119 A 
HETATM    4  C   UNL     1      42.892 -12.725   4.943  1.00  0.00     0.123 A 
HETATM    5  C   UNL     1      42.791 -13.772   3.916  1.00  0.00     0.280 A 
HETATM    6  O   UNL     1      42.428 -13.592   2.767  1.00  0.00    -0.265 OA
HETATM    7  N   UNL     1      43.622 -12.577   7.181  1.00  0.00    -0.344 N 
HETATM    8  C   UNL     1      43.467 -11.207   7.214  1.00  0.00     0.049 A 
HETATM    9  C   UNL     1      43.017 -10.523   6.143  1.00  0.00     0.086 A 
HETATM   10  C   UNL     1      42.679 -11.276   4.898  1.00  0.00     0.193 A 
HETATM   11  O   UNL     1      42.255 -10.676   3.919  1.00  0.00    -0.287 OA
HETATM   12  H   UNL     1      44.486 -14.934   6.132  1.00  0.00     0.155 HD
HETATM   13  H   UNL     1      43.946 -13.058   8.013  1.00  0.00     0.167 HD
ENDROOT
BRANCH   8  14
HETATM   14  C   UNL     1      43.812 -10.494   8.462  1.00  0.00     0.012 A 
HETATM   15  C   UNL     1      45.133 -10.181   8.832  1.00  0.00     0.046 A 
HETATM   16 CL   UNL     1      46.492 -10.589   7.838  1.00  0.00    -0.083 Cl
HETATM   17  C   UNL     1      45.398  -9.508  10.029  1.00  0.00     0.025 A 
HETATM   18  C   UNL     1      44.353  -9.137  10.874  1.00  0.00     0.002 A 
HETATM   19  C   UNL     1      43.040  -9.441  10.524  1.00  0.00     0.001 A 
HETATM   20  C   UNL     1      42.772 -10.116   9.331  1.00  0.00     0.015 A 
ENDBRANCH   8  14
BRANCH   1  21
HETATM   21  C   UNL     1      43.321 -16.264   4.040  1.00  0.00     0.055 A 
HETATM   22  C   UNL     1      42.704 -16.630   2.837  1.00  0.00     0.031 A 
HETATM   23  C   UNL     1      42.829 -17.928   2.329  1.00  0.00     0.002 A 
HETATM   24  C   UNL     1      43.571 -18.881   3.018  1.00  0.00     0.000 A 
HETATM   25  C   UNL     1      44.185 -18.540   4.219  1.00  0.00     0.002 A 
HETATM   26  C   UNL     1      44.059 -17.242   4.726  1.00  0.00     0.031 A 
ENDBRANCH   1  21
TORSDOF 2
ENDMDL
MODEL 5
REMARK VINA RESULT:      -8.5      5.381      6.761
REMARK  2 active torsions:
REMARK  status: ('A' for Active; 'I' for Inactive)
REMARK    1  A    between atoms: C_4  and  N_5 
REMARK    2  A    between atoms: C_12  and  C_13 
ROOT
HETATM    1  N   UNL     1      42.231 -16.479   2.690  1.00  0.00    -0.236 N 
HETATM    2  N   UNL     1      42.652 -15.768   1.544  1.00  0.00    -0.179 NA
HETATM    3  C   UNL     1      41.784 -14.700   1.415  1.00  0.00     0.119 A 
HETATM    4  C   UNL     1      40.889 -14.652   2.416  1.00  0.00     0.123 A 
HETATM    5  C   UNL     1      41.147 -15.811   3.281  1.00  0.00     0.280 A 
HETATM    6  O   UNL     1      40.510 -16.094   4.281  1.00  0.00    -0.265 OA
HETATM    7  N   UNL     1      41.748 -13.790   0.394  1.00  0.00    -0.344 N 
HETATM    8  C   UNL     1      40.790 -12.799   0.330  1.00  0.00     0.049 A 
HETATM    9  C   UNL     1      39.848 -12.666   1.284  1.00  0.00     0.086 A 
HETATM   10  C   UNL     1      39.851 -13.618   2.436  1.00  0.00     0.193 A 
HETATM   11  O   UNL     1      39.013 -13.506   3.321  1.00  0.00    -0.287 OA
HETATM   12  H   UNL     1      42.632 -16.345   0.703  1.00  0.00     0.155 HD
HETATM   13  H   UNL     1      42.451 -13.847  -0.333  1.00  0.00     0.167 HD
ENDROOT
BRANCH   8  14
HETATM   14  C   UNL     1      40.817 -11.875  -0.824  1.00  0.00     0.012 A 
HETATM   15  C   UNL     1      40.526 -12.277  -2.141  1.00  0.00     0.046 A 
HETATM   16 CL   UNL     1      40.085 -13.906  -2.533  1.00  0.00    -0.083 Cl
HETATM   17  C   UNL     1      40.573 -11.357  -3.194  1.00  0.00     0.025 A 
HETATM   18  C   UNL     1      40.908 -10.026  -2.951  1.00  0.00     0.002 A 
HETATM   19  C   UNL     1      41.201  -9.612  -1.654  1.00  0.00     0.001 A 
HETATM   20  C   UNL     1      41.159 -10.529  -0.601  1.00  0.00     0.015 A 
ENDBRANCH   8  14
BRANCH   1  21
HETATM   21  C   UNL     1      42.900 -17.656   3.093  1.00  0.00     0.055 A 
HETATM   22  C   UNL     1      43.506 -17.753   4.352  1.00  0.00     0.031 A 
HETATM   23  C   UNL     1      44.151 -18.928   4.752  1.00  0.00     0.002 A 
HETATM   24  C   UNL     1      44.203 -20.024   3.898  1.00  0.00     0.000 A 
HETATM   25  C   UNL     1      43.614 -19.945   2.640  1.00  0.00     0.002 A 
HETATM   26  C   UNL     1      42.969 -18.770   2.240  1.00  0.00     0.031 A 
ENDBRANCH   1  21
TORSDOF 2
ENDMDL
MODEL 6
REMARK VINA RESULT:      -8.4      1.829      7.749
REMARK  2 active torsions:
REMARK  status: ('A' for Active; 'I' for Inactive)
REMARK    1  A    between atoms: C_4  and  N_5 
REMARK    2  A    between atoms: C_12  and  C_13 
ROOT
HETATM    1  N   UNL     1      43.519 -11.901   6.757  1.00  0.00    -0.236 N 
HETATM    2  N   UNL     1      44.284 -13.075   6.577  1.00  0.00    -0.179 NA
HETATM    3  C   UNL     1      43.491 -13.940   5.846  1.00  0.00     0.119 A 
HETATM    4  C   UNL     1      42.315 -13.386   5.507  1.00  0.00     0.123 A 
HETATM    5  C   UNL     1      42.291 -12.037   6.091  1.00  0.00     0.280 A 
HETATM    6  O   UNL     1      41.364 -11.251   5.999  1.00  0.00    -0.265 OA
HETATM    7  N   UNL     1      43.780 -15.235   5.513  1.00  0.00    -0.344 N 
HETATM    8  C   UNL     1      42.883 -16.035   4.836  1.00  0.00     0.049 A 
HETATM    9  C   UNL     1      41.677 -15.573   4.451  1.00  0.00     0.086 A 
HETATM   10  C   UNL     1      41.314 -14.159   4.768  1.00  0.00     0.193 A 
HETATM   11  O   UNL     1      40.229 -13.714   4.415  1.00  0.00    -0.287 OA
HETATM   12  H   UNL     1      44.550 -13.502   7.464  1.00  0.00     0.155 HD
HETATM   13  H   UNL     1      44.684 -15.613   5.769  1.00  0.00     0.167 HD
ENDROOT
BRANCH   8  14
HETATM   14  C   UNL     1      43.275 -17.429   4.540  1.00  0.00     0.012 A 
HETATM   15  C   UNL     1      43.574 -18.375   5.538  1.00  0.00     0.046 A 
HETATM   16 CL   UNL     1      43.490 -17.995   7.226  1.00  0.00    -0.083 Cl
HETATM   17  C   UNL     1      43.944 -19.680   5.195  1.00  0.00     0.025 A 
HETATM   18  C   UNL     1      44.021 -20.061   3.857  1.00  0.00     0.002 A 
HETATM   19  C   UNL     1      43.730 -19.137   2.857  1.00  0.00     0.001 A 
HETATM   20  C   UNL     1      43.364 -17.832   3.194  1.00  0.00     0.015 A 
ENDBRANCH   8  14
BRANCH   1  21
HETATM   21  C   UNL     1      44.034 -10.812   7.494  1.00  0.00     0.055 A 
HETATM   22  C   UNL     1      45.394 -10.480   7.448  1.00  0.00     0.031 A 
HETATM   23  C   UNL     1      45.894  -9.389   8.167  1.00  0.00     0.002 A 
HETATM   24  C   UNL     1      45.042  -8.613   8.946  1.00  0.00     0.000 A 
HETATM   25  C   UNL     1      43.689  -8.930   9.011  1.00  0.00     0.002 A 
HETATM   26  C   UNL     1      43.189 -10.022   8.292  1.00  0.00     0.031 A 
ENDBRANCH   1  21
TORSDOF 2
ENDMDL
MODEL 7
REMARK VINA RESULT:      -8.3      3.668      5.701
REMARK  2 active torsions:
REMARK  status: ('A' for Active; 'I' for Inactive)
REMARK    1  A    between atoms: C_4  and  N_5 
REMARK    2  A    between atoms: C_12  and  C_13 
ROOT
HETATM    1  N   UNL     1      43.730 -11.929   6.127  1.00  0.00    -0.236 N 
HETATM    2  N   UNL     1      42.822 -11.607   7.161  1.00  0.00    -0.179 NA
HETATM    3  C   UNL     1      43.465 -10.683   7.963  1.00  0.00     0.119 A 
HETATM    4  C   UNL     1      44.680 -10.359   7.487  1.00  0.00     0.123 A 
HETATM    5  C   UNL     1      44.896 -11.162   6.274  1.00  0.00     0.280 A 
HETATM    6  O   UNL     1      45.904 -11.137   5.589  1.00  0.00    -0.265 OA
HETATM    7  N   UNL     1      43.007 -10.156   9.138  1.00  0.00    -0.344 N 
HETATM    8  C   UNL     1      43.765  -9.288   9.897  1.00  0.00     0.049 A 
HETATM    9  C   UNL     1      44.996  -8.901   9.507  1.00  0.00     0.086 A 
HETATM   10  C   UNL     1      45.541  -9.427   8.219  1.00  0.00     0.193 A 
HETATM   11  O   UNL     1      46.650  -9.077   7.839  1.00  0.00    -0.287 OA
HETATM   12  H   UNL     1      42.554 -12.426   7.707  1.00  0.00     0.155 HD
HETATM   13  H   UNL     1      42.079 -10.410   9.456  1.00  0.00     0.167 HD
ENDROOT
BRANCH   8  14
HETATM   14  C   UNL     1      43.194  -8.788  11.165  1.00  0.00     0.012 A 
HETATM   15  C   UNL     1      42.796  -7.452  11.358  1.00  0.00     0.046 A 
HETATM   16 CL   UNL     1      42.921  -6.261  10.107  1.00  0.00    -0.083 Cl
HETATM   17  C   UNL     1      42.266  -7.037  12.584  1.00  0.00     0.025 A 
HETATM   18  C   UNL     1      42.124  -7.944  13.634  1.00  0.00     0.002 A 
HETATM   19  C   UNL     1      42.515  -9.269  13.460  1.00  0.00     0.001 A 
HETATM   20  C   UNL     1      43.048  -9.686  12.239  1.00  0.00     0.015 A 
ENDBRANCH   8  14
BRANCH   1  21
HETATM   21  C   UNL     1      43.388 -12.877   5.137  1.00  0.00     0.055 A 
HETATM   22  C   UNL     1      43.276 -12.513   3.790  1.00  0.00     0.031 A 
HETATM   23  C   UNL     1      42.954 -13.461   2.812  1.00  0.00     0.002 A 
HETATM   24  C   UNL     1      42.737 -14.788   3.167  1.00  0.00     0.000 A 
HETATM   25  C   UNL     1      42.835 -15.168   4.502  1.00  0.00     0.002 A 
HETATM   26  C   UNL     1      43.157 -14.220   5.479  1.00  0.00     0.031 A 
ENDBRANCH   1  21
TORSDOF 2
ENDMDL
MODEL 8
REMARK VINA RESULT:      -8.2      5.139      6.671
REMARK  2 active torsions:
REMARK  status: ('A' for Active; 'I' for Inactive)
REMARK    1  A    between atoms: C_4  and  N_5 
REMARK    2  A    between atoms: C_12  and  C_13 
ROOT
HETATM    1  N   UNL     1      42.203 -16.540   2.678  1.00  0.00    -0.236 N 
HETATM    2  N   UNL     1      42.609 -15.835   1.522  1.00  0.00    -0.179 NA
HETATM    3  C   UNL     1      41.753 -14.756   1.410  1.00  0.00     0.119 A 
HETATM    4  C   UNL     1      40.879 -14.696   2.429  1.00  0.00     0.123 A 
HETATM    5  C   UNL     1      41.141 -15.858   3.291  1.00  0.00     0.280 A 
HETATM    6  O   UNL     1      40.521 -16.132   4.304  1.00  0.00    -0.265 OA
HETATM    7  N   UNL     1      41.706 -13.847   0.390  1.00  0.00    -0.344 N 
HETATM    8  C   UNL     1      40.760 -12.844   0.344  1.00  0.00     0.049 A 
HETATM    9  C   UNL     1      39.840 -12.698   1.317  1.00  0.00     0.086 A 
HETATM   10  C   UNL     1      39.855 -13.648   2.470  1.00  0.00     0.193 A 
HETATM   11  O   UNL     1      39.037 -13.525   3.373  1.00  0.00    -0.287 OA
HETATM   12  H   UNL     1      42.564 -16.413   0.683  1.00  0.00     0.155 HD
HETATM   13  H   UNL     1      42.393 -13.913  -0.352  1.00  0.00     0.167 HD
ENDROOT
BRANCH   8  14
HETATM   14  C   UNL     1      40.775 -11.922  -0.812  1.00  0.00     0.012 A 
HETATM   15  C   UNL     1      41.148 -10.569  -0.714  1.00  0.00     0.046 A 
HETATM   16 CL   UNL     1      41.649  -9.854   0.782  1.00  0.00    -0.083 Cl
HETATM   17  C   UNL     1      41.138  -9.743  -1.844  1.00  0.00     0.025 A 
HETATM   18  C   UNL     1      40.758 -10.253  -3.084  1.00  0.00     0.002 A 
HETATM   19  C   UNL     1      40.384 -11.590  -3.197  1.00  0.00     0.001 A 
HETATM   20  C   UNL     1      40.389 -12.416  -2.071  1.00  0.00     0.015 A 
ENDBRANCH   8  14
BRANCH   1  21
HETATM   21  C   UNL     1      42.865 -17.724   3.069  1.00  0.00     0.055 A 
HETATM   22  C   UNL     1      42.921 -18.840   2.224  1.00  0.00     0.031 A 
HETATM   23  C   UNL     1      43.592 -20.004   2.611  1.00  0.00     0.002 A 
HETATM   24  C   UNL     1      44.218 -20.073   3.852  1.00  0.00     0.000 A 
HETATM   25  C   UNL     1      44.167 -18.978   4.710  1.00  0.00     0.002 A 
HETATM   26  C   UNL     1      43.495 -17.814   4.322  1.00  0.00     0.031 A 
ENDBRANCH   1  21
TORSDOF 2
ENDMDL
MODEL 9
REMARK VINA RESULT:      -8.2      4.347      8.786
REMARK  2 active torsions:
REMARK  status: ('A' for Active; 'I' for Inactive)
REMARK    1  A    between atoms: C_4  and  N_5 
REMARK    2  A    between atoms: C_12  and  C_13 
ROOT
HETATM    1  N   UNL     1      43.658  -9.801  10.495  1.00  0.00    -0.236 N 
HETATM    2  N   UNL     1      42.776 -10.388   9.561  1.00  0.00    -0.179 NA
HETATM    3  C   UNL     1      43.547 -10.732   8.468  1.00  0.00     0.119 A 
HETATM    4  C   UNL     1      44.849 -10.461   8.661  1.00  0.00     0.123 A 
HETATM    5  C   UNL     1      44.967  -9.842   9.990  1.00  0.00     0.280 A 
HETATM    6  O   UNL     1      46.008  -9.449  10.489  1.00  0.00    -0.265 OA
HETATM    7  N   UNL     1      43.106 -11.245   7.280  1.00  0.00    -0.344 N 
HETATM    8  C   UNL     1      43.960 -11.490   6.224  1.00  0.00     0.049 A 
HETATM    9  C   UNL     1      45.283 -11.251   6.318  1.00  0.00     0.086 A 
HETATM   10  C   UNL     1      45.828 -10.711   7.600  1.00  0.00     0.193 A 
HETATM   11  O   UNL     1      47.028 -10.501   7.712  1.00  0.00    -0.287 OA
HETATM   12  H   UNL     1      42.030  -9.749   9.282  1.00  0.00     0.155 HD
HETATM   13  H   UNL     1      42.120 -11.455   7.177  1.00  0.00     0.167 HD
ENDROOT
BRANCH   8  14
HETATM   14  C   UNL     1      43.386 -12.024   4.970  1.00  0.00     0.012 A 
HETATM   15  C   UNL     1      43.057 -13.380   4.789  1.00  0.00     0.046 A 
HETATM   16 CL   UNL     1      43.278 -14.560   6.038  1.00  0.00    -0.083 Cl
HETATM   17  C   UNL     1      42.520 -13.827   3.576  1.00  0.00     0.025 A 
HETATM   18  C   UNL     1      42.303 -12.932   2.530  1.00  0.00     0.002 A 
HETATM   19  C   UNL     1      42.625 -11.587   2.693  1.00  0.00     0.001 A 
HETATM   20  C   UNL     1      43.165 -11.137   3.901  1.00  0.00     0.015 A 
ENDBRANCH   8  14
BRANCH   1  21
HETATM   21  C   UNL     1      43.179  -9.310  11.730  1.00  0.00     0.055 A 
HETATM   22  C   UNL     1      43.665  -8.115  12.275  1.00  0.00     0.031 A 
HETATM   23  C   UNL     1      43.173  -7.625  13.490  1.00  0.00     0.002 A 
HETATM   24  C   UNL     1      42.189  -8.325  14.181  1.00  0.00     0.000 A 
HETATM   25  C   UNL     1      41.700  -9.519  13.660  1.00  0.00     0.002 A 
HETATM   26  C   UNL     1      42.192 -10.008  12.445  1.00  0.00     0.031 A 
ENDBRANCH   1  21
TORSDOF 2
ENDMDL
MODEL 10
REMARK VINA RESULT:      -7.8      3.685      8.922
REMARK  2 active torsions:
REMARK  status: ('A' for Active; 'I' for Inactive)
REMARK    1  A    between atoms: C_4  and  N_5 
REMARK    2  A    between atoms: C_12  and  C_13 
ROOT
HETATM    1  N   UNL     1      43.683  -9.240   9.842  1.00  0.00    -0.236 N 
HETATM    2  N   UNL     1      42.773 -10.095   9.181  1.00  0.00    -0.179 NA
HETATM    3  C   UNL     1      43.508 -10.776   8.229  1.00  0.00     0.119 A 
HETATM    4  C   UNL     1      44.813 -10.460   8.277  1.00  0.00     0.123 A 
HETATM    5  C   UNL     1      44.973  -9.445   9.328  1.00  0.00     0.280 A 
HETATM    6  O   UNL     1      46.027  -8.915   9.635  1.00  0.00    -0.265 OA
HETATM    7  N   UNL     1      43.029 -11.644   7.288  1.00  0.00    -0.344 N 
HETATM    8  C   UNL     1      43.847 -12.219   6.338  1.00  0.00     0.049 A 
HETATM    9  C   UNL     1      45.170 -11.967   6.299  1.00  0.00     0.086 A 
HETATM   10  C   UNL     1      45.755 -11.043   7.317  1.00  0.00     0.193 A 
HETATM   11  O   UNL     1      46.957 -10.811   7.311  1.00  0.00    -0.287 OA
HETATM   12  H   UNL     1      42.012  -9.579   8.738  1.00  0.00     0.155 HD
HETATM   13  H   UNL     1      42.042 -11.873   7.295  1.00  0.00     0.167 HD
ENDROOT
BRANCH   8  14
HETATM   14  C   UNL     1      43.233 -13.128   5.345  1.00  0.00     0.012 A 
HETATM   15  C   UNL     1      42.832 -12.712   4.063  1.00  0.00     0.046 A 
HETATM   16 CL   UNL     1      43.039 -11.083   3.513  1.00  0.00    -0.083 Cl
HETATM   17  C   UNL     1      42.252 -13.619   3.168  1.00  0.00     0.025 A 
HETATM   18  C   UNL     1      42.066 -14.950   3.537  1.00  0.00     0.002 A 
HETATM   19  C   UNL     1      42.455 -15.377   4.804  1.00  0.00     0.001 A 
HETATM   20  C   UNL     1      43.031 -14.475   5.701  1.00  0.00     0.015 A 
ENDBRANCH   8  14
BRANCH   1  21
HETATM   21  C   UNL     1      43.244  -8.375  10.868  1.00  0.00     0.055 A 
HETATM   22  C   UNL     1      43.452  -8.683  12.219  1.00  0.00     0.031 A 
HETATM   23  C   UNL     1      43.030  -7.813  13.230  1.00  0.00     0.002 A 
HETATM   24  C   UNL     1      42.390  -6.621  12.906  1.00  0.00     0.000 A 
HETATM   25  C   UNL     1      42.166  -6.300  11.571  1.00  0.00     0.002 A 
HETATM   26  C   UNL     1      42.588  -7.171  10.561  1.00  0.00     0.031 A 
ENDBRANCH   1  21
TORSDOF 2
ENDMDL
