MODEL 1
REMARK VINA RESULT:      -8.6      0.000      0.000
REMARK  5 active torsions:
REMARK  status: ('A' for Active; 'I' for Inactive)
REMARK    1  A    between atoms: O_2  and  C_3 
REMARK    2  A    between atoms: C_5  and  C_6 
REMARK    3  A    between atoms: C_6  and  N_7 
REMARK       I    between atoms: N_7  and  C_8 
REMARK    4  A    between atoms: C_8  and  C_9 
REMARK    5  A    between atoms: C_19  and  C_20 
ROOT
HETATM    1  C   UNL     1      39.910 -12.919   2.739  1.00  0.00     0.159 A 
HETATM    2  O   UNL     1      38.904 -11.923   2.587  1.00  0.00    -0.268 OA
HETATM    3  C   UNL     1      38.290 -11.635   1.413  1.00  0.00     0.299 A 
HETATM    4  O   UNL     1      37.418 -10.780   1.329  1.00  0.00    -0.259 OA
HETATM    5  C   UNL     1      38.727 -12.418   0.244  1.00  0.00     0.051 A 
HETATM    6  C   UNL     1      39.696 -13.415   0.384  1.00  0.00    -0.006 A 
HETATM    7  C   UNL     1      38.147 -12.142  -1.005  1.00  0.00     0.018 A 
HETATM    8  C   UNL     1      38.531 -12.863  -2.131  1.00  0.00     0.001 A 
HETATM    9  C   UNL     1      39.492 -13.861  -2.010  1.00  0.00     0.001 A 
HETATM   10  C   UNL     1      40.068 -14.136  -0.765  1.00  0.00     0.013 A 
HETATM   11  C   UNL     1      40.316 -13.692   1.706  1.00  0.00     0.025 A 
ENDROOT
BRANCH   1  12
HETATM   12  C   UNL     1      40.458 -13.009   4.147  1.00  0.00     0.276 C 
HETATM   13  N   UNL     1      40.120 -14.193   4.768  1.00  0.00    -0.351 N 
HETATM   14  H   UNL     1      39.717 -14.923   4.198  1.00  0.00     0.163 HD
HETATM   15  O   UNL     1      41.111 -12.136   4.699  1.00  0.00    -0.265 OA
BRANCH  13  16
HETATM   16  C   UNL     1      40.597 -14.499   6.095  1.00  0.00     0.161 C 
BRANCH  16  17
HETATM   17  C   UNL     1      41.913 -15.239   6.163  1.00  0.00    -0.038 A 
HETATM   18  C   UNL     1      42.039 -16.635   6.116  1.00  0.00     0.045 A 
HETATM   19  C   UNL     1      43.294 -17.257   6.158  1.00  0.00     0.068 A 
HETATM   20  C   UNL     1      44.443 -16.478   6.278  1.00  0.00     0.037 A 
HETATM   21  C   UNL     1      44.339 -15.089   6.342  1.00  0.00     0.003 A 
HETATM   22  C   UNL     1      43.087 -14.476   6.280  1.00  0.00     0.009 A 
BRANCH  19  23
HETATM   23  O   UNL     1      43.255 -18.623   6.079  1.00  0.00    -0.356 OA
HETATM   24  C   UNL     1      44.019 -19.228   5.044  1.00  0.00     0.210 C 
ENDBRANCH  19  23
ENDBRANCH  16  17
ENDBRANCH  13  16
ENDBRANCH   1  12
BRANCH  11  25
HETATM   25  C   UNL     1      41.311 -14.771   1.904  1.00  0.00    -0.022 A 
HETATM   26  C   UNL     1      42.681 -14.474   1.867  1.00  0.00     0.012 A 
HETATM   27  C   UNL     1      43.624 -15.479   2.097  1.00  0.00     0.001 A 
HETATM   28  C   UNL     1      43.203 -16.781   2.368  1.00  0.00     0.000 A 
HETATM   29  C   UNL     1      41.843 -17.082   2.407  1.00  0.00     0.001 A 
HETATM   30  C   UNL     1      40.897 -16.081   2.179  1.00  0.00     0.012 A 
ENDBRANCH  11  25
TORSDOF 5
ENDMDL
MODEL 2
REMARK VINA RESULT:      -8.5      2.457      3.693
REMARK  5 active torsions:
REMARK  status: ('A' for Active; 'I' for Inactive)
REMARK    1  A    between atoms: O_2  and  C_3 
REMARK    2  A    between atoms: C_5  and  C_6 
REMARK    3  A    between atoms: C_6  and  N_7 
REMARK       I    between atoms: N_7  and  C_8 
REMARK    4  A    between atoms: C_8  and  C_9 
REMARK    5  A    between atoms: C_19  and  C_20 
ROOT
HETATM    1  C   UNL     1      40.770 -14.016   5.553  1.00  0.00     0.159 A 
HETATM    2  O   UNL     1      40.012 -13.189   6.429  1.00  0.00    -0.268 OA
HETATM    3  C   UNL     1      39.323 -12.090   6.033  1.00  0.00     0.299 A 
HETATM    4  O   UNL     1      38.671 -11.415   6.818  1.00  0.00    -0.259 OA
HETATM    5  C   UNL     1      39.399 -11.761   4.599  1.00  0.00     0.051 A 
HETATM    6  C   UNL     1      40.120 -12.577   3.724  1.00  0.00    -0.006 A 
HETATM    7  C   UNL     1      38.730 -10.616   4.136  1.00  0.00     0.018 A 
HETATM    8  C   UNL     1      38.776 -10.275   2.788  1.00  0.00     0.001 A 
HETATM    9  C   UNL     1      39.486 -11.078   1.901  1.00  0.00     0.001 A 
HETATM   10  C   UNL     1      40.150 -12.218   2.364  1.00  0.00     0.013 A 
HETATM   11  C   UNL     1      40.837 -13.779   4.223  1.00  0.00     0.025 A 
ENDROOT
BRANCH   1  12
HETATM   12  C   UNL     1      41.473 -15.154   6.260  1.00  0.00     0.276 C 
HETATM   13  N   UNL     1      42.844 -15.091   6.125  1.00  0.00    -0.351 N 
HETATM   14  H   UNL     1      43.239 -14.242   5.744  1.00  0.00     0.163 HD
HETATM   15  O   UNL     1      40.910 -16.051   6.872  1.00  0.00    -0.265 OA
BRANCH  13  16
HETATM   16  C   UNL     1      43.700 -16.052   6.777  1.00  0.00     0.161 C 
BRANCH  16  17
HETATM   17  C   UNL     1      43.749 -17.423   6.142  1.00  0.00    -0.038 A 
HETATM   18  C   UNL     1      44.065 -17.661   4.796  1.00  0.00     0.045 A 
HETATM   19  C   UNL     1      44.118 -18.961   4.278  1.00  0.00     0.068 A 
HETATM   20  C   UNL     1      43.824 -20.044   5.104  1.00  0.00     0.037 A 
HETATM   21  C   UNL     1      43.493 -19.828   6.442  1.00  0.00     0.003 A 
HETATM   22  C   UNL     1      43.461 -18.531   6.956  1.00  0.00     0.009 A 
BRANCH  19  23
HETATM   23  O   UNL     1      44.462 -19.032   2.954  1.00  0.00    -0.356 OA
HETATM   24  C   UNL     1      43.817 -20.031   2.176  1.00  0.00     0.210 C 
ENDBRANCH  19  23
ENDBRANCH  16  17
ENDBRANCH  13  16
ENDBRANCH   1  12
BRANCH  11  25
HETATM   25  C   UNL     1      41.573 -14.695   3.320  1.00  0.00    -0.022 A 
HETATM   26  C   UNL     1      41.004 -15.923   2.955  1.00  0.00     0.012 A 
HETATM   27  C   UNL     1      41.673 -16.770   2.068  1.00  0.00     0.001 A 
HETATM   28  C   UNL     1      42.908 -16.394   1.541  1.00  0.00     0.000 A 
HETATM   29  C   UNL     1      43.478 -15.174   1.899  1.00  0.00     0.001 A 
HETATM   30  C   UNL     1      42.813 -14.323   2.784  1.00  0.00     0.012 A 
ENDBRANCH  11  25
TORSDOF 5
ENDMDL
MODEL 3
REMARK VINA RESULT:      -8.5      1.651      2.546
REMARK  5 active torsions:
REMARK  status: ('A' for Active; 'I' for Inactive)
REMARK    1  A    between atoms: O_2  and  C_3 
REMARK    2  A    between atoms: C_5  and  C_6 
REMARK    3  A    between atoms: C_6  and  N_7 
REMARK       I    between atoms: N_7  and  C_8 
REMARK    4  A    between atoms: C_8  and  C_9 
REMARK    5  A    between atoms: C_19  and  C_20 
ROOT
HETATM    1  C   UNL     1      39.499 -12.485   1.789  1.00  0.00     0.159 A 
HETATM    2  O   UNL     1      38.491 -11.578   1.356  1.00  0.00    -0.268 OA
HETATM    3  C   UNL     1      37.932 -11.595   0.121  1.00  0.00     0.299 A 
HETATM    4  O   UNL     1      37.056 -10.805  -0.205  1.00  0.00    -0.259 OA
HETATM    5  C   UNL     1      38.435 -12.626  -0.804  1.00  0.00     0.051 A 
HETATM    6  C   UNL     1      39.407 -13.537  -0.384  1.00  0.00    -0.006 A 
HETATM    7  C   UNL     1      37.914 -12.672  -2.107  1.00  0.00     0.018 A 
HETATM    8  C   UNL     1      38.361 -13.634  -3.007  1.00  0.00     0.001 A 
HETATM    9  C   UNL     1      39.326 -14.552  -2.606  1.00  0.00     0.001 A 
HETATM   10  C   UNL     1      39.843 -14.505  -1.307  1.00  0.00     0.013 A 
HETATM   11  C   UNL     1      39.964 -13.474   0.993  1.00  0.00     0.025 A 
ENDROOT
BRANCH   1  12
HETATM   12  C   UNL     1      39.978 -12.221   3.200  1.00  0.00     0.276 C 
HETATM   13  N   UNL     1      39.508 -13.155   4.099  1.00  0.00    -0.351 N 
HETATM   14  H   UNL     1      39.063 -13.982   3.725  1.00  0.00     0.163 HD
HETATM   15  O   UNL     1      40.686 -11.282   3.534  1.00  0.00    -0.265 OA
BRANCH  13  16
HETATM   16  C   UNL     1      39.900 -13.115   5.487  1.00  0.00     0.161 C 
BRANCH  16  17
HETATM   17  C   UNL     1      41.241 -13.736   5.807  1.00  0.00    -0.038 A 
HETATM   18  C   UNL     1      42.395 -13.004   6.123  1.00  0.00     0.045 A 
HETATM   19  C   UNL     1      43.601 -13.643   6.437  1.00  0.00     0.068 A 
HETATM   20  C   UNL     1      43.671 -15.034   6.408  1.00  0.00     0.037 A 
HETATM   21  C   UNL     1      42.538 -15.780   6.081  1.00  0.00     0.003 A 
HETATM   22  C   UNL     1      41.335 -15.137   5.789  1.00  0.00     0.009 A 
BRANCH  19  23
HETATM   23  O   UNL     1      44.631 -12.795   6.746  1.00  0.00    -0.356 OA
HETATM   24  C   UNL     1      44.301 -11.631   7.492  1.00  0.00     0.210 C 
ENDBRANCH  19  23
ENDBRANCH  16  17
ENDBRANCH  13  16
ENDBRANCH   1  12
BRANCH  11  25
HETATM   25  C   UNL     1      40.961 -14.451   1.489  1.00  0.00    -0.022 A 
HETATM   26  C   UNL     1      40.546 -15.725   1.902  1.00  0.00     0.012 A 
HETATM   27  C   UNL     1      41.486 -16.666   2.328  1.00  0.00     0.001 A 
HETATM   28  C   UNL     1      42.842 -16.340   2.342  1.00  0.00     0.000 A 
HETATM   29  C   UNL     1      43.261 -15.076   1.932  1.00  0.00     0.001 A 
HETATM   30  C   UNL     1      42.325 -14.132   1.503  1.00  0.00     0.012 A 
ENDBRANCH  11  25
TORSDOF 5
ENDMDL
MODEL 4
REMARK VINA RESULT:      -8.4      2.894      6.625
REMARK  5 active torsions:
REMARK  status: ('A' for Active; 'I' for Inactive)
REMARK    1  A    between atoms: O_2  and  C_3 
REMARK    2  A    between atoms: C_5  and  C_6 
REMARK    3  A    between atoms: C_6  and  N_7 
REMARK       I    between atoms: N_7  and  C_8 
REMARK    4  A    between atoms: C_8  and  C_9 
REMARK    5  A    between atoms: C_19  and  C_20 
ROOT
HETATM    1  C   UNL     1      42.451 -16.266   5.235  1.00  0.00     0.159 A 
HETATM    2  O   UNL     1      42.938 -17.102   6.278  1.00  0.00    -0.268 OA
HETATM    3  C   UNL     1      43.431 -18.351   6.085  1.00  0.00     0.299 A 
HETATM    4  O   UNL     1      43.854 -19.031   7.009  1.00  0.00    -0.259 OA
HETATM    5  C   UNL     1      43.433 -18.838   4.694  1.00  0.00     0.051 A 
HETATM    6  C   UNL     1      42.980 -18.019   3.658  1.00  0.00    -0.006 A 
HETATM    7  C   UNL     1      43.904 -20.136   4.438  1.00  0.00     0.018 A 
HETATM    8  C   UNL     1      43.926 -20.630   3.137  1.00  0.00     0.001 A 
HETATM    9  C   UNL     1      43.481 -19.827   2.092  1.00  0.00     0.001 A 
HETATM   10  C   UNL     1      43.014 -18.534   2.349  1.00  0.00     0.013 A 
HETATM   11  C   UNL     1      42.470 -16.651   3.938  1.00  0.00     0.025 A 
ENDROOT
BRANCH   1  12
HETATM   12  C   UNL     1      41.921 -14.937   5.728  1.00  0.00     0.276 C 
HETATM   13  N   UNL     1      42.929 -14.031   5.985  1.00  0.00    -0.351 N 
HETATM   14  H   UNL     1      43.859 -14.263   5.666  1.00  0.00     0.163 HD
HETATM   15  O   UNL     1      40.740 -14.678   5.906  1.00  0.00    -0.265 OA
BRANCH  13  16
HETATM   16  C   UNL     1      42.629 -12.685   6.407  1.00  0.00     0.161 C 
BRANCH  16  17
HETATM   17  C   UNL     1      43.796 -11.895   6.955  1.00  0.00    -0.038 A 
HETATM   18  C   UNL     1      43.779 -11.203   8.175  1.00  0.00     0.045 A 
HETATM   19  C   UNL     1      44.906 -10.512   8.638  1.00  0.00     0.068 A 
HETATM   20  C   UNL     1      46.062 -10.482   7.860  1.00  0.00     0.037 A 
HETATM   21  C   UNL     1      46.094 -11.151   6.637  1.00  0.00     0.003 A 
HETATM   22  C   UNL     1      44.974 -11.854   6.192  1.00  0.00     0.009 A 
BRANCH  19  23
HETATM   23  O   UNL     1      44.743  -9.907   9.855  1.00  0.00    -0.356 OA
HETATM   24  C   UNL     1      43.848 -10.531  10.766  1.00  0.00     0.210 C 
ENDBRANCH  19  23
ENDBRANCH  16  17
ENDBRANCH  13  16
ENDBRANCH   1  12
BRANCH  11  25
HETATM   25  C   UNL     1      42.025 -15.735   2.862  1.00  0.00    -0.022 A 
HETATM   26  C   UNL     1      40.734 -15.860   2.328  1.00  0.00     0.012 A 
HETATM   27  C   UNL     1      40.293 -14.971   1.345  1.00  0.00     0.001 A 
HETATM   28  C   UNL     1      41.135 -13.955   0.894  1.00  0.00     0.000 A 
HETATM   29  C   UNL     1      42.418 -13.825   1.422  1.00  0.00     0.001 A 
HETATM   30  C   UNL     1      42.863 -14.710   2.406  1.00  0.00     0.012 A 
ENDBRANCH  11  25
TORSDOF 5
ENDMDL
MODEL 5
REMARK VINA RESULT:      -8.3      2.428      7.483
REMARK  5 active torsions:
REMARK  status: ('A' for Active; 'I' for Inactive)
REMARK    1  A    between atoms: O_2  and  C_3 
REMARK    2  A    between atoms: C_5  and  C_6 
REMARK    3  A    between atoms: C_6  and  N_7 
REMARK       I    between atoms: N_7  and  C_8 
REMARK    4  A    between atoms: C_8  and  C_9 
REMARK    5  A    between atoms: C_19  and  C_20 
ROOT
HETATM    1  C   UNL     1      42.739 -17.280   2.555  1.00  0.00     0.159 A 
HETATM    2  O   UNL     1      43.070 -18.421   1.770  1.00  0.00    -0.268 OA
HETATM    3  C   UNL     1      43.479 -19.606   2.286  1.00  0.00     0.299 A 
HETATM    4  O   UNL     1      43.739 -20.568   1.575  1.00  0.00    -0.259 OA
HETATM    5  C   UNL     1      43.586 -19.672   3.754  1.00  0.00     0.051 A 
HETATM    6  C   UNL     1      43.242 -18.567   4.537  1.00  0.00    -0.006 A 
HETATM    7  C   UNL     1      44.035 -20.866   4.342  1.00  0.00     0.018 A 
HETATM    8  C   UNL     1      44.145 -20.967   5.726  1.00  0.00     0.001 A 
HETATM    9  C   UNL     1      43.804 -19.878   6.522  1.00  0.00     0.001 A 
HETATM   10  C   UNL     1      43.356 -18.691   5.934  1.00  0.00     0.013 A 
HETATM   11  C   UNL     1      42.782 -17.303   3.907  1.00  0.00     0.025 A 
ENDROOT
BRANCH   1  12
HETATM   12  C   UNL     1      42.350 -16.074   1.727  1.00  0.00     0.276 C 
HETATM   13  N   UNL     1      40.984 -15.955   1.581  1.00  0.00    -0.351 N 
HETATM   14  H   UNL     1      40.398 -16.545   2.156  1.00  0.00     0.163 HD
HETATM   15  O   UNL     1      43.139 -15.291   1.219  1.00  0.00    -0.265 OA
BRANCH  13  16
HETATM   16  C   UNL     1      40.406 -14.838   0.876  1.00  0.00     0.161 C 
BRANCH  16  17
HETATM   17  C   UNL     1      40.451 -13.512   1.601  1.00  0.00    -0.038 A 
HETATM   18  C   UNL     1      41.223 -12.414   1.193  1.00  0.00     0.045 A 
HETATM   19  C   UNL     1      41.198 -11.203   1.897  1.00  0.00     0.068 A 
HETATM   20  C   UNL     1      40.414 -11.089   3.043  1.00  0.00     0.037 A 
HETATM   21  C   UNL     1      39.650 -12.174   3.473  1.00  0.00     0.003 A 
HETATM   22  C   UNL     1      39.665 -13.371   2.756  1.00  0.00     0.009 A 
BRANCH  19  23
HETATM   23  O   UNL     1      41.987 -10.218   1.364  1.00  0.00    -0.356 OA
HETATM   24  C   UNL     1      41.625  -9.733   0.077  1.00  0.00     0.210 C 
ENDBRANCH  19  23
ENDBRANCH  16  17
ENDBRANCH  13  16
ENDBRANCH   1  12
BRANCH  11  25
HETATM   25  C   UNL     1      42.364 -16.126   4.704  1.00  0.00    -0.022 A 
HETATM   26  C   UNL     1      43.247 -15.052   4.882  1.00  0.00     0.012 A 
HETATM   27  C   UNL     1      42.843 -13.921   5.595  1.00  0.00     0.001 A 
HETATM   28  C   UNL     1      41.557 -13.857   6.130  1.00  0.00     0.000 A 
HETATM   29  C   UNL     1      40.673 -14.920   5.955  1.00  0.00     0.001 A 
HETATM   30  C   UNL     1      41.072 -16.052   5.242  1.00  0.00     0.012 A 
ENDBRANCH  11  25
TORSDOF 5
ENDMDL
MODEL 6
REMARK VINA RESULT:      -8.2      1.899      6.906
REMARK  5 active torsions:
REMARK  status: ('A' for Active; 'I' for Inactive)
REMARK    1  A    between atoms: O_2  and  C_3 
REMARK    2  A    between atoms: C_5  and  C_6 
REMARK    3  A    between atoms: C_6  and  N_7 
REMARK       I    between atoms: N_7  and  C_8 
REMARK    4  A    between atoms: C_8  and  C_9 
REMARK    5  A    between atoms: C_19  and  C_20 
ROOT
HETATM    1  C   UNL     1      42.309 -15.163   4.652  1.00  0.00     0.159 A 
HETATM    2  O   UNL     1      43.013 -15.665   5.783  1.00  0.00    -0.268 OA
HETATM    3  C   UNL     1      43.629 -16.872   5.821  1.00  0.00     0.299 A 
HETATM    4  O   UNL     1      44.237 -17.259   6.810  1.00  0.00    -0.259 OA
HETATM    5  C   UNL     1      43.531 -17.689   4.599  1.00  0.00     0.051 A 
HETATM    6  C   UNL     1      42.863 -17.199   3.474  1.00  0.00    -0.006 A 
HETATM    7  C   UNL     1      44.124 -18.962   4.591  1.00  0.00     0.018 A 
HETATM    8  C   UNL     1      44.056 -19.760   3.454  1.00  0.00     0.001 A 
HETATM    9  C   UNL     1      43.398 -19.287   2.323  1.00  0.00     0.001 A 
HETATM   10  C   UNL     1      42.808 -18.019   2.333  1.00  0.00     0.013 A 
HETATM   11  C   UNL     1      42.225 -15.856   3.494  1.00  0.00     0.025 A 
ENDROOT
BRANCH   1  12
HETATM   12  C   UNL     1      41.681 -13.806   4.889  1.00  0.00     0.276 C 
HETATM   13  N   UNL     1      40.332 -13.890   5.158  1.00  0.00    -0.351 N 
HETATM   14  H   UNL     1      39.947 -14.807   5.341  1.00  0.00     0.163 HD
HETATM   15  O   UNL     1      42.279 -12.741   4.835  1.00  0.00    -0.265 OA
BRANCH  13  16
HETATM   16  C   UNL     1      39.561 -12.713   5.472  1.00  0.00     0.161 C 
BRANCH  16  17
HETATM   17  C   UNL     1      39.112 -11.888   4.287  1.00  0.00    -0.038 A 
HETATM   18  C   UNL     1      38.877 -10.506   4.330  1.00  0.00     0.045 A 
HETATM   19  C   UNL     1      38.487  -9.796   3.186  1.00  0.00     0.068 A 
HETATM   20  C   UNL     1      38.300 -10.476   1.985  1.00  0.00     0.037 A 
HETATM   21  C   UNL     1      38.515 -11.853   1.925  1.00  0.00     0.003 A 
HETATM   22  C   UNL     1      38.922 -12.550   3.064  1.00  0.00     0.009 A 
BRANCH  19  23
HETATM   23  O   UNL     1      38.319  -8.451   3.382  1.00  0.00    -0.356 OA
HETATM   24  C   UNL     1      37.727  -8.051   4.611  1.00  0.00     0.210 C 
ENDBRANCH  19  23
ENDBRANCH  16  17
ENDBRANCH  13  16
ENDBRANCH   1  12
BRANCH  11  25
HETATM   25  C   UNL     1      41.549 -15.283   2.307  1.00  0.00    -0.022 A 
HETATM   26  C   UNL     1      42.113 -14.183   1.644  1.00  0.00     0.012 A 
HETATM   27  C   UNL     1      41.504 -13.666   0.499  1.00  0.00     0.001 A 
HETATM   28  C   UNL     1      40.334 -14.246   0.008  1.00  0.00     0.000 A 
HETATM   29  C   UNL     1      39.770 -15.341   0.661  1.00  0.00     0.001 A 
HETATM   30  C   UNL     1      40.376 -15.862   1.806  1.00  0.00     0.012 A 
ENDBRANCH  11  25
TORSDOF 5
ENDMDL
MODEL 7
REMARK VINA RESULT:      -8.2      2.432      6.830
REMARK  5 active torsions:
REMARK  status: ('A' for Active; 'I' for Inactive)
REMARK    1  A    between atoms: O_2  and  C_3 
REMARK    2  A    between atoms: C_5  and  C_6 
REMARK    3  A    between atoms: C_6  and  N_7 
REMARK       I    between atoms: N_7  and  C_8 
REMARK    4  A    between atoms: C_8  and  C_9 
REMARK    5  A    between atoms: C_19  and  C_20 
ROOT
HETATM    1  C   UNL     1      42.772 -17.052   5.444  1.00  0.00     0.159 A 
HETATM    2  O   UNL     1      43.220 -18.068   6.334  1.00  0.00    -0.268 OA
HETATM    3  C   UNL     1      43.636 -19.297   5.939  1.00  0.00     0.299 A 
HETATM    4  O   UNL     1      44.029 -20.137   6.738  1.00  0.00    -0.259 OA
HETATM    5  C   UNL     1      43.596 -19.559   4.490  1.00  0.00     0.051 A 
HETATM    6  C   UNL     1      43.180 -18.563   3.603  1.00  0.00    -0.006 A 
HETATM    7  C   UNL     1      43.986 -20.826   4.025  1.00  0.00     0.018 A 
HETATM    8  C   UNL     1      43.965 -21.109   2.663  1.00  0.00     0.001 A 
HETATM    9  C   UNL     1      43.558 -20.128   1.765  1.00  0.00     0.001 A 
HETATM   10  C   UNL     1      43.170 -18.867   2.230  1.00  0.00     0.013 A 
HETATM   11  C   UNL     1      42.755 -17.229   4.103  1.00  0.00     0.025 A 
ENDROOT
BRANCH   1  12
HETATM   12  C   UNL     1      42.327 -15.789   6.149  1.00  0.00     0.276 C 
HETATM   13  N   UNL     1      43.241 -14.764   6.021  1.00  0.00    -0.351 N 
HETATM   14  H   UNL     1      43.992 -14.887   5.356  1.00  0.00     0.163 HD
HETATM   15  O   UNL     1      41.289 -15.672   6.784  1.00  0.00    -0.265 OA
BRANCH  13  16
HETATM   16  C   UNL     1      42.975 -13.458   6.571  1.00  0.00     0.161 C 
BRANCH  16  17
HETATM   17  C   UNL     1      42.337 -12.466   5.625  1.00  0.00    -0.038 A 
HETATM   18  C   UNL     1      40.957 -12.220   5.551  1.00  0.00     0.045 A 
HETATM   19  C   UNL     1      40.433 -11.266   4.669  1.00  0.00     0.068 A 
HETATM   20  C   UNL     1      41.291 -10.565   3.825  1.00  0.00     0.037 A 
HETATM   21  C   UNL     1      42.664 -10.805   3.873  1.00  0.00     0.003 A 
HETATM   22  C   UNL     1      43.181 -11.742   4.768  1.00  0.00     0.009 A 
BRANCH  19  23
HETATM   23  O   UNL     1      39.072 -11.124   4.729  1.00  0.00    -0.356 OA
HETATM   24  C   UNL     1      38.566 -10.187   5.670  1.00  0.00     0.210 C 
ENDBRANCH  19  23
ENDBRANCH  16  17
ENDBRANCH  13  16
ENDBRANCH   1  12
BRANCH  11  25
HETATM   25  C   UNL     1      42.353 -16.133   3.192  1.00  0.00    -0.022 A 
HETATM   26  C   UNL     1      41.001 -15.954   2.865  1.00  0.00     0.012 A 
HETATM   27  C   UNL     1      40.611 -14.895   2.043  1.00  0.00     0.001 A 
HETATM   28  C   UNL     1      41.567 -14.009   1.547  1.00  0.00     0.000 A 
HETATM   29  C   UNL     1      42.912 -14.179   1.869  1.00  0.00     0.001 A 
HETATM   30  C   UNL     1      43.307 -15.236   2.692  1.00  0.00     0.012 A 
ENDBRANCH  11  25
TORSDOF 5
ENDMDL
MODEL 8
REMARK VINA RESULT:      -8.0      3.078      7.127
REMARK  5 active torsions:
REMARK  status: ('A' for Active; 'I' for Inactive)
REMARK    1  A    between atoms: O_2  and  C_3 
REMARK    2  A    between atoms: C_5  and  C_6 
REMARK    3  A    between atoms: C_6  and  N_7 
REMARK       I    between atoms: N_7  and  C_8 
REMARK    4  A    between atoms: C_8  and  C_9 
REMARK    5  A    between atoms: C_19  and  C_20 
ROOT
HETATM    1  C   UNL     1      43.208 -17.092   2.784  1.00  0.00     0.159 A 
HETATM    2  O   UNL     1      43.353 -18.132   1.823  1.00  0.00    -0.268 OA
HETATM    3  C   UNL     1      43.554 -19.436   2.136  1.00  0.00     0.299 A 
HETATM    4  O   UNL     1      43.659 -20.301   1.278  1.00  0.00    -0.259 OA
HETATM    5  C   UNL     1      43.630 -19.752   3.574  1.00  0.00     0.051 A 
HETATM    6  C   UNL     1      43.465 -18.745   4.528  1.00  0.00    -0.006 A 
HETATM    7  C   UNL     1      43.867 -21.082   3.958  1.00  0.00     0.018 A 
HETATM    8  C   UNL     1      43.941 -21.419   5.305  1.00  0.00     0.001 A 
HETATM    9  C   UNL     1      43.776 -20.431   6.269  1.00  0.00     0.001 A 
HETATM   10  C   UNL     1      43.539 -19.107   5.885  1.00  0.00     0.013 A 
HETATM   11  C   UNL     1      43.229 -17.337   4.114  1.00  0.00     0.025 A 
ENDROOT
BRANCH   1  12
HETATM   12  C   UNL     1      43.034 -15.722   2.165  1.00  0.00     0.276 C 
HETATM   13  N   UNL     1      41.829 -15.142   2.499  1.00  0.00    -0.351 N 
HETATM   14  H   UNL     1      41.284 -15.581   3.229  1.00  0.00     0.163 HD
HETATM   15  O   UNL     1      43.848 -15.179   1.432  1.00  0.00    -0.265 OA
BRANCH  13  16
HETATM   16  C   UNL     1      41.497 -13.810   2.059  1.00  0.00     0.161 C 
BRANCH  16  17
HETATM   17  C   UNL     1      41.882 -12.692   3.002  1.00  0.00    -0.038 A 
HETATM   18  C   UNL     1      43.195 -12.426   3.417  1.00  0.00     0.045 A 
HETATM   19  C   UNL     1      43.487 -11.356   4.273  1.00  0.00     0.068 A 
HETATM   20  C   UNL     1      42.452 -10.554   4.749  1.00  0.00     0.037 A 
HETATM   21  C   UNL     1      41.137 -10.812   4.360  1.00  0.00     0.003 A 
HETATM   22  C   UNL     1      40.857 -11.867   3.492  1.00  0.00     0.009 A 
BRANCH  19  23
HETATM   23  O   UNL     1      44.816 -11.210   4.569  1.00  0.00    -0.356 OA
HETATM   24  C   UNL     1      45.176 -11.253   5.943  1.00  0.00     0.210 C 
ENDBRANCH  19  23
ENDBRANCH  16  17
ENDBRANCH  13  16
ENDBRANCH   1  12
BRANCH  11  25
HETATM   25  C   UNL     1      43.002 -16.251   5.095  1.00  0.00    -0.022 A 
HETATM   26  C   UNL     1      44.091 -15.520   5.593  1.00  0.00     0.012 A 
HETATM   27  C   UNL     1      43.879 -14.465   6.483  1.00  0.00     0.001 A 
HETATM   28  C   UNL     1      42.583 -14.134   6.877  1.00  0.00     0.000 A 
HETATM   29  C   UNL     1      41.497 -14.855   6.385  1.00  0.00     0.001 A 
HETATM   30  C   UNL     1      41.703 -15.909   5.494  1.00  0.00     0.012 A 
ENDBRANCH  11  25
TORSDOF 5
ENDMDL
MODEL 9
REMARK VINA RESULT:      -7.8      2.939      6.401
REMARK  5 active torsions:
REMARK  status: ('A' for Active; 'I' for Inactive)
REMARK    1  A    between atoms: O_2  and  C_3 
REMARK    2  A    between atoms: C_5  and  C_6 
REMARK    3  A    between atoms: C_6  and  N_7 
REMARK       I    between atoms: N_7  and  C_8 
REMARK    4  A    between atoms: C_8  and  C_9 
REMARK    5  A    between atoms: C_19  and  C_20 
ROOT
HETATM    1  C   UNL     1      41.937 -15.273   4.862  1.00  0.00     0.159 A 
HETATM    2  O   UNL     1      42.518 -15.767   6.064  1.00  0.00    -0.268 OA
HETATM    3  C   UNL     1      43.225 -16.922   6.149  1.00  0.00     0.299 A 
HETATM    4  O   UNL     1      43.720 -17.303   7.201  1.00  0.00    -0.259 OA
HETATM    5  C   UNL     1      43.368 -17.687   4.898  1.00  0.00     0.051 A 
HETATM    6  C   UNL     1      42.823 -17.201   3.707  1.00  0.00    -0.006 A 
HETATM    7  C   UNL     1      44.064 -18.906   4.932  1.00  0.00     0.018 A 
HETATM    8  C   UNL     1      44.224 -19.654   3.770  1.00  0.00     0.001 A 
HETATM    9  C   UNL     1      43.691 -19.185   2.574  1.00  0.00     0.001 A 
HETATM   10  C   UNL     1      42.999 -17.970   2.542  1.00  0.00     0.013 A 
HETATM   11  C   UNL     1      42.076 -15.917   3.681  1.00  0.00     0.025 A 
ENDROOT
BRANCH   1  12
HETATM   12  C   UNL     1      41.168 -13.983   5.053  1.00  0.00     0.276 C 
HETATM   13  N   UNL     1      41.995 -12.909   5.305  1.00  0.00    -0.351 N 
HETATM   14  H   UNL     1      42.988 -13.040   5.167  1.00  0.00     0.163 HD
HETATM   15  O   UNL     1      39.950 -13.884   5.013  1.00  0.00    -0.265 OA
BRANCH  13  16
HETATM   16  C   UNL     1      41.461 -11.578   5.457  1.00  0.00     0.161 C 
BRANCH  16  17
HETATM   17  C   UNL     1      42.107 -10.731   6.529  1.00  0.00    -0.038 A 
HETATM   18  C   UNL     1      43.483 -10.717   6.803  1.00  0.00     0.045 A 
HETATM   19  C   UNL     1      44.021  -9.886   7.794  1.00  0.00     0.068 A 
HETATM   20  C   UNL     1      43.175  -9.076   8.547  1.00  0.00     0.037 A 
HETATM   21  C   UNL     1      41.802  -9.086   8.300  1.00  0.00     0.003 A 
HETATM   22  C   UNL     1      41.275  -9.901   7.298  1.00  0.00     0.009 A 
BRANCH  19  23
HETATM   23  O   UNL     1      45.382  -9.967   7.927  1.00  0.00    -0.356 OA
HETATM   24  C   UNL     1      46.044 -10.958   7.153  1.00  0.00     0.210 C 
ENDBRANCH  19  23
ENDBRANCH  16  17
ENDBRANCH  13  16
ENDBRANCH   1  12
BRANCH  11  25
HETATM   25  C   UNL     1      41.525 -15.346   2.430  1.00  0.00    -0.022 A 
HETATM   26  C   UNL     1      40.387 -15.917   1.842  1.00  0.00     0.012 A 
HETATM   27  C   UNL     1      39.836 -15.356   0.688  1.00  0.00     0.001 A 
HETATM   28  C   UNL     1      40.416 -14.223   0.118  1.00  0.00     0.000 A 
HETATM   29  C   UNL     1      41.546 -13.649   0.698  1.00  0.00     0.001 A 
HETATM   30  C   UNL     1      42.099 -14.206   1.853  1.00  0.00     0.012 A 
ENDBRANCH  11  25
TORSDOF 5
ENDMDL
MODEL 10
REMARK VINA RESULT:      -7.8      2.314      8.020
REMARK  5 active torsions:
REMARK  status: ('A' for Active; 'I' for Inactive)
REMARK    1  A    between atoms: O_2  and  C_3 
REMARK    2  A    between atoms: C_5  and  C_6 
REMARK    3  A    between atoms: C_6  and  N_7 
REMARK       I    between atoms: N_7  and  C_8 
REMARK    4  A    between atoms: C_8  and  C_9 
REMARK    5  A    between atoms: C_19  and  C_20 
ROOT
HETATM    1  C   UNL     1      43.054 -17.028   2.861  1.00  0.00     0.159 A 
HETATM    2  O   UNL     1      43.131 -18.014   1.838  1.00  0.00    -0.268 OA
HETATM    3  C   UNL     1      43.388 -19.326   2.064  1.00  0.00     0.299 A 
HETATM    4  O   UNL     1      43.431 -20.144   1.155  1.00  0.00    -0.259 OA
HETATM    5  C   UNL     1      43.605 -19.711   3.470  1.00  0.00     0.051 A 
HETATM    6  C   UNL     1      43.508 -18.758   4.486  1.00  0.00    -0.006 A 
HETATM    7  C   UNL     1      43.905 -21.052   3.760  1.00  0.00     0.018 A 
HETATM    8  C   UNL     1      44.111 -21.454   5.076  1.00  0.00     0.001 A 
HETATM    9  C   UNL     1      44.016 -20.520   6.102  1.00  0.00     0.001 A 
HETATM   10  C   UNL     1      43.716 -19.185   5.810  1.00  0.00     0.013 A 
HETATM   11  C   UNL     1      43.204 -17.338   4.169  1.00  0.00     0.025 A 
ENDROOT
BRANCH   1  12
HETATM   12  C   UNL     1      42.794 -15.633   2.333  1.00  0.00     0.276 C 
HETATM   13  N   UNL     1      41.469 -15.267   2.442  1.00  0.00    -0.351 N 
HETATM   14  H   UNL     1      40.864 -15.857   2.997  1.00  0.00     0.163 HD
HETATM   15  O   UNL     1      43.643 -14.903   1.843  1.00  0.00    -0.265 OA
BRANCH  13  16
HETATM   16  C   UNL     1      41.026 -13.952   2.049  1.00  0.00     0.161 C 
BRANCH  16  17
HETATM   17  C   UNL     1      40.628 -13.800   0.599  1.00  0.00    -0.038 A 
HETATM   18  C   UNL     1      40.946 -12.689  -0.196  1.00  0.00     0.045 A 
HETATM   19  C   UNL     1      40.568 -12.624  -1.544  1.00  0.00     0.068 A 
HETATM   20  C   UNL     1      39.836 -13.668  -2.104  1.00  0.00     0.037 A 
HETATM   21  C   UNL     1      39.497 -14.775  -1.327  1.00  0.00     0.003 A 
HETATM   22  C   UNL     1      39.894 -14.842   0.009  1.00  0.00     0.009 A 
BRANCH  19  23
HETATM   23  O   UNL     1      40.972 -11.488  -2.193  1.00  0.00    -0.356 OA
HETATM   24  C   UNL     1      40.104 -10.981  -3.199  1.00  0.00     0.210 C 
ENDBRANCH  19  23
ENDBRANCH  16  17
ENDBRANCH  13  16
ENDBRANCH   1  12
BRANCH  11  25
HETATM   25  C   UNL     1      43.048 -16.307   5.222  1.00  0.00    -0.022 A 
HETATM   26  C   UNL     1      41.799 -16.111   5.829  1.00  0.00     0.012 A 
HETATM   27  C   UNL     1      41.655 -15.173   6.853  1.00  0.00     0.001 A 
HETATM   28  C   UNL     1      42.756 -14.430   7.278  1.00  0.00     0.000 A 
HETATM   29  C   UNL     1      44.001 -14.622   6.681  1.00  0.00     0.001 A 
HETATM   30  C   UNL     1      44.150 -15.559   5.657  1.00  0.00     0.012 A 
ENDBRANCH  11  25
TORSDOF 5
ENDMDL
