MODEL 1
REMARK VINA RESULT:      -7.8      0.000      0.000
REMARK  6 active torsions:
REMARK  status: ('A' for Active; 'I' for Inactive)
REMARK    1  A    between atoms: C_2  and  C_3 
REMARK    2  A    between atoms: C_2  and  C_18 
REMARK       I    between atoms: C_3  and  N_4 
REMARK    3  A    between atoms: N_4  and  C_5 
REMARK    4  A    between atoms: C_9  and  C_10 
REMARK    5  A    between atoms: C_18  and  C_19 
REMARK    6  A    between atoms: C_22  and  O_23 
ROOT
HETATM    1  C   UNL     1      41.451 -13.987   2.861  1.00  0.00     0.227 C 
HETATM    2  N   UNL     1      41.623 -14.081   4.230  1.00  0.00    -0.312 N 
HETATM    3  O   UNL     1      41.549 -12.932   2.231  1.00  0.00    -0.273 OA
HETATM    4  H   UNL     1      41.484 -14.961   4.708  1.00  0.00     0.170 HD
ENDROOT
BRANCH   2   5
HETATM    5  C   UNL     1      41.959 -12.983   4.997  1.00  0.00     0.126 A 
HETATM    6  N   UNL     1      41.128 -11.924   5.244  1.00  0.00    -0.262 N 
HETATM    7  H   UNL     1      40.169 -11.820   4.925  1.00  0.00     0.191 HD
HETATM    8  N   UNL     1      41.707 -10.941   5.956  1.00  0.00    -0.172 NA
HETATM    9  C   UNL     1      42.939 -11.403   6.230  1.00  0.00     0.092 A 
HETATM   10  C   UNL     1      43.133 -12.687   5.644  1.00  0.00     0.084 A 
BRANCH   9  11
HETATM   11  C   UNL     1      43.895 -10.618   7.006  1.00  0.00     0.012 A 
HETATM   12  C   UNL     1      43.493  -9.539   7.788  1.00  0.00     0.130 A 
HETATM   13  N   UNL     1      44.327  -8.785   8.548  1.00  0.00    -0.272 NA
HETATM   14  C   UNL     1      45.635  -9.120   8.521  1.00  0.00     0.116 A 
HETATM   15  C   UNL     1      46.145 -10.168   7.773  1.00  0.00     0.020 A 
HETATM   16  C   UNL     1      45.260 -10.924   7.004  1.00  0.00     0.017 A 
ENDBRANCH   9  11
ENDBRANCH   2   5
BRANCH   1  17
HETATM   17  C   UNL     1      41.264 -15.316   2.127  1.00  0.00     0.078 C 
HETATM   18  C   UNL     1      40.346 -15.081   0.926  1.00  0.00     0.020 C 
BRANCH  17  19
HETATM   19  C   UNL     1      42.561 -16.005   1.675  1.00  0.00     0.052 C 
BRANCH  19  20
HETATM   20  C   UNL     1      43.081 -17.077   2.601  1.00  0.00    -0.057 A 
HETATM   21  C   UNL     1      43.107 -18.421   2.210  1.00  0.00     0.010 A 
HETATM   22  C   UNL     1      43.633 -19.395   3.062  1.00  0.00     0.037 A 
HETATM   23  C   UNL     1      44.148 -19.049   4.312  1.00  0.00     0.068 A 
HETATM   24  C   UNL     1      44.125 -17.714   4.709  1.00  0.00     0.037 A 
HETATM   25  C   UNL     1      43.599 -16.735   3.858  1.00  0.00     0.010 A 
BRANCH  23  26
HETATM   26  O   UNL     1      44.644 -20.096   5.037  1.00  0.00    -0.356 OA
HETATM   27  C   UNL     1      43.868 -21.287   5.061  1.00  0.00     0.210 C 
ENDBRANCH  23  26
ENDBRANCH  19  20
ENDBRANCH  17  19
ENDBRANCH   1  17
TORSDOF 6
ENDMDL
MODEL 2
REMARK VINA RESULT:      -7.8      1.471      1.948
REMARK  6 active torsions:
REMARK  status: ('A' for Active; 'I' for Inactive)
REMARK    1  A    between atoms: C_2  and  C_3 
REMARK    2  A    between atoms: C_2  and  C_18 
REMARK       I    between atoms: C_3  and  N_4 
REMARK    3  A    between atoms: N_4  and  C_5 
REMARK    4  A    between atoms: C_9  and  C_10 
REMARK    5  A    between atoms: C_18  and  C_19 
REMARK    6  A    between atoms: C_22  and  O_23 
ROOT
HETATM    1  C   UNL     1      41.269 -13.616   1.985  1.00  0.00     0.227 C 
HETATM    2  N   UNL     1      41.045 -12.889   3.140  1.00  0.00    -0.312 N 
HETATM    3  O   UNL     1      42.376 -13.726   1.452  1.00  0.00    -0.273 OA
HETATM    4  H   UNL     1      40.110 -12.787   3.512  1.00  0.00     0.170 HD
ENDROOT
BRANCH   2   5
HETATM    5  C   UNL     1      42.071 -12.253   3.811  1.00  0.00     0.126 A 
HETATM    6  N   UNL     1      43.139 -11.650   3.205  1.00  0.00    -0.262 N 
HETATM    7  H   UNL     1      43.301 -11.569   2.204  1.00  0.00     0.191 HD
HETATM    8  N   UNL     1      44.047 -11.165   4.071  1.00  0.00    -0.172 NA
HETATM    9  C   UNL     1      43.521 -11.412   5.283  1.00  0.00     0.092 A 
HETATM   10  C   UNL     1      42.276 -12.094   5.159  1.00  0.00     0.084 A 
BRANCH   9  11
HETATM   11  C   UNL     1      44.212 -11.024   6.509  1.00  0.00     0.012 A 
HETATM   12  C   UNL     1      43.517 -10.639   7.652  1.00  0.00     0.130 A 
HETATM   13  N   UNL     1      44.098 -10.289   8.827  1.00  0.00    -0.272 NA
HETATM   14  C   UNL     1      45.447 -10.317   8.863  1.00  0.00     0.116 A 
HETATM   15  C   UNL     1      46.238 -10.676   7.784  1.00  0.00     0.020 A 
HETATM   16  C   UNL     1      45.608 -11.031   6.592  1.00  0.00     0.017 A 
ENDBRANCH   9  11
ENDBRANCH   2   5
BRANCH   1  17
HETATM   17  C   UNL     1      40.072 -14.411   1.463  1.00  0.00     0.078 C 
HETATM   18  C   UNL     1      40.236 -14.598  -0.046  1.00  0.00     0.020 C 
BRANCH  17  19
HETATM   19  C   UNL     1      39.839 -15.770   2.143  1.00  0.00     0.052 C 
BRANCH  19  20
HETATM   20  C   UNL     1      41.046 -16.371   2.820  1.00  0.00    -0.057 A 
HETATM   21  C   UNL     1      41.231 -16.256   4.202  1.00  0.00     0.010 A 
HETATM   22  C   UNL     1      42.331 -16.856   4.820  1.00  0.00     0.037 A 
HETATM   23  C   UNL     1      43.258 -17.587   4.077  1.00  0.00     0.068 A 
HETATM   24  C   UNL     1      43.081 -17.705   2.700  1.00  0.00     0.037 A 
HETATM   25  C   UNL     1      41.980 -17.105   2.077  1.00  0.00     0.010 A 
BRANCH  23  26
HETATM   26  O   UNL     1      44.276 -18.133   4.808  1.00  0.00    -0.356 OA
HETATM   27  C   UNL     1      44.213 -19.531   5.056  1.00  0.00     0.210 C 
ENDBRANCH  23  26
ENDBRANCH  19  20
ENDBRANCH  17  19
ENDBRANCH   1  17
TORSDOF 6
ENDMDL
MODEL 3
REMARK VINA RESULT:      -7.7      3.959      9.399
REMARK  6 active torsions:
REMARK  status: ('A' for Active; 'I' for Inactive)
REMARK    1  A    between atoms: C_2  and  C_3 
REMARK    2  A    between atoms: C_2  and  C_18 
REMARK       I    between atoms: C_3  and  N_4 
REMARK    3  A    between atoms: N_4  and  C_5 
REMARK    4  A    between atoms: C_9  and  C_10 
REMARK    5  A    between atoms: C_18  and  C_19 
REMARK    6  A    between atoms: C_22  and  O_23 
ROOT
HETATM    1  C   UNL     1      44.614 -11.614   7.463  1.00  0.00     0.227 C 
HETATM    2  N   UNL     1      43.578 -12.528   7.528  1.00  0.00    -0.312 N 
HETATM    3  O   UNL     1      45.424 -11.565   6.533  1.00  0.00    -0.273 OA
HETATM    4  H   UNL     1      42.970 -12.560   8.335  1.00  0.00     0.170 HD
ENDROOT
BRANCH   2   5
HETATM    5  C   UNL     1      43.352 -13.445   6.521  1.00  0.00     0.126 A 
HETATM    6  N   UNL     1      42.440 -13.284   5.514  1.00  0.00    -0.262 N 
HETATM    7  H   UNL     1      41.841 -12.475   5.363  1.00  0.00     0.191 HD
HETATM    8  N   UNL     1      42.347 -14.347   4.696  1.00  0.00    -0.172 NA
HETATM    9  C   UNL     1      43.273 -15.207   5.154  1.00  0.00     0.092 A 
HETATM   10  C   UNL     1      43.927 -14.672   6.301  1.00  0.00     0.084 A 
BRANCH   9  11
HETATM   11  C   UNL     1      43.494 -16.503   4.519  1.00  0.00     0.012 A 
HETATM   12  C   UNL     1      44.050 -17.574   5.213  1.00  0.00     0.130 A 
HETATM   13  N   UNL     1      44.260 -18.807   4.687  1.00  0.00    -0.272 NA
HETATM   14  C   UNL     1      43.904 -18.981   3.397  1.00  0.00     0.116 A 
HETATM   15  C   UNL     1      43.350 -17.983   2.611  1.00  0.00     0.020 A 
HETATM   16  C   UNL     1      43.147 -16.727   3.183  1.00  0.00     0.017 A 
ENDBRANCH   9  11
ENDBRANCH   2   5
BRANCH   1  17
HETATM   17  C   UNL     1      44.625 -10.549   8.559  1.00  0.00     0.078 C 
HETATM   18  C   UNL     1      45.842  -9.647   8.348  1.00  0.00     0.020 C 
BRANCH  17  19
HETATM   19  C   UNL     1      43.348  -9.700   8.663  1.00  0.00     0.052 C 
BRANCH  19  20
HETATM   20  C   UNL     1      42.693  -9.679  10.022  1.00  0.00    -0.057 A 
HETATM   21  C   UNL     1      43.412 -10.012  11.176  1.00  0.00     0.010 A 
HETATM   22  C   UNL     1      42.802  -9.946  12.432  1.00  0.00     0.037 A 
HETATM   23  C   UNL     1      41.474  -9.539  12.562  1.00  0.00     0.068 A 
HETATM   24  C   UNL     1      40.752  -9.207  11.418  1.00  0.00     0.037 A 
HETATM   25  C   UNL     1      41.358  -9.273  10.157  1.00  0.00     0.010 A 
BRANCH  23  26
HETATM   26  O   UNL     1      41.007  -9.505  13.846  1.00  0.00    -0.356 OA
HETATM   27  C   UNL     1      41.697  -8.660  14.758  1.00  0.00     0.210 C 
ENDBRANCH  23  26
ENDBRANCH  19  20
ENDBRANCH  17  19
ENDBRANCH   1  17
TORSDOF 6
ENDMDL
MODEL 4
REMARK VINA RESULT:      -7.5      2.866      6.908
REMARK  6 active torsions:
REMARK  status: ('A' for Active; 'I' for Inactive)
REMARK    1  A    between atoms: C_2  and  C_3 
REMARK    2  A    between atoms: C_2  and  C_18 
REMARK       I    between atoms: C_3  and  N_4 
REMARK    3  A    between atoms: N_4  and  C_5 
REMARK    4  A    between atoms: C_9  and  C_10 
REMARK    5  A    between atoms: C_18  and  C_19 
REMARK    6  A    between atoms: C_22  and  O_23 
ROOT
HETATM    1  C   UNL     1      41.319 -12.836   2.929  1.00  0.00     0.227 C 
HETATM    2  N   UNL     1      42.611 -13.327   2.993  1.00  0.00    -0.312 N 
HETATM    3  O   UNL     1      40.355 -13.499   2.539  1.00  0.00    -0.273 OA
HETATM    4  H   UNL     1      43.376 -12.728   3.274  1.00  0.00     0.170 HD
ENDROOT
BRANCH   2   5
HETATM    5  C   UNL     1      42.911 -14.630   2.652  1.00  0.00     0.126 A 
HETATM    6  N   UNL     1      43.057 -15.084   1.370  1.00  0.00    -0.262 N 
HETATM    7  H   UNL     1      42.991 -14.529   0.520  1.00  0.00     0.191 HD
HETATM    8  N   UNL     1      43.274 -16.409   1.289  1.00  0.00    -0.172 NA
HETATM    9  C   UNL     1      43.327 -16.820   2.567  1.00  0.00     0.092 A 
HETATM   10  C   UNL     1      43.105 -15.727   3.454  1.00  0.00     0.084 A 
BRANCH   9  11
HETATM   11  C   UNL     1      43.559 -18.221   2.910  1.00  0.00     0.012 A 
HETATM   12  C   UNL     1      44.106 -18.594   4.135  1.00  0.00     0.130 A 
HETATM   13  N   UNL     1      44.325 -19.876   4.523  1.00  0.00    -0.272 NA
HETATM   14  C   UNL     1      43.987 -20.839   3.638  1.00  0.00     0.116 A 
HETATM   15  C   UNL     1      43.444 -20.580   2.390  1.00  0.00     0.020 A 
HETATM   16  C   UNL     1      43.231 -19.251   2.024  1.00  0.00     0.017 A 
ENDBRANCH   9  11
ENDBRANCH   2   5
BRANCH   1  17
HETATM   17  C   UNL     1      41.115 -11.437   3.511  1.00  0.00     0.078 C 
HETATM   18  C   UNL     1      39.942 -10.775   2.785  1.00  0.00     0.020 C 
BRANCH  17  19
HETATM   19  C   UNL     1      40.895 -11.383   5.032  1.00  0.00     0.052 C 
BRANCH  19  20
HETATM   20  C   UNL     1      41.517 -12.511   5.816  1.00  0.00    -0.057 A 
HETATM   21  C   UNL     1      40.818 -13.701   6.049  1.00  0.00     0.010 A 
HETATM   22  C   UNL     1      41.425 -14.753   6.740  1.00  0.00     0.037 A 
HETATM   23  C   UNL     1      42.738 -14.643   7.201  1.00  0.00     0.068 A 
HETATM   24  C   UNL     1      43.439 -13.462   6.974  1.00  0.00     0.037 A 
HETATM   25  C   UNL     1      42.835 -12.405   6.283  1.00  0.00     0.010 A 
BRANCH  23  26
HETATM   26  O   UNL     1      43.213 -15.751   7.847  1.00  0.00    -0.356 OA
HETATM   27  C   UNL     1      43.177 -16.978   7.130  1.00  0.00     0.210 C 
ENDBRANCH  23  26
ENDBRANCH  19  20
ENDBRANCH  17  19
ENDBRANCH   1  17
TORSDOF 6
ENDMDL
MODEL 5
REMARK VINA RESULT:      -7.4      2.808      6.803
REMARK  6 active torsions:
REMARK  status: ('A' for Active; 'I' for Inactive)
REMARK    1  A    between atoms: C_2  and  C_3 
REMARK    2  A    between atoms: C_2  and  C_18 
REMARK       I    between atoms: C_3  and  N_4 
REMARK    3  A    between atoms: N_4  and  C_5 
REMARK    4  A    between atoms: C_9  and  C_10 
REMARK    5  A    between atoms: C_18  and  C_19 
REMARK    6  A    between atoms: C_22  and  O_23 
ROOT
HETATM    1  C   UNL     1      42.333 -13.512   4.300  1.00  0.00     0.227 C 
HETATM    2  N   UNL     1      42.698 -13.603   2.969  1.00  0.00    -0.312 N 
HETATM    3  O   UNL     1      41.252 -13.057   4.682  1.00  0.00    -0.273 OA
HETATM    4  H   UNL     1      43.615 -13.939   2.708  1.00  0.00     0.170 HD
ENDROOT
BRANCH   2   5
HETATM    5  C   UNL     1      41.847 -13.217   1.953  1.00  0.00     0.126 A 
HETATM    6  N   UNL     1      41.484 -11.923   1.693  1.00  0.00    -0.262 N 
HETATM    7  H   UNL     1      41.806 -11.093   2.185  1.00  0.00     0.191 HD
HETATM    8  N   UNL     1      40.585 -11.806   0.700  1.00  0.00    -0.172 NA
HETATM    9  C   UNL     1      40.400 -13.063   0.262  1.00  0.00     0.092 A 
HETATM   10  C   UNL     1      41.180 -13.978   1.026  1.00  0.00     0.084 A 
BRANCH   9  11
HETATM   11  C   UNL     1      39.485 -13.363  -0.835  1.00  0.00     0.012 A 
HETATM   12  C   UNL     1      38.397 -12.544  -1.127  1.00  0.00     0.130 A 
HETATM   13  N   UNL     1      37.524 -12.755  -2.145  1.00  0.00    -0.272 NA
HETATM   14  C   UNL     1      37.743 -13.846  -2.909  1.00  0.00     0.116 A 
HETATM   15  C   UNL     1      38.788 -14.732  -2.704  1.00  0.00     0.020 A 
HETATM   16  C   UNL     1      39.668 -14.484  -1.650  1.00  0.00     0.017 A 
ENDBRANCH   9  11
ENDBRANCH   2   5
BRANCH   1  17
HETATM   17  C   UNL     1      43.304 -14.147   5.296  1.00  0.00     0.078 C 
HETATM   18  C   UNL     1      43.553 -13.153   6.432  1.00  0.00     0.020 C 
BRANCH  17  19
HETATM   19  C   UNL     1      42.865 -15.505   5.867  1.00  0.00     0.052 C 
BRANCH  19  20
HETATM   20  C   UNL     1      43.229 -16.707   5.031  1.00  0.00    -0.057 A 
HETATM   21  C   UNL     1      43.930 -17.786   5.583  1.00  0.00     0.010 A 
HETATM   22  C   UNL     1      44.220 -18.911   4.807  1.00  0.00     0.037 A 
HETATM   23  C   UNL     1      43.812 -18.986   3.475  1.00  0.00     0.068 A 
HETATM   24  C   UNL     1      43.114 -17.916   2.919  1.00  0.00     0.037 A 
HETATM   25  C   UNL     1      42.822 -16.786   3.692  1.00  0.00     0.010 A 
BRANCH  23  26
HETATM   26  O   UNL     1      44.148 -20.147   2.836  1.00  0.00    -0.356 OA
HETATM   27  C   UNL     1      43.469 -20.433   1.621  1.00  0.00     0.210 C 
ENDBRANCH  23  26
ENDBRANCH  19  20
ENDBRANCH  17  19
ENDBRANCH   1  17
TORSDOF 6
ENDMDL
MODEL 6
REMARK VINA RESULT:      -7.4      4.837      7.818
REMARK  6 active torsions:
REMARK  status: ('A' for Active; 'I' for Inactive)
REMARK    1  A    between atoms: C_2  and  C_3 
REMARK    2  A    between atoms: C_2  and  C_18 
REMARK       I    between atoms: C_3  and  N_4 
REMARK    3  A    between atoms: N_4  and  C_5 
REMARK    4  A    between atoms: C_9  and  C_10 
REMARK    5  A    between atoms: C_18  and  C_19 
REMARK    6  A    between atoms: C_22  and  O_23 
ROOT
HETATM    1  C   UNL     1      41.092 -13.783   1.077  1.00  0.00     0.227 C 
HETATM    2  N   UNL     1      40.937 -14.132  -0.253  1.00  0.00    -0.312 N 
HETATM    3  O   UNL     1      40.818 -12.667   1.526  1.00  0.00    -0.273 OA
HETATM    4  H   UNL     1      41.222 -15.044  -0.583  1.00  0.00     0.170 HD
ENDROOT
BRANCH   2   5
HETATM    5  C   UNL     1      40.423 -13.249  -1.182  1.00  0.00     0.126 A 
HETATM    6  N   UNL     1      41.148 -12.664  -2.183  1.00  0.00    -0.262 N 
HETATM    7  H   UNL     1      42.133 -12.818  -2.387  1.00  0.00     0.191 HD
HETATM    8  N   UNL     1      40.444 -11.782  -2.914  1.00  0.00    -0.172 NA
HETATM    9  C   UNL     1      39.201 -11.839  -2.405  1.00  0.00     0.092 A 
HETATM   10  C   UNL     1      39.149 -12.754  -1.314  1.00  0.00     0.084 A 
BRANCH   9  11
HETATM   11  C   UNL     1      38.117 -11.021  -2.941  1.00  0.00     0.012 A 
HETATM   12  C   UNL     1      38.366  -9.848  -3.649  1.00  0.00     0.130 A 
HETATM   13  N   UNL     1      37.406  -9.056  -4.190  1.00  0.00    -0.272 NA
HETATM   14  C   UNL     1      36.128  -9.450  -4.010  1.00  0.00     0.116 A 
HETATM   15  C   UNL     1      35.766 -10.594  -3.317  1.00  0.00     0.020 A 
HETATM   16  C   UNL     1      36.778 -11.386  -2.774  1.00  0.00     0.017 A 
ENDBRANCH   9  11
ENDBRANCH   2   5
BRANCH   1  17
HETATM   17  C   UNL     1      41.499 -14.920   2.014  1.00  0.00     0.078 C 
HETATM   18  C   UNL     1      40.299 -15.852   2.195  1.00  0.00     0.020 C 
BRANCH  17  19
HETATM   19  C   UNL     1      42.732 -15.725   1.575  1.00  0.00     0.052 C 
BRANCH  19  20
HETATM   20  C   UNL     1      43.190 -16.788   2.543  1.00  0.00    -0.057 A 
HETATM   21  C   UNL     1      43.473 -16.477   3.878  1.00  0.00     0.010 A 
HETATM   22  C   UNL     1      43.853 -17.482   4.772  1.00  0.00     0.037 A 
HETATM   23  C   UNL     1      43.948 -18.810   4.357  1.00  0.00     0.068 A 
HETATM   24  C   UNL     1      43.668 -19.128   3.030  1.00  0.00     0.037 A 
HETATM   25  C   UNL     1      43.288 -18.124   2.130  1.00  0.00     0.010 A 
BRANCH  23  26
HETATM   26  O   UNL     1      44.314 -19.692   5.335  1.00  0.00    -0.356 OA
HETATM   27  C   UNL     1      43.948 -21.052   5.146  1.00  0.00     0.210 C 
ENDBRANCH  23  26
ENDBRANCH  19  20
ENDBRANCH  17  19
ENDBRANCH   1  17
TORSDOF 6
ENDMDL
MODEL 7
REMARK VINA RESULT:      -7.4      5.011      6.939
REMARK  6 active torsions:
REMARK  status: ('A' for Active; 'I' for Inactive)
REMARK    1  A    between atoms: C_2  and  C_3 
REMARK    2  A    between atoms: C_2  and  C_18 
REMARK       I    between atoms: C_3  and  N_4 
REMARK    3  A    between atoms: N_4  and  C_5 
REMARK    4  A    between atoms: C_9  and  C_10 
REMARK    5  A    between atoms: C_18  and  C_19 
REMARK    6  A    between atoms: C_22  and  O_23 
ROOT
HETATM    1  C   UNL     1      41.465 -13.540   1.212  1.00  0.00     0.227 C 
HETATM    2  N   UNL     1      40.949 -13.443  -0.068  1.00  0.00    -0.312 N 
HETATM    3  O   UNL     1      41.780 -12.563   1.896  1.00  0.00    -0.273 OA
HETATM    4  H   UNL     1      40.751 -14.274  -0.608  1.00  0.00     0.170 HD
ENDROOT
BRANCH   2   5
HETATM    5  C   UNL     1      40.713 -12.222  -0.667  1.00  0.00     0.126 A 
HETATM    6  N   UNL     1      39.665 -11.396  -0.362  1.00  0.00    -0.262 N 
HETATM    7  H   UNL     1      38.954 -11.557   0.348  1.00  0.00     0.191 HD
HETATM    8  N   UNL     1      39.604 -10.296  -1.134  1.00  0.00    -0.172 NA
HETATM    9  C   UNL     1      40.683 -10.383  -1.930  1.00  0.00     0.092 A 
HETATM   10  C   UNL     1      41.406 -11.581  -1.664  1.00  0.00     0.084 A 
BRANCH   9  11
HETATM   11  C   UNL     1      40.982  -9.357  -2.925  1.00  0.00     0.012 A 
HETATM   12  C   UNL     1      40.294  -9.284  -4.133  1.00  0.00     0.130 A 
HETATM   13  N   UNL     1      40.510  -8.344  -5.088  1.00  0.00    -0.272 NA
HETATM   14  C   UNL     1      41.469  -7.430  -4.827  1.00  0.00     0.116 A 
HETATM   15  C   UNL     1      42.219  -7.413  -3.663  1.00  0.00     0.020 A 
HETATM   16  C   UNL     1      41.971  -8.394  -2.702  1.00  0.00     0.017 A 
ENDBRANCH   9  11
ENDBRANCH   2   5
BRANCH   1  17
HETATM   17  C   UNL     1      41.498 -14.948   1.805  1.00  0.00     0.078 C 
HETATM   18  C   UNL     1      40.231 -15.688   1.369  1.00  0.00     0.020 C 
BRANCH  17  19
HETATM   19  C   UNL     1      42.743 -15.780   1.457  1.00  0.00     0.052 C 
BRANCH  19  20
HETATM   20  C   UNL     1      43.145 -16.806   2.488  1.00  0.00    -0.057 A 
HETATM   21  C   UNL     1      43.296 -18.154   2.145  1.00  0.00     0.010 A 
HETATM   22  C   UNL     1      43.711 -19.085   3.101  1.00  0.00     0.037 A 
HETATM   23  C   UNL     1      43.992 -18.689   4.409  1.00  0.00     0.068 A 
HETATM   24  C   UNL     1      43.844 -17.348   4.758  1.00  0.00     0.037 A 
HETATM   25  C   UNL     1      43.426 -16.413   3.803  1.00  0.00     0.010 A 
BRANCH  23  26
HETATM   26  O   UNL     1      44.403 -19.696   5.237  1.00  0.00    -0.356 OA
HETATM   27  C   UNL     1      43.844 -20.983   5.012  1.00  0.00     0.210 C 
ENDBRANCH  23  26
ENDBRANCH  19  20
ENDBRANCH  17  19
ENDBRANCH   1  17
TORSDOF 6
ENDMDL
MODEL 8
REMARK VINA RESULT:      -7.3      1.948      2.625
REMARK  6 active torsions:
REMARK  status: ('A' for Active; 'I' for Inactive)
REMARK    1  A    between atoms: C_2  and  C_3 
REMARK    2  A    between atoms: C_2  and  C_18 
REMARK       I    between atoms: C_3  and  N_4 
REMARK    3  A    between atoms: N_4  and  C_5 
REMARK    4  A    between atoms: C_9  and  C_10 
REMARK    5  A    between atoms: C_18  and  C_19 
REMARK    6  A    between atoms: C_22  and  O_23 
ROOT
HETATM    1  C   UNL     1      42.124 -13.684   5.344  1.00  0.00     0.227 C 
HETATM    2  N   UNL     1      42.990 -12.606   5.307  1.00  0.00    -0.312 N 
HETATM    3  O   UNL     1      41.549 -14.064   6.367  1.00  0.00    -0.273 OA
HETATM    4  H   UNL     1      43.475 -12.364   4.453  1.00  0.00     0.170 HD
ENDROOT
BRANCH   2   5
HETATM    5  C   UNL     1      43.249 -11.842   6.427  1.00  0.00     0.126 A 
HETATM    6  N   UNL     1      43.955 -12.275   7.516  1.00  0.00    -0.262 N 
HETATM    7  H   UNL     1      44.395 -13.185   7.630  1.00  0.00     0.191 HD
HETATM    8  N   UNL     1      44.010 -11.375   8.514  1.00  0.00    -0.172 NA
HETATM    9  C   UNL     1      43.365 -10.299   8.034  1.00  0.00     0.092 A 
HETATM   10  C   UNL     1      42.873 -10.555   6.721  1.00  0.00     0.084 A 
BRANCH   9  11
HETATM   11  C   UNL     1      43.211  -9.083   8.827  1.00  0.00     0.012 A 
HETATM   12  C   UNL     1      43.133  -9.120  10.217  1.00  0.00     0.130 A 
HETATM   13  N   UNL     1      43.012  -8.026  11.011  1.00  0.00    -0.272 NA
HETATM   14  C   UNL     1      42.958  -6.830  10.386  1.00  0.00     0.116 A 
HETATM   15  C   UNL     1      43.019  -6.678   9.011  1.00  0.00     0.020 A 
HETATM   16  C   UNL     1      43.145  -7.823   8.224  1.00  0.00     0.017 A 
ENDBRANCH   9  11
ENDBRANCH   2   5
BRANCH   1  17
HETATM   17  C   UNL     1      41.797 -14.315   3.990  1.00  0.00     0.078 C 
HETATM   18  C   UNL     1      41.042 -13.287   3.145  1.00  0.00     0.020 C 
BRANCH  17  19
HETATM   19  C   UNL     1      43.005 -14.857   3.208  1.00  0.00     0.052 C 
BRANCH  19  20
HETATM   20  C   UNL     1      43.243 -16.342   3.332  1.00  0.00    -0.057 A 
HETATM   21  C   UNL     1      42.931 -17.214   2.283  1.00  0.00     0.010 A 
HETATM   22  C   UNL     1      43.198 -18.581   2.397  1.00  0.00     0.037 A 
HETATM   23  C   UNL     1      43.787 -19.100   3.550  1.00  0.00     0.068 A 
HETATM   24  C   UNL     1      44.100 -18.239   4.599  1.00  0.00     0.037 A 
HETATM   25  C   UNL     1      43.833 -16.869   4.489  1.00  0.00     0.010 A 
BRANCH  23  26
HETATM   26  O   UNL     1      44.007 -20.450   3.523  1.00  0.00    -0.356 OA
HETATM   27  C   UNL     1      43.998 -21.128   4.772  1.00  0.00     0.210 C 
ENDBRANCH  23  26
ENDBRANCH  19  20
ENDBRANCH  17  19
ENDBRANCH   1  17
TORSDOF 6
ENDMDL
MODEL 9
REMARK VINA RESULT:      -7.2     15.722     17.913
REMARK  6 active torsions:
REMARK  status: ('A' for Active; 'I' for Inactive)
REMARK    1  A    between atoms: C_2  and  C_3 
REMARK    2  A    between atoms: C_2  and  C_18 
REMARK       I    between atoms: C_3  and  N_4 
REMARK    3  A    between atoms: N_4  and  C_5 
REMARK    4  A    between atoms: C_9  and  C_10 
REMARK    5  A    between atoms: C_18  and  C_19 
REMARK    6  A    between atoms: C_22  and  O_23 
ROOT
HETATM    1  C   UNL     1      47.179 -28.317   0.415  1.00  0.00     0.227 C 
HETATM    2  N   UNL     1      48.308 -29.077   0.658  1.00  0.00    -0.312 N 
HETATM    3  O   UNL     1      46.458 -27.862   1.306  1.00  0.00    -0.273 OA
HETATM    4  H   UNL     1      48.840 -29.469  -0.108  1.00  0.00     0.170 HD
ENDROOT
BRANCH   2   5
HETATM    5  C   UNL     1      48.737 -29.355   1.940  1.00  0.00     0.126 A 
HETATM    6  N   UNL     1      48.755 -28.451   2.967  1.00  0.00    -0.262 N 
HETATM    7  H   UNL     1      48.438 -27.485   2.929  1.00  0.00     0.191 HD
HETATM    8  N   UNL     1      49.286 -28.936   4.103  1.00  0.00    -0.172 NA
HETATM    9  C   UNL     1      49.572 -30.219   3.820  1.00  0.00     0.092 A 
HETATM   10  C   UNL     1      49.238 -30.519   2.468  1.00  0.00     0.084 A 
BRANCH   9  11
HETATM   11  C   UNL     1      50.168 -31.106   4.815  1.00  0.00     0.012 A 
HETATM   12  C   UNL     1      49.454 -32.161   5.377  1.00  0.00     0.130 A 
HETATM   13  N   UNL     1      49.956 -33.033   6.288  1.00  0.00    -0.272 NA
HETATM   14  C   UNL     1      51.237 -32.839   6.665  1.00  0.00     0.116 A 
HETATM   15  C   UNL     1      52.036 -31.818   6.176  1.00  0.00     0.020 A 
HETATM   16  C   UNL     1      51.489 -30.940   5.241  1.00  0.00     0.017 A 
ENDBRANCH   9  11
ENDBRANCH   2   5
BRANCH   1  17
HETATM   17  C   UNL     1      46.937 -27.942  -1.048  1.00  0.00     0.078 C 
HETATM   18  C   UNL     1      47.682 -28.942  -1.934  1.00  0.00     0.020 C 
BRANCH  17  19
HETATM   19  C   UNL     1      45.462 -27.858  -1.470  1.00  0.00     0.052 C 
BRANCH  19  20
HETATM   20  C   UNL     1      45.020 -28.879  -2.489  1.00  0.00    -0.057 A 
HETATM   21  C   UNL     1      45.050 -28.594  -3.858  1.00  0.00     0.010 A 
HETATM   22  C   UNL     1      44.679 -29.566  -4.791  1.00  0.00     0.037 A 
HETATM   23  C   UNL     1      44.284 -30.839  -4.378  1.00  0.00     0.068 A 
HETATM   24  C   UNL     1      44.252 -31.131  -3.017  1.00  0.00     0.037 A 
HETATM   25  C   UNL     1      44.621 -30.159  -2.079  1.00  0.00     0.010 A 
BRANCH  23  26
HETATM   26  O   UNL     1      43.964 -31.697  -5.393  1.00  0.00    -0.356 OA
HETATM   27  C   UNL     1      44.191 -31.239  -6.720  1.00  0.00     0.210 C 
ENDBRANCH  23  26
ENDBRANCH  19  20
ENDBRANCH  17  19
ENDBRANCH   1  17
TORSDOF 6
ENDMDL
MODEL 10
REMARK VINA RESULT:      -7.1      5.269      9.172
REMARK  6 active torsions:
REMARK  status: ('A' for Active; 'I' for Inactive)
REMARK    1  A    between atoms: C_2  and  C_3 
REMARK    2  A    between atoms: C_2  and  C_18 
REMARK       I    between atoms: C_3  and  N_4 
REMARK    3  A    between atoms: N_4  and  C_5 
REMARK    4  A    between atoms: C_9  and  C_10 
REMARK    5  A    between atoms: C_18  and  C_19 
REMARK    6  A    between atoms: C_22  and  O_23 
ROOT
HETATM    1  C   UNL     1      39.656 -13.784  -1.148  1.00  0.00     0.227 C 
HETATM    2  N   UNL     1      40.452 -13.598  -0.032  1.00  0.00    -0.312 N 
HETATM    3  O   UNL     1      39.137 -14.863  -1.444  1.00  0.00    -0.273 OA
HETATM    4  H   UNL     1      40.894 -12.706   0.142  1.00  0.00     0.170 HD
ENDROOT
BRANCH   2   5
HETATM    5  C   UNL     1      40.697 -14.618   0.865  1.00  0.00     0.126 A 
HETATM    6  N   UNL     1      39.748 -15.197   1.663  1.00  0.00    -0.262 N 
HETATM    7  H   UNL     1      38.756 -14.976   1.681  1.00  0.00     0.191 HD
HETATM    8  N   UNL     1      40.244 -16.118   2.508  1.00  0.00    -0.172 NA
HETATM    9  C   UNL     1      41.553 -16.179   2.210  1.00  0.00     0.092 A 
HETATM   10  C   UNL     1      41.875 -15.250   1.178  1.00  0.00     0.084 A 
BRANCH   9  11
HETATM   11  C   UNL     1      42.456 -17.084   2.915  1.00  0.00     0.012 A 
HETATM   12  C   UNL     1      42.835 -16.860   4.236  1.00  0.00     0.130 A 
HETATM   13  N   UNL     1      43.652 -17.672   4.953  1.00  0.00    -0.272 NA
HETATM   14  C   UNL     1      44.123 -18.766   4.316  1.00  0.00     0.116 A 
HETATM   15  C   UNL     1      43.818 -19.082   3.002  1.00  0.00     0.020 A 
HETATM   16  C   UNL     1      42.974 -18.226   2.295  1.00  0.00     0.017 A 
ENDBRANCH   9  11
ENDBRANCH   2   5
BRANCH   1  17
HETATM   17  C   UNL     1      39.328 -12.520  -1.943  1.00  0.00     0.078 C 
HETATM   18  C   UNL     1      37.919 -12.662  -2.521  1.00  0.00     0.020 C 
BRANCH  17  19
HETATM   19  C   UNL     1      39.449 -11.202  -1.161  1.00  0.00     0.052 C 
BRANCH  19  20
HETATM   20  C   UNL     1      40.407 -10.191  -1.741  1.00  0.00    -0.057 A 
HETATM   21  C   UNL     1      40.278  -9.748  -3.063  1.00  0.00     0.010 A 
HETATM   22  C   UNL     1      41.147  -8.779  -3.571  1.00  0.00     0.037 A 
HETATM   23  C   UNL     1      42.149  -8.227  -2.772  1.00  0.00     0.068 A 
HETATM   24  C   UNL     1      42.283  -8.663  -1.456  1.00  0.00     0.037 A 
HETATM   25  C   UNL     1      41.416  -9.635  -0.943  1.00  0.00     0.010 A 
BRANCH  23  26
HETATM   26  O   UNL     1      42.917  -7.279  -3.389  1.00  0.00    -0.356 OA
HETATM   27  C   UNL     1      42.250  -6.114  -3.856  1.00  0.00     0.210 C 
ENDBRANCH  23  26
ENDBRANCH  19  20
ENDBRANCH  17  19
ENDBRANCH   1  17
TORSDOF 6
ENDMDL
