MODEL 1
REMARK VINA RESULT:      -7.8      0.000      0.000
REMARK  2 active torsions:
REMARK  status: ('A' for Active; 'I' for Inactive)
REMARK    1  A    between atoms: C_8  and  S_9 
REMARK    2  A    between atoms: S_9  and  C_10 
ROOT
HETATM    1  C   UNL     1      43.538 -20.358   2.446  1.00  0.00     0.002 A 
HETATM    2  C   UNL     1      43.089 -19.068   2.158  1.00  0.00     0.034 A 
HETATM    3  C   UNL     1      43.208 -18.040   3.085  1.00  0.00     0.087 A 
HETATM    4  C   UNL     1      43.786 -18.320   4.353  1.00  0.00     0.087 A 
HETATM    5  N   UNL     1      43.899 -17.368   5.301  1.00  0.00    -0.231 NA
HETATM    6  C   UNL     1      43.416 -16.141   5.011  1.00  0.00     0.167 A 
HETATM    7 CL   UNL     1      43.564 -15.026   6.297  1.00  0.00    -0.059 Cl
HETATM    8  C   UNL     1      42.873 -15.878   3.776  1.00  0.00     0.193 A 
HETATM    9  N   UNL     1      42.774 -16.800   2.770  1.00  0.00    -0.232 NA
HETATM   10  C   UNL     1      44.242 -19.604   4.620  1.00  0.00     0.034 A 
HETATM   11  C   UNL     1      44.122 -20.626   3.677  1.00  0.00     0.002 A 
ENDROOT
BRANCH   8  12
HETATM   12  S   UNL     1      42.279 -14.280   3.353  1.00  0.00     0.201 S 
HETATM   13  O   UNL     1      41.108 -14.026   4.166  1.00  0.00    -0.221 OA
HETATM   14  O   UNL     1      43.410 -13.371   3.329  1.00  0.00    -0.221 OA
BRANCH  12  15
HETATM   15  C   UNL     1      41.730 -14.391   1.649  1.00  0.00     0.141 C 
HETATM   16  C   UNL     1      41.688 -12.992   1.044  1.00  0.00     0.252 C 
HETATM   17  N   UNL     1      41.116 -13.039  -0.347  1.00  0.00    -0.074 N 
HETATM   18  H   UNL     1      41.745 -13.557  -0.978  1.00  0.00     0.277 HD
HETATM   19  H   UNL     1      41.082 -12.079  -0.725  1.00  0.00     0.277 HD
HETATM   20  C   UNL     1      39.741 -13.621  -0.414  1.00  0.00     0.232 C 
HETATM   21  C   UNL     1      39.778 -15.031   0.154  1.00  0.00     0.029 C 
HETATM   22  C   UNL     1      40.344 -15.053   1.574  1.00  0.00     0.024 C 
ENDBRANCH  12  15
ENDBRANCH   8  12
TORSDOF 2
ENDMDL
MODEL 2
REMARK VINA RESULT:      -7.7      1.791      2.204
REMARK  2 active torsions:
REMARK  status: ('A' for Active; 'I' for Inactive)
REMARK    1  A    between atoms: C_8  and  S_9 
REMARK    2  A    between atoms: S_9  and  C_10 
ROOT
HETATM    1  C   UNL     1      43.819 -20.858   3.275  1.00  0.00     0.002 A 
HETATM    2  C   UNL     1      43.487 -19.711   2.554  1.00  0.00     0.034 A 
HETATM    3  C   UNL     1      43.447 -18.462   3.162  1.00  0.00     0.087 A 
HETATM    4  C   UNL     1      43.739 -18.364   4.550  1.00  0.00     0.087 A 
HETATM    5  N   UNL     1      43.687 -17.184   5.198  1.00  0.00    -0.231 NA
HETATM    6  C   UNL     1      43.318 -16.098   4.484  1.00  0.00     0.167 A 
HETATM    7 CL   UNL     1      43.236 -14.666   5.413  1.00  0.00    -0.059 Cl
HETATM    8  C   UNL     1      43.053 -16.203   3.140  1.00  0.00     0.193 A 
HETATM    9  N   UNL     1      43.133 -17.370   2.432  1.00  0.00    -0.232 NA
HETATM   10  C   UNL     1      44.083 -19.512   5.251  1.00  0.00     0.034 A 
HETATM   11  C   UNL     1      44.126 -20.758   4.626  1.00  0.00     0.002 A 
ENDROOT
BRANCH   8  12
HETATM   12  S   UNL     1      42.618 -14.800   2.176  1.00  0.00     0.201 S 
HETATM   13  O   UNL     1      43.694 -13.839   2.303  1.00  0.00    -0.221 OA
HETATM   14  O   UNL     1      42.154 -15.268   0.883  1.00  0.00    -0.221 OA
BRANCH  12  15
HETATM   15  C   UNL     1      41.173 -14.088   2.963  1.00  0.00     0.141 C 
HETATM   16  C   UNL     1      39.931 -14.456   2.159  1.00  0.00     0.252 C 
HETATM   17  N   UNL     1      38.716 -13.773   2.726  1.00  0.00    -0.074 N 
HETATM   18  H   UNL     1      38.509 -14.132   3.670  1.00  0.00     0.277 HD
HETATM   19  H   UNL     1      37.896 -14.024   2.153  1.00  0.00     0.277 HD
HETATM   20  C   UNL     1      38.826 -12.283   2.766  1.00  0.00     0.232 C 
HETATM   21  C   UNL     1      40.042 -11.903   3.597  1.00  0.00     0.029 C 
HETATM   22  C   UNL     1      41.316 -12.561   3.067  1.00  0.00     0.024 C 
ENDBRANCH  12  15
ENDBRANCH   8  12
TORSDOF 2
ENDMDL
MODEL 3
REMARK VINA RESULT:      -7.4      1.218      1.371
REMARK  2 active torsions:
REMARK  status: ('A' for Active; 'I' for Inactive)
REMARK    1  A    between atoms: C_8  and  S_9 
REMARK    2  A    between atoms: S_9  and  C_10 
ROOT
HETATM    1  C   UNL     1      43.841 -19.124   2.842  1.00  0.00     0.002 A 
HETATM    2  C   UNL     1      43.219 -17.984   2.330  1.00  0.00     0.034 A 
HETATM    3  C   UNL     1      43.086 -16.830   3.094  1.00  0.00     0.087 A 
HETATM    4  C   UNL     1      43.585 -16.826   4.425  1.00  0.00     0.087 A 
HETATM    5  N   UNL     1      43.456 -15.745   5.221  1.00  0.00    -0.231 NA
HETATM    6  C   UNL     1      42.810 -14.673   4.714  1.00  0.00     0.167 A 
HETATM    7 CL   UNL     1      42.660 -13.380   5.821  1.00  0.00    -0.059 Cl
HETATM    8  C   UNL     1      42.347 -14.683   3.420  1.00  0.00     0.193 A 
HETATM    9  N   UNL     1      42.489 -15.740   2.564  1.00  0.00    -0.232 NA
HETATM   10  C   UNL     1      44.214 -17.962   4.916  1.00  0.00     0.034 A 
HETATM   11  C   UNL     1      44.347 -19.111   4.135  1.00  0.00     0.002 A 
ENDROOT
BRANCH   8  12
HETATM   12  S   UNL     1      41.545 -13.287   2.719  1.00  0.00     0.201 S 
HETATM   13  O   UNL     1      40.236 -13.189   3.330  1.00  0.00    -0.221 OA
HETATM   14  O   UNL     1      42.481 -12.179   2.727  1.00  0.00    -0.221 OA
BRANCH  12  15
HETATM   15  C   UNL     1      41.296 -13.678   0.987  1.00  0.00     0.141 C 
HETATM   16  C   UNL     1      41.269 -12.385   0.180  1.00  0.00     0.252 C 
HETATM   17  N   UNL     1      40.940 -12.671  -1.261  1.00  0.00    -0.074 N 
HETATM   18  H   UNL     1      41.697 -13.216  -1.702  1.00  0.00     0.277 HD
HETATM   19  H   UNL     1      40.910 -11.779  -1.779  1.00  0.00     0.277 HD
HETATM   20  C   UNL     1      39.635 -13.373  -1.453  1.00  0.00     0.232 C 
HETATM   21  C   UNL     1      39.664 -14.683  -0.682  1.00  0.00     0.029 C 
HETATM   22  C   UNL     1      39.986 -14.461   0.796  1.00  0.00     0.024 C 
ENDBRANCH  12  15
ENDBRANCH   8  12
TORSDOF 2
ENDMDL
MODEL 4
REMARK VINA RESULT:      -7.4      3.466      4.972
REMARK  2 active torsions:
REMARK  status: ('A' for Active; 'I' for Inactive)
REMARK    1  A    between atoms: C_8  and  S_9 
REMARK    2  A    between atoms: S_9  and  C_10 
ROOT
HETATM    1  C   UNL     1      44.107 -18.381   4.309  1.00  0.00     0.002 A 
HETATM    2  C   UNL     1      43.961 -17.039   4.665  1.00  0.00     0.034 A 
HETATM    3  C   UNL     1      43.346 -16.129   3.814  1.00  0.00     0.087 A 
HETATM    4  C   UNL     1      42.871 -16.581   2.553  1.00  0.00     0.087 A 
HETATM    5  N   UNL     1      42.293 -15.736   1.676  1.00  0.00    -0.231 NA
HETATM    6  C   UNL     1      42.207 -14.435   2.028  1.00  0.00     0.167 A 
HETATM    7 CL   UNL     1      41.505 -13.446   0.825  1.00  0.00    -0.059 Cl
HETATM    8  C   UNL     1      42.656 -14.014   3.257  1.00  0.00     0.193 A 
HETATM    9  N   UNL     1      43.212 -14.839   4.195  1.00  0.00    -0.232 NA
HETATM   10  C   UNL     1      43.008 -17.921   2.218  1.00  0.00     0.034 A 
HETATM   11  C   UNL     1      43.622 -18.825   3.086  1.00  0.00     0.002 A 
ENDROOT
BRANCH   8  12
HETATM   12  S   UNL     1      42.515 -12.337   3.763  1.00  0.00     0.201 S 
HETATM   13  O   UNL     1      43.316 -11.544   2.854  1.00  0.00    -0.221 OA
HETATM   14  O   UNL     1      41.111 -12.054   3.997  1.00  0.00    -0.221 OA
BRANCH  12  15
HETATM   15  C   UNL     1      43.289 -12.241   5.377  1.00  0.00     0.141 C 
HETATM   16  C   UNL     1      42.365 -11.492   6.332  1.00  0.00     0.252 C 
HETATM   17  N   UNL     1      43.038 -11.288   7.663  1.00  0.00    -0.074 N 
HETATM   18  H   UNL     1      43.189 -12.194   8.132  1.00  0.00     0.277 HD
HETATM   19  H   UNL     1      42.400 -10.764   8.281  1.00  0.00     0.277 HD
HETATM   20  C   UNL     1      44.331 -10.543   7.576  1.00  0.00     0.232 C 
HETATM   21  C   UNL     1      45.273 -11.301   6.655  1.00  0.00     0.029 C 
HETATM   22  C   UNL     1      44.651 -11.535   5.278  1.00  0.00     0.024 C 
ENDBRANCH  12  15
ENDBRANCH   8  12
TORSDOF 2
ENDMDL
MODEL 5
REMARK VINA RESULT:      -7.1      2.134      2.232
REMARK  2 active torsions:
REMARK  status: ('A' for Active; 'I' for Inactive)
REMARK    1  A    between atoms: C_8  and  S_9 
REMARK    2  A    between atoms: S_9  and  C_10 
ROOT
HETATM    1  C   UNL     1      43.428 -18.993   2.291  1.00  0.00     0.002 A 
HETATM    2  C   UNL     1      42.906 -17.725   2.551  1.00  0.00     0.034 A 
HETATM    3  C   UNL     1      42.955 -17.172   3.825  1.00  0.00     0.087 A 
HETATM    4  C   UNL     1      43.536 -17.927   4.880  1.00  0.00     0.087 A 
HETATM    5  N   UNL     1      43.583 -17.454   6.141  1.00  0.00    -0.231 NA
HETATM    6  C   UNL     1      43.030 -16.243   6.372  1.00  0.00     0.167 A 
HETATM    7 CL   UNL     1      43.099 -15.762   8.010  1.00  0.00    -0.059 Cl
HETATM    8  C   UNL     1      42.485 -15.516   5.341  1.00  0.00     0.193 A 
HETATM    9  N   UNL     1      42.451 -15.937   4.041  1.00  0.00    -0.232 NA
HETATM   10  C   UNL     1      44.064 -19.181   4.604  1.00  0.00     0.034 A 
HETATM   11  C   UNL     1      44.015 -19.720   3.318  1.00  0.00     0.002 A 
ENDROOT
BRANCH   8  12
HETATM   12  S   UNL     1      41.801 -13.919   5.602  1.00  0.00     0.201 S 
HETATM   13  O   UNL     1      40.615 -14.086   6.415  1.00  0.00    -0.221 OA
HETATM   14  O   UNL     1      42.878 -13.026   5.988  1.00  0.00    -0.221 OA
BRANCH  12  15
HETATM   15  C   UNL     1      41.266 -13.341   3.992  1.00  0.00     0.141 C 
HETATM   16  C   UNL     1      42.170 -12.198   3.543  1.00  0.00     0.252 C 
HETATM   17  N   UNL     1      41.672 -11.611   2.250  1.00  0.00    -0.074 N 
HETATM   18  H   UNL     1      41.755 -12.299   1.486  1.00  0.00     0.277 HD
HETATM   19  H   UNL     1      42.289 -10.830   1.980  1.00  0.00     0.277 HD
HETATM   20  C   UNL     1      40.268 -11.101   2.320  1.00  0.00     0.232 C 
HETATM   21  C   UNL     1      39.353 -12.243   2.731  1.00  0.00     0.029 C 
HETATM   22  C   UNL     1      39.800 -12.881   4.047  1.00  0.00     0.024 C 
ENDBRANCH  12  15
ENDBRANCH   8  12
TORSDOF 2
ENDMDL
MODEL 6
REMARK VINA RESULT:      -7.0      3.228      4.749
REMARK  2 active torsions:
REMARK  status: ('A' for Active; 'I' for Inactive)
REMARK    1  A    between atoms: C_8  and  S_9 
REMARK    2  A    between atoms: S_9  and  C_10 
ROOT
HETATM    1  C   UNL     1      43.840 -19.054   2.673  1.00  0.00     0.002 A 
HETATM    2  C   UNL     1      43.551 -17.691   2.763  1.00  0.00     0.034 A 
HETATM    3  C   UNL     1      43.451 -17.054   3.995  1.00  0.00     0.087 A 
HETATM    4  C   UNL     1      43.634 -17.818   5.180  1.00  0.00     0.087 A 
HETATM    5  N   UNL     1      43.518 -17.260   6.401  1.00  0.00    -0.231 NA
HETATM    6  C   UNL     1      43.193 -15.950   6.458  1.00  0.00     0.167 A 
HETATM    7 CL   UNL     1      43.023 -15.357   8.052  1.00  0.00    -0.059 Cl
HETATM    8  C   UNL     1      43.034 -15.219   5.305  1.00  0.00     0.193 A 
HETATM    9  N   UNL     1      43.181 -15.732   4.046  1.00  0.00    -0.232 NA
HETATM   10  C   UNL     1      43.935 -19.169   5.075  1.00  0.00     0.034 A 
HETATM   11  C   UNL     1      44.040 -19.793   3.831  1.00  0.00     0.002 A 
ENDROOT
BRANCH   8  12
HETATM   12  S   UNL     1      42.658 -13.504   5.348  1.00  0.00     0.201 S 
HETATM   13  O   UNL     1      42.970 -12.961   4.042  1.00  0.00    -0.221 OA
HETATM   14  O   UNL     1      41.350 -13.344   5.954  1.00  0.00    -0.221 OA
BRANCH  12  15
HETATM   15  C   UNL     1      43.808 -12.775   6.515  1.00  0.00     0.141 C 
HETATM   16  C   UNL     1      43.041 -11.878   7.481  1.00  0.00     0.252 C 
HETATM   17  N   UNL     1      43.993 -11.157   8.397  1.00  0.00    -0.074 N 
HETATM   18  H   UNL     1      44.473 -11.827   9.017  1.00  0.00     0.277 HD
HETATM   19  H   UNL     1      43.450 -10.545   9.025  1.00  0.00     0.277 HD
HETATM   20  C   UNL     1      45.003 -10.321   7.679  1.00  0.00     0.232 C 
HETATM   21  C   UNL     1      45.799 -11.212   6.740  1.00  0.00     0.029 C 
HETATM   22  C   UNL     1      44.888 -11.970   5.773  1.00  0.00     0.024 C 
ENDBRANCH  12  15
ENDBRANCH   8  12
TORSDOF 2
ENDMDL
MODEL 7
REMARK VINA RESULT:      -6.7      3.045      3.775
REMARK  2 active torsions:
REMARK  status: ('A' for Active; 'I' for Inactive)
REMARK    1  A    between atoms: C_8  and  S_9 
REMARK    2  A    between atoms: S_9  and  C_10 
ROOT
HETATM    1  C   UNL     1      44.522 -18.583   4.112  1.00  0.00     0.002 A 
HETATM    2  C   UNL     1      44.086 -17.479   4.846  1.00  0.00     0.034 A 
HETATM    3  C   UNL     1      43.027 -16.693   4.408  1.00  0.00     0.087 A 
HETATM    4  C   UNL     1      42.390 -17.021   3.179  1.00  0.00     0.087 A 
HETATM    5  N   UNL     1      41.378 -16.276   2.692  1.00  0.00    -0.231 NA
HETATM    6  C   UNL     1      41.008 -15.188   3.401  1.00  0.00     0.167 A 
HETATM    7 CL   UNL     1      39.753 -14.289   2.668  1.00  0.00    -0.059 Cl
HETATM    8  C   UNL     1      41.621 -14.890   4.594  1.00  0.00     0.193 A 
HETATM    9  N   UNL     1      42.623 -15.638   5.148  1.00  0.00    -0.232 NA
HETATM   10  C   UNL     1      42.824 -18.131   2.468  1.00  0.00     0.034 A 
HETATM   11  C   UNL     1      43.884 -18.915   2.924  1.00  0.00     0.002 A 
ENDROOT
BRANCH   8  12
HETATM   12  S   UNL     1      41.130 -13.509   5.561  1.00  0.00     0.201 S 
HETATM   13  O   UNL     1      39.789 -13.773   6.040  1.00  0.00    -0.221 OA
HETATM   14  O   UNL     1      42.217 -13.181   6.464  1.00  0.00    -0.221 OA
BRANCH  12  15
HETATM   15  C   UNL     1      41.027 -12.123   4.427  1.00  0.00     0.141 C 
HETATM   16  C   UNL     1      42.362 -11.387   4.413  1.00  0.00     0.252 C 
HETATM   17  N   UNL     1      42.270 -10.148   3.563  1.00  0.00    -0.074 N 
HETATM   18  H   UNL     1      42.121 -10.400   2.574  1.00  0.00     0.277 HD
HETATM   19  H   UNL     1      43.179  -9.661   3.586  1.00  0.00     0.277 HD
HETATM   20  C   UNL     1      41.210  -9.192   4.005  1.00  0.00     0.232 C 
HETATM   21  C   UNL     1      39.868  -9.905   3.988  1.00  0.00     0.029 C 
HETATM   22  C   UNL     1      39.891 -11.173   4.842  1.00  0.00     0.024 C 
ENDBRANCH  12  15
ENDBRANCH   8  12
TORSDOF 2
ENDMDL
MODEL 8
REMARK VINA RESULT:      -6.7      4.652      6.522
REMARK  2 active torsions:
REMARK  status: ('A' for Active; 'I' for Inactive)
REMARK    1  A    between atoms: C_8  and  S_9 
REMARK    2  A    between atoms: S_9  and  C_10 
ROOT
HETATM    1  C   UNL     1      46.206 -10.704   7.476  1.00  0.00     0.002 A 
HETATM    2  C   UNL     1      45.500 -11.530   6.600  1.00  0.00     0.034 A 
HETATM    3  C   UNL     1      44.129 -11.390   6.422  1.00  0.00     0.087 A 
HETATM    4  C   UNL     1      43.439 -10.391   7.162  1.00  0.00     0.087 A 
HETATM    5  N   UNL     1      42.105 -10.231   7.052  1.00  0.00    -0.231 NA
HETATM    6  C   UNL     1      41.442 -11.074   6.231  1.00  0.00     0.167 A 
HETATM    7 CL   UNL     1      39.753 -10.816   6.205  1.00  0.00    -0.059 Cl
HETATM    8  C   UNL     1      42.123 -12.026   5.510  1.00  0.00     0.193 A 
HETATM    9  N   UNL     1      43.479 -12.199   5.558  1.00  0.00    -0.232 NA
HETATM   10  C   UNL     1      44.156  -9.567   8.019  1.00  0.00     0.034 A 
HETATM   11  C   UNL     1      45.533  -9.714   8.182  1.00  0.00     0.002 A 
ENDROOT
BRANCH   8  12
HETATM   12  S   UNL     1      41.295 -13.105   4.399  1.00  0.00     0.201 S 
HETATM   13  O   UNL     1      40.430 -13.956   5.189  1.00  0.00    -0.221 OA
HETATM   14  O   UNL     1      40.792 -12.313   3.292  1.00  0.00    -0.221 OA
BRANCH  12  15
HETATM   15  C   UNL     1      42.565 -14.152   3.687  1.00  0.00     0.141 C 
HETATM   16  C   UNL     1      42.591 -13.953   2.176  1.00  0.00     0.252 C 
HETATM   17  N   UNL     1      43.564 -14.907   1.537  1.00  0.00    -0.074 N 
HETATM   18  H   UNL     1      44.529 -14.686   1.827  1.00  0.00     0.277 HD
HETATM   19  H   UNL     1      43.547 -14.763   0.515  1.00  0.00     0.277 HD
HETATM   20  C   UNL     1      43.269 -16.345   1.817  1.00  0.00     0.232 C 
HETATM   21  C   UNL     1      43.277 -16.563   3.321  1.00  0.00     0.029 C 
HETATM   22  C   UNL     1      42.301 -15.627   4.033  1.00  0.00     0.024 C 
ENDBRANCH  12  15
ENDBRANCH   8  12
TORSDOF 2
ENDMDL
MODEL 9
REMARK VINA RESULT:      -6.5      3.271      6.594
REMARK  2 active torsions:
REMARK  status: ('A' for Active; 'I' for Inactive)
REMARK    1  A    between atoms: C_8  and  S_9 
REMARK    2  A    between atoms: S_9  and  C_10 
ROOT
HETATM    1  C   UNL     1      38.284 -14.321  -2.815  1.00  0.00     0.002 A 
HETATM    2  C   UNL     1      39.224 -14.845  -1.926  1.00  0.00     0.034 A 
HETATM    3  C   UNL     1      39.619 -14.141  -0.795  1.00  0.00     0.087 A 
HETATM    4  C   UNL     1      39.060 -12.856  -0.555  1.00  0.00     0.087 A 
HETATM    5  N   UNL     1      39.429 -12.116   0.509  1.00  0.00    -0.231 NA
HETATM    6  C   UNL     1      40.374 -12.629   1.327  1.00  0.00     0.167 A 
HETATM    7 CL   UNL     1      40.803 -11.589   2.613  1.00  0.00    -0.059 Cl
HETATM    8  C   UNL     1      40.895 -13.879   1.093  1.00  0.00     0.193 A 
HETATM    9  N   UNL     1      40.523 -14.683   0.051  1.00  0.00    -0.232 NA
HETATM   10  C   UNL     1      38.116 -12.353  -1.440  1.00  0.00     0.034 A 
HETATM   11  C   UNL     1      37.723 -13.075  -2.567  1.00  0.00     0.002 A 
ENDROOT
BRANCH   8  12
HETATM   12  S   UNL     1      42.089 -14.593   2.165  1.00  0.00     0.201 S 
HETATM   13  O   UNL     1      42.314 -15.952   1.717  1.00  0.00    -0.221 OA
HETATM   14  O   UNL     1      43.177 -13.646   2.322  1.00  0.00    -0.221 OA
BRANCH  12  15
HETATM   15  C   UNL     1      41.312 -14.687   3.779  1.00  0.00     0.141 C 
HETATM   16  C   UNL     1      42.234 -14.058   4.817  1.00  0.00     0.252 C 
HETATM   17  N   UNL     1      41.664 -14.229   6.199  1.00  0.00    -0.074 N 
HETATM   18  H   UNL     1      40.789 -13.692   6.296  1.00  0.00     0.277 HD
HETATM   19  H   UNL     1      42.316 -13.812   6.882  1.00  0.00     0.277 HD
HETATM   20  C   UNL     1      41.428 -15.655   6.581  1.00  0.00     0.232 C 
HETATM   21  C   UNL     1      40.479 -16.281   5.572  1.00  0.00     0.029 C 
HETATM   22  C   UNL     1      41.006 -16.148   4.143  1.00  0.00     0.024 C 
ENDBRANCH  12  15
ENDBRANCH   8  12
TORSDOF 2
ENDMDL
MODEL 10
REMARK VINA RESULT:      -6.3      4.709      6.706
REMARK  2 active torsions:
REMARK  status: ('A' for Active; 'I' for Inactive)
REMARK    1  A    between atoms: C_8  and  S_9 
REMARK    2  A    between atoms: S_9  and  C_10 
ROOT
HETATM    1  C   UNL     1      43.696  -8.367   8.221  1.00  0.00     0.002 A 
HETATM    2  C   UNL     1      42.895  -9.096   7.340  1.00  0.00     0.034 A 
HETATM    3  C   UNL     1      43.082 -10.461   7.157  1.00  0.00     0.087 A 
HETATM    4  C   UNL     1      44.121 -11.115   7.874  1.00  0.00     0.087 A 
HETATM    5  N   UNL     1      44.367 -12.430   7.713  1.00  0.00    -0.231 NA
HETATM    6  C   UNL     1      43.607 -13.101   6.820  1.00  0.00     0.167 A 
HETATM    7 CL   UNL     1      44.036 -14.747   6.657  1.00  0.00    -0.059 Cl
HETATM    8  C   UNL     1      42.596 -12.461   6.144  1.00  0.00     0.193 A 
HETATM    9  N   UNL     1      42.283 -11.139   6.305  1.00  0.00    -0.232 NA
HETATM   10  C   UNL     1      44.900 -10.380   8.758  1.00  0.00     0.034 A 
HETATM   11  C   UNL     1      44.695  -9.011   8.938  1.00  0.00     0.002 A 
ENDROOT
BRANCH   8  12
HETATM   12  S   UNL     1      41.560 -13.317   5.013  1.00  0.00     0.201 S 
HETATM   13  O   UNL     1      40.744 -14.232   5.784  1.00  0.00    -0.221 OA
HETATM   14  O   UNL     1      40.977 -12.343   4.110  1.00  0.00    -0.221 OA
BRANCH  12  15
HETATM   15  C   UNL     1      42.653 -14.308   3.994  1.00  0.00     0.141 C 
HETATM   16  C   UNL     1      42.768 -13.668   2.615  1.00  0.00     0.252 C 
HETATM   17  N   UNL     1      43.582 -14.540   1.697  1.00  0.00    -0.074 N 
HETATM   18  H   UNL     1      44.560 -14.592   2.023  1.00  0.00     0.277 HD
HETATM   19  H   UNL     1      43.628 -14.094   0.768  1.00  0.00     0.277 HD
HETATM   20  C   UNL     1      43.031 -15.920   1.532  1.00  0.00     0.232 C 
HETATM   21  C   UNL     1      42.947 -16.581   2.898  1.00  0.00     0.029 C 
HETATM   22  C   UNL     1      42.123 -15.746   3.879  1.00  0.00     0.024 C 
ENDBRANCH  12  15
ENDBRANCH   8  12
TORSDOF 2
ENDMDL
