MODEL 1
REMARK VINA RESULT:      -7.9      0.000      0.000
REMARK  5 active torsions:
REMARK  status: ('A' for Active; 'I' for Inactive)
REMARK    1  A    between atoms: O_2  and  C_3 
REMARK    2  A    between atoms: C_4  and  N_5 
REMARK       I    between atoms: N_5  and  C_6 
REMARK    3  A    between atoms: C_6  and  C_7 
REMARK    4  A    between atoms: C_7  and  N_8 
REMARK    5  A    between atoms: N_8  and  C_9 
ROOT
HETATM    1  C   UNL     1      42.161 -14.982   1.525  1.00  0.00     0.195 C 
ENDROOT
BRANCH   1   2
HETATM    2  C   UNL     1      40.639 -15.183   1.490  1.00  0.00     0.235 C 
HETATM    3  N   UNL     1      39.886 -15.050   2.618  1.00  0.00    -0.324 N 
HETATM    4  H   UNL     1      38.936 -14.747   2.424  1.00  0.00     0.169 HD
HETATM    5  O   UNL     1      40.055 -15.267   0.402  1.00  0.00    -0.272 OA
BRANCH   3   6
HETATM    6  C   UNL     1      40.220 -15.093   3.980  1.00  0.00     0.068 A 
HETATM    7  C   UNL     1      40.500 -13.872   4.619  1.00  0.00     0.095 A 
HETATM    8  C   UNL     1      40.747 -13.825   5.992  1.00  0.00     0.039 A 
HETATM    9  C   UNL     1      40.730 -15.003   6.736  1.00  0.00     0.003 A 
HETATM   10  C   UNL     1      40.448 -16.218   6.111  1.00  0.00     0.002 A 
HETATM   11  C   UNL     1      40.185 -16.264   4.738  1.00  0.00     0.032 A 
BRANCH   7  12
HETATM   12  O   UNL     1      40.495 -12.733   3.846  1.00  0.00    -0.354 OA
HETATM   13  C   UNL     1      41.758 -12.064   3.878  1.00  0.00     0.210 C 
ENDBRANCH   7  12
ENDBRANCH   3   6
ENDBRANCH   1   2
BRANCH   1  14
HETATM   14  N   UNL     1      42.781 -16.301   1.701  1.00  0.00    -0.283 NA
HETATM   15  H   UNL     1      42.219 -17.028   1.254  1.00  0.00     0.128 HD
BRANCH  14  16
HETATM   16  C   UNL     1      43.241 -16.754   2.948  1.00  0.00     0.019 A 
HETATM   17  C   UNL     1      43.463 -18.155   3.141  1.00  0.00    -0.005 A 
HETATM   18  C   UNL     1      43.916 -18.624   4.401  1.00  0.00    -0.024 A 
HETATM   19  C   UNL     1      43.264 -19.121   2.124  1.00  0.00     0.014 A 
HETATM   20  C   UNL     1      44.119 -19.999   4.610  1.00  0.00     0.012 A 
HETATM   21  C   UNL     1      44.171 -17.711   5.431  1.00  0.00     0.012 A 
HETATM   22  C   UNL     1      43.900 -20.924   3.590  1.00  0.00     0.001 A 
HETATM   23  C   UNL     1      43.478 -20.483   2.344  1.00  0.00     0.001 A 
HETATM   24  C   UNL     1      44.008 -16.346   5.223  1.00  0.00     0.003 A 
HETATM   25  C   UNL     1      43.563 -15.873   3.990  1.00  0.00     0.024 A 
ENDBRANCH  14  16
ENDBRANCH   1  14
TORSDOF 5
ENDMDL
MODEL 2
REMARK VINA RESULT:      -7.8      2.794      4.090
REMARK  5 active torsions:
REMARK  status: ('A' for Active; 'I' for Inactive)
REMARK    1  A    between atoms: O_2  and  C_3 
REMARK    2  A    between atoms: C_4  and  N_5 
REMARK       I    between atoms: N_5  and  C_6 
REMARK    3  A    between atoms: C_6  and  C_7 
REMARK    4  A    between atoms: C_7  and  N_8 
REMARK    5  A    between atoms: N_8  and  C_9 
ROOT
HETATM    1  C   UNL     1      42.656 -16.400   6.834  1.00  0.00     0.195 C 
ENDROOT
BRANCH   1   2
HETATM    2  C   UNL     1      42.985 -15.224   7.765  1.00  0.00     0.235 C 
HETATM    3  N   UNL     1      42.718 -13.938   7.396  1.00  0.00    -0.324 N 
HETATM    4  H   UNL     1      42.533 -13.332   8.189  1.00  0.00     0.169 HD
HETATM    5  O   UNL     1      43.307 -15.441   8.940  1.00  0.00    -0.272 OA
BRANCH   3   6
HETATM    6  C   UNL     1      42.492 -13.350   6.142  1.00  0.00     0.068 A 
HETATM    7  C   UNL     1      43.555 -12.640   5.558  1.00  0.00     0.095 A 
HETATM    8  C   UNL     1      43.437 -12.108   4.272  1.00  0.00     0.039 A 
HETATM    9  C   UNL     1      42.246 -12.272   3.566  1.00  0.00     0.003 A 
HETATM   10  C   UNL     1      41.189 -12.980   4.136  1.00  0.00     0.002 A 
HETATM   11  C   UNL     1      41.312 -13.526   5.418  1.00  0.00     0.032 A 
BRANCH   7  12
HETATM   12  O   UNL     1      44.714 -12.512   6.287  1.00  0.00    -0.354 OA
HETATM   13  C   UNL     1      44.883 -11.185   6.791  1.00  0.00     0.210 C 
ENDBRANCH   7  12
ENDBRANCH   3   6
ENDBRANCH   1   2
BRANCH   1  14
HETATM   14  N   UNL     1      43.796 -16.583   5.928  1.00  0.00    -0.283 NA
HETATM   15  H   UNL     1      44.447 -15.799   6.001  1.00  0.00     0.128 HD
BRANCH  14  16
HETATM   16  C   UNL     1      43.634 -16.942   4.579  1.00  0.00     0.019 A 
HETATM   17  C   UNL     1      43.741 -18.320   4.209  1.00  0.00    -0.005 A 
HETATM   18  C   UNL     1      43.592 -18.691   2.848  1.00  0.00    -0.024 A 
HETATM   19  C   UNL     1      43.982 -19.359   5.140  1.00  0.00     0.014 A 
HETATM   20  C   UNL     1      43.715 -20.039   2.467  1.00  0.00     0.012 A 
HETATM   21  C   UNL     1      43.309 -17.712   1.888  1.00  0.00     0.012 A 
HETATM   22  C   UNL     1      43.966 -21.035   3.409  1.00  0.00     0.001 A 
HETATM   23  C   UNL     1      44.094 -20.695   4.748  1.00  0.00     0.001 A 
HETATM   24  C   UNL     1      43.149 -16.382   2.260  1.00  0.00     0.003 A 
HETATM   25  C   UNL     1      43.295 -16.005   3.593  1.00  0.00     0.024 A 
ENDBRANCH  14  16
ENDBRANCH   1  14
TORSDOF 5
ENDMDL
MODEL 3
REMARK VINA RESULT:      -7.7      2.653      4.681
REMARK  5 active torsions:
REMARK  status: ('A' for Active; 'I' for Inactive)
REMARK    1  A    between atoms: O_2  and  C_3 
REMARK    2  A    between atoms: C_4  and  N_5 
REMARK       I    between atoms: N_5  and  C_6 
REMARK    3  A    between atoms: C_6  and  C_7 
REMARK    4  A    between atoms: C_7  and  N_8 
REMARK    5  A    between atoms: N_8  and  C_9 
ROOT
HETATM    1  C   UNL     1      41.921 -14.808   1.514  1.00  0.00     0.195 C 
ENDROOT
BRANCH   1   2
HETATM    2  C   UNL     1      40.405 -14.570   1.549  1.00  0.00     0.235 C 
HETATM    3  N   UNL     1      39.753 -14.024   0.482  1.00  0.00    -0.324 N 
HETATM    4  H   UNL     1      38.787 -14.328   0.413  1.00  0.00     0.169 HD
HETATM    5  O   UNL     1      39.726 -15.056   2.462  1.00  0.00    -0.272 OA
BRANCH   3   6
HETATM    6  C   UNL     1      40.210 -13.268  -0.609  1.00  0.00     0.068 A 
HETATM    7  C   UNL     1      39.880 -13.723  -1.897  1.00  0.00     0.095 A 
HETATM    8  C   UNL     1      40.217 -12.975  -3.027  1.00  0.00     0.039 A 
HETATM    9  C   UNL     1      40.898 -11.768  -2.876  1.00  0.00     0.003 A 
HETATM   10  C   UNL     1      41.223 -11.307  -1.601  1.00  0.00     0.002 A 
HETATM   11  C   UNL     1      40.873 -12.048  -0.468  1.00  0.00     0.032 A 
BRANCH   7  12
HETATM   12  O   UNL     1      39.199 -14.914  -1.998  1.00  0.00    -0.354 OA
HETATM   13  C   UNL     1      38.367 -14.956  -3.160  1.00  0.00     0.210 C 
ENDBRANCH   7  12
ENDBRANCH   3   6
ENDBRANCH   1   2
BRANCH   1  14
HETATM   14  N   UNL     1      42.157 -16.225   1.816  1.00  0.00    -0.283 NA
HETATM   15  H   UNL     1      41.308 -16.773   1.667  1.00  0.00     0.128 HD
BRANCH  14  16
HETATM   16  C   UNL     1      42.794 -16.645   2.995  1.00  0.00     0.019 A 
HETATM   17  C   UNL     1      43.186 -18.016   3.123  1.00  0.00    -0.005 A 
HETATM   18  C   UNL     1      43.819 -18.453   4.315  1.00  0.00    -0.024 A 
HETATM   19  C   UNL     1      42.986 -18.980   2.105  1.00  0.00     0.014 A 
HETATM   20  C   UNL     1      44.191 -19.800   4.463  1.00  0.00     0.012 A 
HETATM   21  C   UNL     1      44.082 -17.534   5.339  1.00  0.00     0.012 A 
HETATM   22  C   UNL     1      43.968 -20.726   3.444  1.00  0.00     0.001 A 
HETATM   23  C   UNL     1      43.369 -20.314   2.262  1.00  0.00     0.001 A 
HETATM   24  C   UNL     1      43.750 -16.193   5.188  1.00  0.00     0.003 A 
HETATM   25  C   UNL     1      43.127 -15.752   4.023  1.00  0.00     0.024 A 
ENDBRANCH  14  16
ENDBRANCH   1  14
TORSDOF 5
ENDMDL
MODEL 4
REMARK VINA RESULT:      -7.5      1.927      3.574
REMARK  5 active torsions:
REMARK  status: ('A' for Active; 'I' for Inactive)
REMARK    1  A    between atoms: O_2  and  C_3 
REMARK    2  A    between atoms: C_4  and  N_5 
REMARK       I    between atoms: N_5  and  C_6 
REMARK    3  A    between atoms: C_6  and  C_7 
REMARK    4  A    between atoms: C_7  and  N_8 
REMARK    5  A    between atoms: N_8  and  C_9 
ROOT
HETATM    1  C   UNL     1      42.757 -14.761   5.967  1.00  0.00     0.195 C 
ENDROOT
BRANCH   1   2
HETATM    2  C   UNL     1      41.309 -15.192   6.240  1.00  0.00     0.235 C 
HETATM    3  N   UNL     1      40.295 -14.818   5.408  1.00  0.00    -0.324 N 
HETATM    4  H   UNL     1      39.531 -15.487   5.393  1.00  0.00     0.169 HD
HETATM    5  O   UNL     1      41.074 -16.050   7.101  1.00  0.00    -0.272 OA
BRANCH   3   6
HETATM    6  C   UNL     1      40.189 -13.787   4.462  1.00  0.00     0.068 A 
HETATM    7  C   UNL     1      39.997 -14.155   3.119  1.00  0.00     0.095 A 
HETATM    8  C   UNL     1      39.789 -13.186   2.136  1.00  0.00     0.039 A 
HETATM    9  C   UNL     1      39.784 -11.837   2.489  1.00  0.00     0.003 A 
HETATM   10  C   UNL     1      39.968 -11.464   3.820  1.00  0.00     0.002 A 
HETATM   11  C   UNL     1      40.162 -12.435   4.808  1.00  0.00     0.032 A 
BRANCH   7  12
HETATM   12  O   UNL     1      39.999 -15.498   2.819  1.00  0.00    -0.354 OA
HETATM   13  C   UNL     1      39.878 -15.730   1.414  1.00  0.00     0.210 C 
ENDBRANCH   7  12
ENDBRANCH   3   6
ENDBRANCH   1   2
BRANCH   1  14
HETATM   14  N   UNL     1      43.541 -15.974   5.708  1.00  0.00    -0.283 NA
HETATM   15  H   UNL     1      44.507 -15.855   6.019  1.00  0.00     0.128 HD
BRANCH  14  16
HETATM   16  C   UNL     1      43.519 -16.632   4.467  1.00  0.00     0.019 A 
HETATM   17  C   UNL     1      43.652 -18.057   4.432  1.00  0.00    -0.005 A 
HETATM   18  C   UNL     1      43.644 -18.729   3.183  1.00  0.00    -0.024 A 
HETATM   19  C   UNL     1      43.783 -18.854   5.595  1.00  0.00     0.014 A 
HETATM   20  C   UNL     1      43.794 -20.126   3.132  1.00  0.00     0.012 A 
HETATM   21  C   UNL     1      43.473 -17.997   2.001  1.00  0.00     0.012 A 
HETATM   22  C   UNL     1      43.933 -20.878   4.297  1.00  0.00     0.001 A 
HETATM   23  C   UNL     1      43.923 -20.242   5.530  1.00  0.00     0.001 A 
HETATM   24  C   UNL     1      43.288 -16.619   2.043  1.00  0.00     0.003 A 
HETATM   25  C   UNL     1      43.296 -15.948   3.264  1.00  0.00     0.024 A 
ENDBRANCH  14  16
ENDBRANCH   1  14
TORSDOF 5
ENDMDL
MODEL 5
REMARK VINA RESULT:      -7.5      1.693      2.493
REMARK  5 active torsions:
REMARK  status: ('A' for Active; 'I' for Inactive)
REMARK    1  A    between atoms: O_2  and  C_3 
REMARK    2  A    between atoms: C_4  and  N_5 
REMARK       I    between atoms: N_5  and  C_6 
REMARK    3  A    between atoms: C_6  and  C_7 
REMARK    4  A    between atoms: C_7  and  N_8 
REMARK    5  A    between atoms: N_8  and  C_9 
ROOT
HETATM    1  C   UNL     1      43.245 -14.685   1.793  1.00  0.00     0.195 C 
ENDROOT
BRANCH   1   2
HETATM    2  C   UNL     1      42.090 -13.681   1.658  1.00  0.00     0.235 C 
HETATM    3  N   UNL     1      42.003 -12.595   2.478  1.00  0.00    -0.324 N 
HETATM    4  H   UNL     1      41.533 -11.808   2.040  1.00  0.00     0.169 HD
HETATM    5  O   UNL     1      41.340 -13.735   0.675  1.00  0.00    -0.272 OA
BRANCH   3   6
HETATM    6  C   UNL     1      42.578 -12.313   3.727  1.00  0.00     0.068 A 
HETATM    7  C   UNL     1      41.898 -12.767   4.871  1.00  0.00     0.095 A 
HETATM    8  C   UNL     1      42.455 -12.607   6.141  1.00  0.00     0.039 A 
HETATM    9  C   UNL     1      43.692 -11.980   6.278  1.00  0.00     0.003 A 
HETATM   10  C   UNL     1      44.375 -11.533   5.147  1.00  0.00     0.002 A 
HETATM   11  C   UNL     1      43.825 -11.705   3.873  1.00  0.00     0.032 A 
BRANCH   7  12
HETATM   12  O   UNL     1      40.685 -13.389   4.687  1.00  0.00    -0.354 OA
HETATM   13  C   UNL     1      39.640 -12.746   5.420  1.00  0.00     0.210 C 
ENDBRANCH   7  12
ENDBRANCH   3   6
ENDBRANCH   1   2
BRANCH   1  14
HETATM   14  N   UNL     1      42.677 -15.957   2.254  1.00  0.00    -0.283 NA
HETATM   15  H   UNL     1      41.657 -15.914   2.273  1.00  0.00     0.128 HD
BRANCH  14  16
HETATM   16  C   UNL     1      43.147 -16.617   3.402  1.00  0.00     0.019 A 
HETATM   17  C   UNL     1      43.381 -18.028   3.346  1.00  0.00    -0.005 A 
HETATM   18  C   UNL     1      43.842 -18.706   4.504  1.00  0.00    -0.024 A 
HETATM   19  C   UNL     1      43.186 -18.803   2.177  1.00  0.00     0.014 A 
HETATM   20  C   UNL     1      44.057 -20.095   4.469  1.00  0.00     0.012 A 
HETATM   21  C   UNL     1      44.095 -17.984   5.677  1.00  0.00     0.012 A 
HETATM   22  C   UNL     1      43.843 -20.829   3.304  1.00  0.00     0.001 A 
HETATM   23  C   UNL     1      43.412 -20.181   2.155  1.00  0.00     0.001 A 
HETATM   24  C   UNL     1      43.920 -16.605   5.711  1.00  0.00     0.003 A 
HETATM   25  C   UNL     1      43.465 -15.929   4.581  1.00  0.00     0.024 A 
ENDBRANCH  14  16
ENDBRANCH   1  14
TORSDOF 5
ENDMDL
MODEL 6
REMARK VINA RESULT:      -7.5      2.234      3.460
REMARK  5 active torsions:
REMARK  status: ('A' for Active; 'I' for Inactive)
REMARK    1  A    between atoms: O_2  and  C_3 
REMARK    2  A    between atoms: C_4  and  N_5 
REMARK       I    between atoms: N_5  and  C_6 
REMARK    3  A    between atoms: C_6  and  C_7 
REMARK    4  A    between atoms: C_7  and  N_8 
REMARK    5  A    between atoms: N_8  and  C_9 
ROOT
HETATM    1  C   UNL     1      42.776 -14.691   5.940  1.00  0.00     0.195 C 
ENDROOT
BRANCH   1   2
HETATM    2  C   UNL     1      41.363 -15.131   6.347  1.00  0.00     0.235 C 
HETATM    3  N   UNL     1      40.272 -14.754   5.621  1.00  0.00    -0.324 N 
HETATM    4  H   UNL     1      39.512 -15.425   5.674  1.00  0.00     0.169 HD
HETATM    5  O   UNL     1      41.215 -15.998   7.218  1.00  0.00    -0.272 OA
BRANCH   3   6
HETATM    6  C   UNL     1      40.072 -13.713   4.700  1.00  0.00     0.068 A 
HETATM    7  C   UNL     1      39.633 -12.477   5.204  1.00  0.00     0.095 A 
HETATM    8  C   UNL     1      39.503 -11.370   4.364  1.00  0.00     0.039 A 
HETATM    9  C   UNL     1      39.799 -11.496   3.007  1.00  0.00     0.003 A 
HETATM   10  C   UNL     1      40.240 -12.718   2.501  1.00  0.00     0.002 A 
HETATM   11  C   UNL     1      40.385 -13.824   3.345  1.00  0.00     0.032 A 
BRANCH   7  12
HETATM   12  O   UNL     1      39.363 -12.396   6.551  1.00  0.00    -0.354 OA
HETATM   13  C   UNL     1      39.163 -11.045   6.974  1.00  0.00     0.210 C 
ENDBRANCH   7  12
ENDBRANCH   3   6
ENDBRANCH   1   2
BRANCH   1  14
HETATM   14  N   UNL     1      43.555 -15.903   5.657  1.00  0.00    -0.283 NA
HETATM   15  H   UNL     1      44.530 -15.781   5.939  1.00  0.00     0.128 HD
BRANCH  14  16
HETATM   16  C   UNL     1      43.496 -16.562   4.418  1.00  0.00     0.019 A 
HETATM   17  C   UNL     1      43.637 -17.986   4.380  1.00  0.00    -0.005 A 
HETATM   18  C   UNL     1      43.592 -18.659   3.133  1.00  0.00    -0.024 A 
HETATM   19  C   UNL     1      43.811 -18.781   5.539  1.00  0.00     0.014 A 
HETATM   20  C   UNL     1      43.748 -20.055   3.078  1.00  0.00     0.012 A 
HETATM   21  C   UNL     1      43.378 -17.930   1.957  1.00  0.00     0.012 A 
HETATM   22  C   UNL     1      43.931 -20.806   4.239  1.00  0.00     0.001 A 
HETATM   23  C   UNL     1      43.957 -20.168   5.471  1.00  0.00     0.001 A 
HETATM   24  C   UNL     1      43.186 -16.553   2.003  1.00  0.00     0.003 A 
HETATM   25  C   UNL     1      43.229 -15.881   3.222  1.00  0.00     0.024 A 
ENDBRANCH  14  16
ENDBRANCH   1  14
TORSDOF 5
ENDMDL
MODEL 7
REMARK VINA RESULT:      -7.5      1.814      3.473
REMARK  5 active torsions:
REMARK  status: ('A' for Active; 'I' for Inactive)
REMARK    1  A    between atoms: O_2  and  C_3 
REMARK    2  A    between atoms: C_4  and  N_5 
REMARK       I    between atoms: N_5  and  C_6 
REMARK    3  A    between atoms: C_6  and  C_7 
REMARK    4  A    between atoms: C_7  and  N_8 
REMARK    5  A    between atoms: N_8  and  C_9 
ROOT
HETATM    1  C   UNL     1      42.444 -13.998   4.744  1.00  0.00     0.195 C 
ENDROOT
BRANCH   1   2
HETATM    2  C   UNL     1      40.971 -13.850   5.151  1.00  0.00     0.235 C 
HETATM    3  N   UNL     1      39.967 -14.197   4.295  1.00  0.00    -0.324 N 
HETATM    4  H   UNL     1      39.126 -14.499   4.778  1.00  0.00     0.169 HD
HETATM    5  O   UNL     1      40.679 -13.609   6.329  1.00  0.00    -0.272 OA
BRANCH   3   6
HETATM    6  C   UNL     1      39.938 -14.368   2.903  1.00  0.00     0.068 A 
HETATM    7  C   UNL     1      40.051 -13.217   2.105  1.00  0.00     0.095 A 
HETATM    8  C   UNL     1      40.126 -13.317   0.714  1.00  0.00     0.039 A 
HETATM    9  C   UNL     1      40.075 -14.572   0.110  1.00  0.00     0.003 A 
HETATM   10  C   UNL     1      39.969 -15.720   0.895  1.00  0.00     0.002 A 
HETATM   11  C   UNL     1      39.909 -15.622   2.289  1.00  0.00     0.032 A 
BRANCH   7  12
HETATM   12  O   UNL     1      40.109 -12.000   2.745  1.00  0.00    -0.354 OA
HETATM   13  C   UNL     1      38.960 -11.197   2.465  1.00  0.00     0.210 C 
ENDBRANCH   7  12
ENDBRANCH   3   6
ENDBRANCH   1   2
BRANCH   1  14
HETATM   14  N   UNL     1      42.887 -15.337   5.151  1.00  0.00    -0.283 NA
HETATM   15  H   UNL     1      43.642 -15.276   5.837  1.00  0.00     0.128 HD
BRANCH  14  16
HETATM   16  C   UNL     1      43.170 -16.350   4.220  1.00  0.00     0.019 A 
HETATM   17  C   UNL     1      43.399 -17.682   4.689  1.00  0.00    -0.005 A 
HETATM   18  C   UNL     1      43.698 -18.709   3.758  1.00  0.00    -0.024 A 
HETATM   19  C   UNL     1      43.334 -18.046   6.056  1.00  0.00     0.014 A 
HETATM   20  C   UNL     1      43.946 -20.018   4.207  1.00  0.00     0.012 A 
HETATM   21  C   UNL     1      43.733 -18.417   2.389  1.00  0.00     0.012 A 
HETATM   22  C   UNL     1      43.885 -20.339   5.562  1.00  0.00     0.001 A 
HETATM   23  C   UNL     1      43.574 -19.353   6.488  1.00  0.00     0.001 A 
HETATM   24  C   UNL     1      43.455 -17.134   1.932  1.00  0.00     0.003 A 
HETATM   25  C   UNL     1      43.161 -16.116   2.838  1.00  0.00     0.024 A 
ENDBRANCH  14  16
ENDBRANCH   1  14
TORSDOF 5
ENDMDL
MODEL 8
REMARK VINA RESULT:      -7.4      3.075      6.635
REMARK  5 active torsions:
REMARK  status: ('A' for Active; 'I' for Inactive)
REMARK    1  A    between atoms: O_2  and  C_3 
REMARK    2  A    between atoms: C_4  and  N_5 
REMARK       I    between atoms: N_5  and  C_6 
REMARK    3  A    between atoms: C_6  and  C_7 
REMARK    4  A    between atoms: C_7  and  N_8 
REMARK    5  A    between atoms: N_8  and  C_9 
ROOT
HETATM    1  C   UNL     1      41.955 -16.655   6.791  1.00  0.00     0.195 C 
ENDROOT
BRANCH   1   2
HETATM    2  C   UNL     1      43.461 -16.925   6.919  1.00  0.00     0.235 C 
HETATM    3  N   UNL     1      44.234 -17.138   5.816  1.00  0.00    -0.324 N 
HETATM    4  H   UNL     1      45.198 -16.848   5.950  1.00  0.00     0.169 HD
HETATM    5  O   UNL     1      44.026 -16.751   8.007  1.00  0.00    -0.272 OA
BRANCH   3   6
HETATM    6  C   UNL     1      43.913 -17.520   4.505  1.00  0.00     0.068 A 
HETATM    7  C   UNL     1      44.052 -18.879   4.173  1.00  0.00     0.095 A 
HETATM    8  C   UNL     1      43.662 -19.351   2.918  1.00  0.00     0.039 A 
HETATM    9  C   UNL     1      43.140 -18.461   1.979  1.00  0.00     0.003 A 
HETATM   10  C   UNL     1      42.994 -17.113   2.304  1.00  0.00     0.002 A 
HETATM   11  C   UNL     1      43.370 -16.642   3.566  1.00  0.00     0.032 A 
BRANCH   7  12
HETATM   12  O   UNL     1      44.561 -19.722   5.134  1.00  0.00    -0.354 OA
HETATM   13  C   UNL     1      43.845 -20.958   5.192  1.00  0.00     0.210 C 
ENDBRANCH   7  12
ENDBRANCH   3   6
ENDBRANCH   1   2
BRANCH   1  14
HETATM   14  N   UNL     1      41.743 -15.214   6.974  1.00  0.00    -0.283 NA
HETATM   15  H   UNL     1      40.925 -15.039   7.560  1.00  0.00     0.128 HD
BRANCH  14  16
HETATM   16  C   UNL     1      41.761 -14.310   5.899  1.00  0.00     0.019 A 
HETATM   17  C   UNL     1      42.800 -13.328   5.833  1.00  0.00    -0.005 A 
HETATM   18  C   UNL     1      42.820 -12.402   4.759  1.00  0.00    -0.024 A 
HETATM   19  C   UNL     1      43.840 -13.230   6.790  1.00  0.00     0.014 A 
HETATM   20  C   UNL     1      43.823 -11.420   4.691  1.00  0.00     0.012 A 
HETATM   21  C   UNL     1      41.843 -12.478   3.758  1.00  0.00     0.012 A 
HETATM   22  C   UNL     1      44.824 -11.345   5.659  1.00  0.00     0.001 A 
HETATM   23  C   UNL     1      44.835 -12.254   6.706  1.00  0.00     0.001 A 
HETATM   24  C   UNL     1      40.867 -13.468   3.796  1.00  0.00     0.003 A 
HETATM   25  C   UNL     1      40.837 -14.383   4.847  1.00  0.00     0.024 A 
ENDBRANCH  14  16
ENDBRANCH   1  14
TORSDOF 5
ENDMDL
MODEL 9
REMARK VINA RESULT:      -7.3      2.687      4.851
REMARK  5 active torsions:
REMARK  status: ('A' for Active; 'I' for Inactive)
REMARK    1  A    between atoms: O_2  and  C_3 
REMARK    2  A    between atoms: C_4  and  N_5 
REMARK       I    between atoms: N_5  and  C_6 
REMARK    3  A    between atoms: C_6  and  C_7 
REMARK    4  A    between atoms: C_7  and  N_8 
REMARK    5  A    between atoms: N_8  and  C_9 
ROOT
HETATM    1  C   UNL     1      41.206 -15.295   1.583  1.00  0.00     0.195 C 
ENDROOT
BRANCH   1   2
HETATM    2  C   UNL     1      40.162 -14.217   1.908  1.00  0.00     0.235 C 
HETATM    3  N   UNL     1      39.551 -13.507   0.917  1.00  0.00    -0.324 N 
HETATM    4  H   UNL     1      38.619 -13.197   1.172  1.00  0.00     0.169 HD
HETATM    5  O   UNL     1      39.715 -14.121   3.059  1.00  0.00    -0.272 OA
BRANCH   3   6
HETATM    6  C   UNL     1      39.900 -13.274  -0.422  1.00  0.00     0.068 A 
HETATM    7  C   UNL     1      40.721 -12.166  -0.696  1.00  0.00     0.095 A 
HETATM    8  C   UNL     1      41.187 -11.925  -1.989  1.00  0.00     0.039 A 
HETATM    9  C   UNL     1      40.824 -12.786  -3.024  1.00  0.00     0.003 A 
HETATM   10  C   UNL     1      40.015 -13.891  -2.759  1.00  0.00     0.002 A 
HETATM   11  C   UNL     1      39.560 -14.142  -1.461  1.00  0.00     0.032 A 
BRANCH   7  12
HETATM   12  O   UNL     1      41.063 -11.350   0.358  1.00  0.00    -0.354 OA
HETATM   13  C   UNL     1      41.495 -10.062  -0.085  1.00  0.00     0.210 C 
ENDBRANCH   7  12
ENDBRANCH   3   6
ENDBRANCH   1   2
BRANCH   1  14
HETATM   14  N   UNL     1      41.045 -16.379   2.558  1.00  0.00    -0.283 NA
HETATM   15  H   UNL     1      40.367 -16.123   3.277  1.00  0.00     0.128 HD
BRANCH  14  16
HETATM   16  C   UNL     1      42.143 -17.027   3.149  1.00  0.00     0.019 A 
HETATM   17  C   UNL     1      42.390 -16.843   4.546  1.00  0.00    -0.005 A 
HETATM   18  C   UNL     1      43.504 -17.483   5.149  1.00  0.00    -0.024 A 
HETATM   19  C   UNL     1      41.566 -16.053   5.384  1.00  0.00     0.014 A 
HETATM   20  C   UNL     1      43.770 -17.295   6.516  1.00  0.00     0.012 A 
HETATM   21  C   UNL     1      44.329 -18.312   4.379  1.00  0.00     0.012 A 
HETATM   22  C   UNL     1      42.945 -16.499   7.309  1.00  0.00     0.001 A 
HETATM   23  C   UNL     1      41.838 -15.882   6.743  1.00  0.00     0.001 A 
HETATM   24  C   UNL     1      44.053 -18.533   3.035  1.00  0.00     0.003 A 
HETATM   25  C   UNL     1      42.963 -17.909   2.431  1.00  0.00     0.024 A 
ENDBRANCH  14  16
ENDBRANCH   1  14
TORSDOF 5
ENDMDL
MODEL 10
REMARK VINA RESULT:      -7.3      1.680      3.036
REMARK  5 active torsions:
REMARK  status: ('A' for Active; 'I' for Inactive)
REMARK    1  A    between atoms: O_2  and  C_3 
REMARK    2  A    between atoms: C_4  and  N_5 
REMARK       I    between atoms: N_5  and  C_6 
REMARK    3  A    between atoms: C_6  and  C_7 
REMARK    4  A    between atoms: C_7  and  N_8 
REMARK    5  A    between atoms: N_8  and  C_9 
ROOT
HETATM    1  C   UNL     1      39.920 -14.356   2.627  1.00  0.00     0.195 C 
ENDROOT
BRANCH   1   2
HETATM    2  C   UNL     1      41.030 -14.175   1.582  1.00  0.00     0.235 C 
HETATM    3  N   UNL     1      42.236 -13.638   1.924  1.00  0.00    -0.324 N 
HETATM    4  H   UNL     1      42.997 -13.977   1.342  1.00  0.00     0.169 HD
HETATM    5  O   UNL     1      40.917 -14.701   0.467  1.00  0.00    -0.272 OA
BRANCH   3   6
HETATM    6  C   UNL     1      42.638 -12.849   3.012  1.00  0.00     0.068 A 
HETATM    7  C   UNL     1      42.434 -11.462   2.919  1.00  0.00     0.095 A 
HETATM    8  C   UNL     1      42.720 -10.624   3.998  1.00  0.00     0.039 A 
HETATM    9  C   UNL     1      43.226 -11.168   5.177  1.00  0.00     0.003 A 
HETATM   10  C   UNL     1      43.425 -12.544   5.280  1.00  0.00     0.002 A 
HETATM   11  C   UNL     1      43.125 -13.386   4.205  1.00  0.00     0.032 A 
BRANCH   7  12
HETATM   12  O   UNL     1      41.924 -10.971   1.739  1.00  0.00    -0.354 OA
HETATM   13  C   UNL     1      40.726 -10.219   1.949  1.00  0.00     0.210 C 
ENDBRANCH   7  12
ENDBRANCH   3   6
ENDBRANCH   1   2
BRANCH   1  14
HETATM   14  N   UNL     1      40.015 -15.725   3.147  1.00  0.00    -0.283 NA
HETATM   15  H   UNL     1      39.086 -16.131   3.272  1.00  0.00     0.128 HD
BRANCH  14  16
HETATM   16  C   UNL     1      40.832 -16.059   4.240  1.00  0.00     0.019 A 
HETATM   17  C   UNL     1      41.996 -16.861   4.020  1.00  0.00    -0.005 A 
HETATM   18  C   UNL     1      42.820 -17.214   5.119  1.00  0.00    -0.024 A 
HETATM   19  C   UNL     1      42.390 -17.325   2.741  1.00  0.00     0.014 A 
HETATM   20  C   UNL     1      43.956 -18.018   4.920  1.00  0.00     0.012 A 
HETATM   21  C   UNL     1      42.505 -16.748   6.401  1.00  0.00     0.012 A 
HETATM   22  C   UNL     1      44.306 -18.468   3.648  1.00  0.00     0.001 A 
HETATM   23  C   UNL     1      43.525 -18.117   2.556  1.00  0.00     0.001 A 
HETATM   24  C   UNL     1      41.405 -15.922   6.603  1.00  0.00     0.003 A 
HETATM   25  C   UNL     1      40.587 -15.570   5.531  1.00  0.00     0.024 A 
ENDBRANCH  14  16
ENDBRANCH   1  14
TORSDOF 5
ENDMDL
