MODEL 1
REMARK VINA RESULT:      -9.4      0.000      0.000
REMARK  7 active torsions:
REMARK  status: ('A' for Active; 'I' for Inactive)
REMARK    1  A    between atoms: C_2  and  O_3 
REMARK    2  A    between atoms: O_3  and  C_4 
REMARK       I    between atoms: C_4  and  N_5 
REMARK    3  A    between atoms: C_8  and  N_9 
REMARK       I    between atoms: N_9  and  C_10 
REMARK    4  A    between atoms: C_10  and  C_11 
REMARK    5  A    between atoms: C_13  and  N_14 
REMARK       I    between atoms: N_14  and  C_15 
REMARK    6  A    between atoms: C_15  and  C_16 
REMARK    7  A    between atoms: C_22  and  N_23 
ROOT
HETATM    1  C   UNL     1      43.932 -11.734   5.761  1.00  0.00     0.034 A 
HETATM    2  C   UNL     1      42.992 -12.677   6.184  1.00  0.00     0.049 A 
HETATM    3  C   UNL     1      42.093 -13.269   5.274  1.00  0.00     0.062 A 
HETATM    4  C   UNL     1      42.091 -12.898   3.908  1.00  0.00     0.057 A 
HETATM    5  C   UNL     1      43.047 -11.941   3.516  1.00  0.00     0.033 A 
HETATM    6  C   UNL     1      43.952 -11.370   4.417  1.00  0.00     0.019 A 
ENDROOT
BRANCH   1   7
HETATM    7  C   UNL     1      44.889 -11.067   6.694  1.00  0.00     0.252 C 
HETATM    8  N   UNL     1      44.359 -10.148   7.579  1.00  0.00    -0.352 N 
HETATM    9  H   UNL     1      43.360 -10.136   7.718  1.00  0.00     0.163 HD
HETATM   10  O   UNL     1      46.081 -11.354   6.664  1.00  0.00    -0.268 OA
BRANCH   8  11
HETATM   11  C   UNL     1      45.179  -9.490   8.591  1.00  0.00     0.087 C 
HETATM   12  C   UNL     1      44.560  -8.160   9.020  1.00  0.00     0.045 C 
HETATM   13  C   UNL     1      43.284  -8.347   9.831  1.00  0.00     0.130 C 
HETATM   14  N   UNL     1      43.442  -9.311  10.916  1.00  0.00    -0.328 N 
HETATM   15  C   UNL     1      42.588  -9.292  12.015  1.00  0.00     0.362 C 
HETATM   16  C   UNL     1      44.098 -10.575  10.603  1.00  0.00     0.130 C 
HETATM   17  O   UNL     1      42.507 -10.203  12.834  1.00  0.00    -0.238 OA
HETATM   18  C   UNL     1      45.387 -10.391   9.809  1.00  0.00     0.045 C 
BRANCH  15  19
HETATM   19  O   UNL     1      41.849  -8.151  12.079  1.00  0.00    -0.304 OA
BRANCH  19  20
HETATM   20  C   UNL     1      41.735  -7.540  13.371  1.00  0.00     0.176 C 
HETATM   21  C   UNL     1      43.101  -7.082  13.849  1.00  0.00     0.034 C 
ENDBRANCH  19  20
ENDBRANCH  15  19
ENDBRANCH   8  11
ENDBRANCH   1   7
BRANCH   3  22
HETATM   22  N   UNL     1      41.184 -14.240   5.757  1.00  0.00    -0.320 N 
HETATM   23  C   UNL     1      41.492 -15.496   6.235  1.00  0.00     0.263 C 
HETATM   24  O   UNL     1      40.868 -15.917   7.209  1.00  0.00    -0.267 OA
HETATM   25  H   UNL     1      40.327 -13.875   6.140  1.00  0.00     0.169 HD
BRANCH  23  26
HETATM   26  C   UNL     1      42.457 -16.281   5.474  1.00  0.00     0.072 A 
HETATM   27  S   UNL     1      43.922 -16.776   6.211  1.00  0.00    -0.097 SA
HETATM   28  C   UNL     1      44.415 -17.632   4.815  1.00  0.00     0.050 A 
HETATM   29  C   UNL     1      43.487 -17.548   3.801  1.00  0.00     0.009 A 
HETATM   30  C   UNL     1      42.359 -16.769   4.181  1.00  0.00     0.025 A 
ENDBRANCH  23  26
ENDBRANCH   3  22
BRANCH   4  31
HETATM   31  N   UNL     1      41.255 -13.460   2.951  1.00  0.00    -0.378 N 
HETATM   32  C   UNL     1      39.795 -13.395   3.055  1.00  0.00     0.134 C 
HETATM   33  C   UNL     1      39.164 -12.883   1.741  1.00  0.00     0.054 C 
HETATM   34  C   UNL     1      39.615 -13.763   0.578  1.00  0.00     0.020 C 
HETATM   35  C   UNL     1      39.555 -11.432   1.525  1.00  0.00     0.020 A 
HETATM   36  C   UNL     1      41.128 -13.629   0.464  1.00  0.00     0.023 C 
HETATM   37  C   UNL     1      41.472 -12.178   0.109  1.00  0.00     0.138 C 
HETATM   38  C   UNL     1      41.814 -14.104   1.757  1.00  0.00     0.129 C 
HETATM   39  N   UNL     1      40.715 -11.136   0.806  1.00  0.00    -0.317 N 
HETATM   40  C   UNL     1      41.169  -9.824   0.632  1.00  0.00     0.247 A 
HETATM   41  O   UNL     1      42.166  -9.512  -0.014  1.00  0.00    -0.268 OA
HETATM   42  C   UNL     1      40.367  -8.757   1.286  1.00  0.00     0.074 A 
HETATM   43  C   UNL     1      39.251  -9.068   1.952  1.00  0.00     0.007 A 
HETATM   44  C   UNL     1      38.830 -10.438   2.069  1.00  0.00     0.026 A 
ENDBRANCH   4  31
TORSDOF 7
ENDMDL
MODEL 2
REMARK VINA RESULT:      -9.3      1.106      1.241
REMARK  7 active torsions:
REMARK  status: ('A' for Active; 'I' for Inactive)
REMARK    1  A    between atoms: C_2  and  O_3 
REMARK    2  A    between atoms: O_3  and  C_4 
REMARK       I    between atoms: C_4  and  N_5 
REMARK    3  A    between atoms: C_8  and  N_9 
REMARK       I    between atoms: N_9  and  C_10 
REMARK    4  A    between atoms: C_10  and  C_11 
REMARK    5  A    between atoms: C_13  and  N_14 
REMARK       I    between atoms: N_14  and  C_15 
REMARK    6  A    between atoms: C_15  and  C_16 
REMARK    7  A    between atoms: C_22  and  N_23 
ROOT
HETATM    1  C   UNL     1      43.921 -11.911   5.697  1.00  0.00     0.034 A 
HETATM    2  C   UNL     1      42.966 -12.850   6.095  1.00  0.00     0.049 A 
HETATM    3  C   UNL     1      42.038 -13.380   5.176  1.00  0.00     0.062 A 
HETATM    4  C   UNL     1      42.020 -12.946   3.829  1.00  0.00     0.057 A 
HETATM    5  C   UNL     1      42.991 -11.995   3.463  1.00  0.00     0.033 A 
HETATM    6  C   UNL     1      43.925 -11.486   4.372  1.00  0.00     0.019 A 
ENDROOT
BRANCH   1   7
HETATM    7  C   UNL     1      44.909 -11.310   6.641  1.00  0.00     0.252 C 
HETATM    8  N   UNL     1      44.405 -10.738   7.793  1.00  0.00    -0.352 N 
HETATM    9  H   UNL     1      43.454 -10.949   8.057  1.00  0.00     0.163 HD
HETATM   10  O   UNL     1      46.109 -11.350   6.387  1.00  0.00    -0.268 OA
BRANCH   8  11
HETATM   11  C   UNL     1      45.275 -10.190   8.828  1.00  0.00     0.087 C 
HETATM   12  C   UNL     1      45.503  -8.693   8.618  1.00  0.00     0.045 C 
HETATM   13  C   UNL     1      44.252  -7.870   8.898  1.00  0.00     0.130 C 
HETATM   14  N   UNL     1      43.629  -8.207  10.174  1.00  0.00    -0.328 N 
HETATM   15  C   UNL     1      42.786  -7.304  10.816  1.00  0.00     0.362 C 
HETATM   16  C   UNL     1      43.451  -9.621  10.484  1.00  0.00     0.130 C 
HETATM   17  O   UNL     1      42.050  -7.602  11.752  1.00  0.00    -0.238 OA
HETATM   18  C   UNL     1      44.707 -10.445  10.225  1.00  0.00     0.045 C 
BRANCH  15  19
HETATM   19  O   UNL     1      42.866  -6.053  10.288  1.00  0.00    -0.304 OA
BRANCH  19  20
HETATM   20  C   UNL     1      42.276  -4.999  11.059  1.00  0.00     0.176 C 
HETATM   21  C   UNL     1      42.942  -3.677  10.724  1.00  0.00     0.034 C 
ENDBRANCH  19  20
ENDBRANCH  15  19
ENDBRANCH   8  11
ENDBRANCH   1   7
BRANCH   3  22
HETATM   22  N   UNL     1      41.115 -14.351   5.632  1.00  0.00    -0.320 N 
HETATM   23  C   UNL     1      41.408 -15.611   6.110  1.00  0.00     0.263 C 
HETATM   24  O   UNL     1      40.760 -16.035   7.067  1.00  0.00    -0.267 OA
HETATM   25  H   UNL     1      40.250 -13.986   5.997  1.00  0.00     0.169 HD
BRANCH  23  26
HETATM   26  C   UNL     1      42.388 -16.395   5.368  1.00  0.00     0.072 A 
HETATM   27  S   UNL     1      43.753 -17.040   6.179  1.00  0.00    -0.097 SA
HETATM   28  C   UNL     1      44.315 -17.813   4.760  1.00  0.00     0.050 A 
HETATM   29  C   UNL     1      43.486 -17.589   3.684  1.00  0.00     0.009 A 
HETATM   30  C   UNL     1      42.375 -16.771   4.034  1.00  0.00     0.025 A 
ENDBRANCH  23  26
ENDBRANCH   3  22
BRANCH   4  31
HETATM   31  N   UNL     1      41.153 -13.445   2.863  1.00  0.00    -0.378 N 
HETATM   32  C   UNL     1      39.699 -13.310   2.976  1.00  0.00     0.134 C 
HETATM   33  C   UNL     1      39.090 -12.739   1.676  1.00  0.00     0.054 C 
HETATM   34  C   UNL     1      39.493 -13.614   0.492  1.00  0.00     0.020 C 
HETATM   35  C   UNL     1      39.552 -11.304   1.490  1.00  0.00     0.020 A 
HETATM   36  C   UNL     1      41.011 -13.552   0.374  1.00  0.00     0.023 C 
HETATM   37  C   UNL     1      41.425 -12.112   0.050  1.00  0.00     0.138 C 
HETATM   38  C   UNL     1      41.676 -14.090   1.653  1.00  0.00     0.129 C 
HETATM   39  N   UNL     1      40.723 -11.050   0.773  1.00  0.00    -0.317 N 
HETATM   40  C   UNL     1      41.241  -9.759   0.626  1.00  0.00     0.247 A 
HETATM   41  O   UNL     1      42.250  -9.482  -0.018  1.00  0.00    -0.268 OA
HETATM   42  C   UNL     1      40.496  -8.668   1.306  1.00  0.00     0.074 A 
HETATM   43  C   UNL     1      39.367  -8.939   1.970  1.00  0.00     0.007 A 
HETATM   44  C   UNL     1      38.879 -10.288   2.059  1.00  0.00     0.026 A 
ENDBRANCH   4  31
TORSDOF 7
ENDMDL
MODEL 3
REMARK VINA RESULT:      -9.3      2.422      5.702
REMARK  7 active torsions:
REMARK  status: ('A' for Active; 'I' for Inactive)
REMARK    1  A    between atoms: C_2  and  O_3 
REMARK    2  A    between atoms: O_3  and  C_4 
REMARK       I    between atoms: C_4  and  N_5 
REMARK    3  A    between atoms: C_8  and  N_9 
REMARK       I    between atoms: N_9  and  C_10 
REMARK    4  A    between atoms: C_10  and  C_11 
REMARK    5  A    between atoms: C_13  and  N_14 
REMARK       I    between atoms: N_14  and  C_15 
REMARK    6  A    between atoms: C_15  and  C_16 
REMARK    7  A    between atoms: C_22  and  N_23 
ROOT
HETATM    1  C   UNL     1      41.892 -10.264   5.188  1.00  0.00     0.034 A 
HETATM    2  C   UNL     1      42.016 -10.192   3.799  1.00  0.00     0.049 A 
HETATM    3  C   UNL     1      42.045 -11.359   3.009  1.00  0.00     0.062 A 
HETATM    4  C   UNL     1      41.988 -12.642   3.604  1.00  0.00     0.057 A 
HETATM    5  C   UNL     1      41.869 -12.678   5.007  1.00  0.00     0.033 A 
HETATM    6  C   UNL     1      41.819 -11.518   5.787  1.00  0.00     0.019 A 
ENDROOT
BRANCH   1   7
HETATM    7  C   UNL     1      41.877  -9.054   6.065  1.00  0.00     0.252 C 
HETATM    8  N   UNL     1      42.313  -9.221   7.365  1.00  0.00    -0.352 N 
HETATM    9  H   UNL     1      42.825 -10.059   7.596  1.00  0.00     0.163 HD
HETATM   10  O   UNL     1      41.506  -7.974   5.619  1.00  0.00    -0.268 OA
BRANCH   8  11
HETATM   11  C   UNL     1      42.420  -8.099   8.292  1.00  0.00     0.087 C 
HETATM   12  C   UNL     1      41.142  -7.944   9.117  1.00  0.00     0.045 C 
HETATM   13  C   UNL     1      40.961  -9.072  10.125  1.00  0.00     0.130 C 
HETATM   14  N   UNL     1      42.161  -9.314  10.921  1.00  0.00    -0.328 N 
HETATM   15  C   UNL     1      42.080  -9.949  12.157  1.00  0.00     0.362 C 
HETATM   16  C   UNL     1      43.433  -9.395  10.213  1.00  0.00     0.130 C 
HETATM   17  O   UNL     1      43.049 -10.396  12.762  1.00  0.00    -0.238 OA
HETATM   18  C   UNL     1      43.628  -8.257   9.217  1.00  0.00     0.045 C 
BRANCH  15  19
HETATM   19  O   UNL     1      40.802 -10.023  12.620  1.00  0.00    -0.304 OA
BRANCH  19  20
HETATM   20  C   UNL     1      40.535  -9.354  13.860  1.00  0.00     0.176 C 
HETATM   21  C   UNL     1      40.231  -7.890  13.602  1.00  0.00     0.034 C 
ENDBRANCH  19  20
ENDBRANCH  15  19
ENDBRANCH   8  11
ENDBRANCH   1   7
BRANCH   3  22
HETATM   22  N   UNL     1      42.142 -11.222   1.604  1.00  0.00    -0.320 N 
HETATM   23  C   UNL     1      41.348 -10.439   0.793  1.00  0.00     0.263 C 
HETATM   24  O   UNL     1      41.882  -9.841  -0.141  1.00  0.00    -0.267 OA
HETATM   25  H   UNL     1      43.058 -11.382   1.217  1.00  0.00     0.169 HD
BRANCH  23  26
HETATM   26  C   UNL     1      39.910 -10.472   1.034  1.00  0.00     0.072 A 
HETATM   27  S   UNL     1      39.092  -9.042   1.501  1.00  0.00    -0.097 SA
HETATM   28  C   UNL     1      37.574  -9.831   1.511  1.00  0.00     0.050 A 
HETATM   29  C   UNL     1      37.680 -11.160   1.165  1.00  0.00     0.009 A 
HETATM   30  C   UNL     1      39.026 -11.530   0.891  1.00  0.00     0.025 A 
ENDBRANCH  23  26
ENDBRANCH   3  22
BRANCH   4  31
HETATM   31  N   UNL     1      41.982 -13.833   2.887  1.00  0.00    -0.378 N 
HETATM   32  C   UNL     1      43.210 -14.586   2.617  1.00  0.00     0.134 C 
HETATM   33  C   UNL     1      43.046 -16.074   3.000  1.00  0.00     0.054 C 
HETATM   34  C   UNL     1      41.842 -16.663   2.270  1.00  0.00     0.020 C 
HETATM   35  C   UNL     1      42.896 -16.194   4.506  1.00  0.00     0.020 A 
HETATM   36  C   UNL     1      40.606 -15.909   2.746  1.00  0.00     0.023 C 
HETATM   37  C   UNL     1      40.413 -16.170   4.244  1.00  0.00     0.138 C 
HETATM   38  C   UNL     1      40.721 -14.412   2.411  1.00  0.00     0.129 C 
HETATM   39  N   UNL     1      41.621 -16.153   5.073  1.00  0.00    -0.317 N 
HETATM   40  C   UNL     1      41.419 -16.187   6.457  1.00  0.00     0.247 A 
HETATM   41  O   UNL     1      40.317 -16.181   7.000  1.00  0.00    -0.268 OA
HETATM   42  C   UNL     1      42.641 -16.234   7.300  1.00  0.00     0.074 A 
HETATM   43  C   UNL     1      43.849 -16.292   6.730  1.00  0.00     0.007 A 
HETATM   44  C   UNL     1      43.981 -16.279   5.299  1.00  0.00     0.026 A 
ENDBRANCH   4  31
TORSDOF 7
ENDMDL
MODEL 4
REMARK VINA RESULT:      -9.1      2.105      5.321
REMARK  7 active torsions:
REMARK  status: ('A' for Active; 'I' for Inactive)
REMARK    1  A    between atoms: C_2  and  O_3 
REMARK    2  A    between atoms: O_3  and  C_4 
REMARK       I    between atoms: C_4  and  N_5 
REMARK    3  A    between atoms: C_8  and  N_9 
REMARK       I    between atoms: N_9  and  C_10 
REMARK    4  A    between atoms: C_10  and  C_11 
REMARK    5  A    between atoms: C_13  and  N_14 
REMARK       I    between atoms: N_14  and  C_15 
REMARK    6  A    between atoms: C_15  and  C_16 
REMARK    7  A    between atoms: C_22  and  N_23 
ROOT
HETATM    1  C   UNL     1      44.193 -11.563   5.997  1.00  0.00     0.034 A 
HETATM    2  C   UNL     1      43.510 -10.942   4.949  1.00  0.00     0.049 A 
HETATM    3  C   UNL     1      42.725 -11.689   4.048  1.00  0.00     0.062 A 
HETATM    4  C   UNL     1      42.635 -13.097   4.154  1.00  0.00     0.057 A 
HETATM    5  C   UNL     1      43.341 -13.692   5.218  1.00  0.00     0.033 A 
HETATM    6  C   UNL     1      44.103 -12.946   6.124  1.00  0.00     0.019 A 
ENDROOT
BRANCH   1   7
HETATM    7  C   UNL     1      45.053 -10.814   6.962  1.00  0.00     0.252 C 
HETATM    8  N   UNL     1      44.410  -9.962   7.840  1.00  0.00    -0.352 N 
HETATM    9  H   UNL     1      43.411 -10.052   7.950  1.00  0.00     0.163 HD
HETATM   10  O   UNL     1      46.268 -10.980   6.964  1.00  0.00    -0.268 OA
BRANCH   8  11
HETATM   11  C   UNL     1      45.132  -9.238   8.880  1.00  0.00     0.087 C 
HETATM   12  C   UNL     1      44.364  -7.988   9.312  1.00  0.00     0.045 C 
HETATM   13  C   UNL     1      43.098  -8.323  10.089  1.00  0.00     0.130 C 
HETATM   14  N   UNL     1      43.333  -9.281  11.165  1.00  0.00    -0.328 N 
HETATM   15  C   UNL     1      42.458  -9.371  12.243  1.00  0.00     0.362 C 
HETATM   16  C   UNL     1      44.128 -10.464  10.850  1.00  0.00     0.130 C 
HETATM   17  O   UNL     1      42.456 -10.298  13.047  1.00  0.00    -0.238 OA
HETATM   18  C   UNL     1      45.407 -10.131  10.090  1.00  0.00     0.045 C 
BRANCH  15  19
HETATM   19  O   UNL     1      41.600  -8.317  12.305  1.00  0.00    -0.304 OA
BRANCH  19  20
HETATM   20  C   UNL     1      41.542  -7.618  13.555  1.00  0.00     0.176 C 
HETATM   21  C   UNL     1      42.913  -7.070  13.906  1.00  0.00     0.034 C 
ENDBRANCH  19  20
ENDBRANCH  15  19
ENDBRANCH   8  11
ENDBRANCH   1   7
BRANCH   3  22
HETATM   22  N   UNL     1      42.031 -10.999   3.024  1.00  0.00    -0.320 N 
HETATM   23  C   UNL     1      41.221  -9.894   3.174  1.00  0.00     0.263 C 
HETATM   24  O   UNL     1      41.277  -9.012   2.317  1.00  0.00    -0.267 OA
HETATM   25  H   UNL     1      42.443 -11.061   2.107  1.00  0.00     0.169 HD
BRANCH  23  26
HETATM   26  C   UNL     1      40.271  -9.907   4.280  1.00  0.00     0.072 A 
HETATM   27  S   UNL     1      40.428  -8.769   5.552  1.00  0.00    -0.097 SA
HETATM   28  C   UNL     1      39.022  -9.347   6.335  1.00  0.00     0.050 A 
HETATM   29  C   UNL     1      38.437 -10.387   5.648  1.00  0.00     0.009 A 
HETATM   30  C   UNL     1      39.157 -10.710   4.464  1.00  0.00     0.025 A 
ENDBRANCH  23  26
ENDBRANCH   3  22
BRANCH   4  31
HETATM   31  N   UNL     1      41.858 -13.893   3.321  1.00  0.00    -0.378 N 
HETATM   32  C   UNL     1      42.419 -14.582   2.156  1.00  0.00     0.134 C 
HETATM   33  C   UNL     1      42.027 -16.077   2.151  1.00  0.00     0.054 C 
HETATM   34  C   UNL     1      40.508 -16.210   2.217  1.00  0.00     0.020 C 
HETATM   35  C   UNL     1      42.698 -16.779   3.318  1.00  0.00     0.020 A 
HETATM   36  C   UNL     1      40.054 -15.602   3.539  1.00  0.00     0.023 C 
HETATM   37  C   UNL     1      40.642 -16.425   4.690  1.00  0.00     0.138 C 
HETATM   38  C   UNL     1      40.438 -14.114   3.612  1.00  0.00     0.129 C 
HETATM   39  N   UNL     1      42.035 -16.853   4.545  1.00  0.00    -0.317 N 
HETATM   40  C   UNL     1      42.626 -17.422   5.678  1.00  0.00     0.247 A 
HETATM   41  O   UNL     1      42.074 -17.535   6.769  1.00  0.00    -0.268 OA
HETATM   42  C   UNL     1      44.018 -17.916   5.517  1.00  0.00     0.074 A 
HETATM   43  C   UNL     1      44.622 -17.849   4.326  1.00  0.00     0.007 A 
HETATM   44  C   UNL     1      43.944 -17.273   3.197  1.00  0.00     0.026 A 
ENDBRANCH   4  31
TORSDOF 7
ENDMDL
MODEL 5
REMARK VINA RESULT:      -8.9      2.746      5.829
REMARK  7 active torsions:
REMARK  status: ('A' for Active; 'I' for Inactive)
REMARK    1  A    between atoms: C_2  and  O_3 
REMARK    2  A    between atoms: O_3  and  C_4 
REMARK       I    between atoms: C_4  and  N_5 
REMARK    3  A    between atoms: C_8  and  N_9 
REMARK       I    between atoms: N_9  and  C_10 
REMARK    4  A    between atoms: C_10  and  C_11 
REMARK    5  A    between atoms: C_13  and  N_14 
REMARK       I    between atoms: N_14  and  C_15 
REMARK    6  A    between atoms: C_15  and  C_16 
REMARK    7  A    between atoms: C_22  and  N_23 
ROOT
HETATM    1  C   UNL     1      40.201 -10.202   5.183  1.00  0.00     0.034 A 
HETATM    2  C   UNL     1      40.920  -9.923   4.017  1.00  0.00     0.049 A 
HETATM    3  C   UNL     1      41.413 -10.960   3.200  1.00  0.00     0.062 A 
HETATM    4  C   UNL     1      41.228 -12.318   3.556  1.00  0.00     0.057 A 
HETATM    5  C   UNL     1      40.505 -12.563   4.739  1.00  0.00     0.033 A 
HETATM    6  C   UNL     1      39.998 -11.532   5.539  1.00  0.00     0.019 A 
ENDROOT
BRANCH   1   7
HETATM    7  C   UNL     1      39.678  -9.135   6.088  1.00  0.00     0.252 C 
HETATM    8  N   UNL     1      40.209  -9.083   7.363  1.00  0.00    -0.352 N 
HETATM    9  H   UNL     1      41.060  -9.592   7.550  1.00  0.00     0.163 HD
HETATM   10  O   UNL     1      38.830  -8.346   5.686  1.00  0.00    -0.268 OA
BRANCH   8  11
HETATM   11  C   UNL     1      39.837  -8.039   8.312  1.00  0.00     0.087 C 
HETATM   12  C   UNL     1      39.288  -8.642   9.605  1.00  0.00     0.045 C 
HETATM   13  C   UNL     1      40.366  -9.337  10.426  1.00  0.00     0.130 C 
HETATM   14  N   UNL     1      41.556  -8.510  10.609  1.00  0.00    -0.328 N 
HETATM   15  C   UNL     1      42.433  -8.748  11.663  1.00  0.00     0.362 C 
HETATM   16  C   UNL     1      42.094  -7.835   9.433  1.00  0.00     0.130 C 
HETATM   17  O   UNL     1      43.557  -8.262  11.741  1.00  0.00    -0.238 OA
HETATM   18  C   UNL     1      41.020  -7.121   8.619  1.00  0.00     0.045 C 
BRANCH  15  19
HETATM   19  O   UNL     1      41.906  -9.585  12.598  1.00  0.00    -0.304 OA
BRANCH  19  20
HETATM   20  C   UNL     1      42.040  -9.174  13.965  1.00  0.00     0.176 C 
HETATM   21  C   UNL     1      41.088  -8.028  14.256  1.00  0.00     0.034 C 
ENDBRANCH  19  20
ENDBRANCH  15  19
ENDBRANCH   8  11
ENDBRANCH   1   7
BRANCH   3  22
HETATM   22  N   UNL     1      42.107 -10.614   2.016  1.00  0.00    -0.320 N 
HETATM   23  C   UNL     1      41.554 -10.176   0.832  1.00  0.00     0.263 C 
HETATM   24  O   UNL     1      42.138  -9.287   0.212  1.00  0.00    -0.267 OA
HETATM   25  H   UNL     1      43.053 -10.296   2.148  1.00  0.00     0.169 HD
BRANCH  23  26
HETATM   26  C   UNL     1      40.375 -10.881   0.342  1.00  0.00     0.072 A 
HETATM   27  S   UNL     1      40.520 -11.972  -0.971  1.00  0.00    -0.097 SA
HETATM   28  C   UNL     1      38.865 -12.397  -0.889  1.00  0.00     0.050 A 
HETATM   29  C   UNL     1      38.207 -11.726   0.117  1.00  0.00     0.009 A 
HETATM   30  C   UNL     1      39.077 -10.852   0.827  1.00  0.00     0.025 A 
ENDBRANCH  23  26
ENDBRANCH   3  22
BRANCH   4  31
HETATM   31  N   UNL     1      41.661 -13.390   2.785  1.00  0.00    -0.378 N 
HETATM   32  C   UNL     1      43.065 -13.806   2.747  1.00  0.00     0.134 C 
HETATM   33  C   UNL     1      43.202 -15.325   2.993  1.00  0.00     0.054 C 
HETATM   34  C   UNL     1      42.352 -16.089   1.982  1.00  0.00     0.020 C 
HETATM   35  C   UNL     1      42.791 -15.644   4.419  1.00  0.00     0.020 A 
HETATM   36  C   UNL     1      40.898 -15.697   2.219  1.00  0.00     0.023 C 
HETATM   37  C   UNL     1      40.483 -16.161   3.620  1.00  0.00     0.138 C 
HETATM   38  C   UNL     1      40.703 -14.185   2.009  1.00  0.00     0.129 C 
HETATM   39  N   UNL     1      41.458 -15.960   4.693  1.00  0.00    -0.317 N 
HETATM   40  C   UNL     1      41.000 -16.195   5.994  1.00  0.00     0.247 A 
HETATM   41  O   UNL     1      39.846 -16.503   6.281  1.00  0.00    -0.268 OA
HETATM   42  C   UNL     1      42.003 -16.054   7.081  1.00  0.00     0.074 A 
HETATM   43  C   UNL     1      43.276 -15.769   6.788  1.00  0.00     0.007 A 
HETATM   44  C   UNL     1      43.682 -15.566   5.424  1.00  0.00     0.026 A 
ENDBRANCH   4  31
TORSDOF 7
ENDMDL
MODEL 6
REMARK VINA RESULT:      -8.7      3.062     10.467
REMARK  7 active torsions:
REMARK  status: ('A' for Active; 'I' for Inactive)
REMARK    1  A    between atoms: C_2  and  O_3 
REMARK    2  A    between atoms: O_3  and  C_4 
REMARK       I    between atoms: C_4  and  N_5 
REMARK    3  A    between atoms: C_8  and  N_9 
REMARK       I    between atoms: N_9  and  C_10 
REMARK    4  A    between atoms: C_10  and  C_11 
REMARK    5  A    between atoms: C_13  and  N_14 
REMARK       I    between atoms: N_14  and  C_15 
REMARK    6  A    between atoms: C_15  and  C_16 
REMARK    7  A    between atoms: C_22  and  N_23 
ROOT
HETATM    1  C   UNL     1      40.191  -8.336   8.675  1.00  0.00     0.034 A 
HETATM    2  C   UNL     1      40.948  -9.409   9.152  1.00  0.00     0.049 A 
HETATM    3  C   UNL     1      41.484  -9.400  10.455  1.00  0.00     0.062 A 
HETATM    4  C   UNL     1      41.305  -8.285  11.308  1.00  0.00     0.057 A 
HETATM    5  C   UNL     1      40.542  -7.218  10.794  1.00  0.00     0.033 A 
HETATM    6  C   UNL     1      39.993  -7.238   9.507  1.00  0.00     0.019 A 
ENDROOT
BRANCH   1   7
HETATM    7  C   UNL     1      39.621  -8.294   7.295  1.00  0.00     0.252 C 
HETATM    8  N   UNL     1      40.282  -9.022   6.324  1.00  0.00    -0.352 N 
HETATM    9  H   UNL     1      40.957  -9.712   6.618  1.00  0.00     0.163 HD
HETATM   10  O   UNL     1      38.603  -7.650   7.067  1.00  0.00    -0.268 OA
BRANCH   8  11
HETATM   11  C   UNL     1      39.778  -9.124   4.958  1.00  0.00     0.087 C 
HETATM   12  C   UNL     1      40.925  -9.286   3.961  1.00  0.00     0.045 C 
HETATM   13  C   UNL     1      41.601 -10.647   4.068  1.00  0.00     0.130 C 
HETATM   14  N   UNL     1      40.647 -11.752   4.067  1.00  0.00    -0.328 N 
HETATM   15  C   UNL     1      41.044 -13.036   3.706  1.00  0.00     0.362 C 
HETATM   16  C   UNL     1      39.481 -11.635   4.936  1.00  0.00     0.130 C 
HETATM   17  O   UNL     1      40.372 -14.043   3.909  1.00  0.00    -0.238 OA
HETATM   18  C   UNL     1      38.789 -10.281   4.817  1.00  0.00     0.045 C 
BRANCH  15  19
HETATM   19  O   UNL     1      42.264 -13.052   3.103  1.00  0.00    -0.304 OA
BRANCH  19  20
HETATM   20  C   UNL     1      42.332 -13.696   1.824  1.00  0.00     0.176 C 
HETATM   21  C   UNL     1      43.244 -14.907   1.903  1.00  0.00     0.034 C 
ENDBRANCH  19  20
ENDBRANCH  15  19
ENDBRANCH   8  11
ENDBRANCH   1   7
BRANCH   3  22
HETATM   22  N   UNL     1      42.216 -10.530  10.891  1.00  0.00    -0.320 N 
HETATM   23  C   UNL     1      43.588 -10.655  10.945  1.00  0.00     0.263 C 
HETATM   24  O   UNL     1      44.081 -11.245  11.907  1.00  0.00    -0.267 OA
HETATM   25  H   UNL     1      41.743 -11.120  11.556  1.00  0.00     0.169 HD
BRANCH  23  26
HETATM   26  C   UNL     1      44.348 -10.180   9.794  1.00  0.00     0.072 A 
HETATM   27  S   UNL     1      44.272 -11.036   8.311  1.00  0.00    -0.097 SA
HETATM   28  C   UNL     1      45.283  -9.901   7.526  1.00  0.00     0.050 A 
HETATM   29  C   UNL     1      45.676  -8.886   8.370  1.00  0.00     0.009 A 
HETATM   30  C   UNL     1      45.137  -9.047   9.677  1.00  0.00     0.025 A 
ENDBRANCH  23  26
ENDBRANCH   3  22
BRANCH   4  31
HETATM   31  N   UNL     1      41.779  -8.219  12.613  1.00  0.00    -0.378 N 
HETATM   32  C   UNL     1      43.041  -7.556  12.950  1.00  0.00     0.134 C 
HETATM   33  C   UNL     1      42.853  -6.561  14.117  1.00  0.00     0.054 C 
HETATM   34  C   UNL     1      42.248  -7.284  15.317  1.00  0.00     0.020 C 
HETATM   35  C   UNL     1      41.975  -5.409  13.661  1.00  0.00     0.020 A 
HETATM   36  C   UNL     1      40.874  -7.793  14.899  1.00  0.00     0.023 C 
HETATM   37  C   UNL     1      39.977  -6.592  14.580  1.00  0.00     0.138 C 
HETATM   38  C   UNL     1      40.996  -8.776  13.721  1.00  0.00     0.129 C 
HETATM   39  N   UNL     1      40.591  -5.497  13.825  1.00  0.00    -0.317 N 
HETATM   40  C   UNL     1      39.721  -4.504  13.363  1.00  0.00     0.247 A 
HETATM   41  O   UNL     1      38.501  -4.523  13.509  1.00  0.00    -0.268 OA
HETATM   42  C   UNL     1      40.347  -3.359  12.653  1.00  0.00     0.074 A 
HETATM   43  C   UNL     1      41.676  -3.292  12.527  1.00  0.00     0.007 A 
HETATM   44  C   UNL     1      42.511  -4.338  13.049  1.00  0.00     0.026 A 
ENDBRANCH   4  31
TORSDOF 7
ENDMDL
MODEL 7
REMARK VINA RESULT:      -8.2      2.568      9.590
REMARK  7 active torsions:
REMARK  status: ('A' for Active; 'I' for Inactive)
REMARK    1  A    between atoms: C_2  and  O_3 
REMARK    2  A    between atoms: O_3  and  C_4 
REMARK       I    between atoms: C_4  and  N_5 
REMARK    3  A    between atoms: C_8  and  N_9 
REMARK       I    between atoms: N_9  and  C_10 
REMARK    4  A    between atoms: C_10  and  C_11 
REMARK    5  A    between atoms: C_13  and  N_14 
REMARK       I    between atoms: N_14  and  C_15 
REMARK    6  A    between atoms: C_15  and  C_16 
REMARK    7  A    between atoms: C_22  and  N_23 
ROOT
HETATM    1  C   UNL     1      40.025  -9.930   6.231  1.00  0.00     0.034 A 
HETATM    2  C   UNL     1      41.372 -10.205   5.981  1.00  0.00     0.049 A 
HETATM    3  C   UNL     1      42.355  -9.989   6.966  1.00  0.00     0.062 A 
HETATM    4  C   UNL     1      42.013  -9.448   8.229  1.00  0.00     0.057 A 
HETATM    5  C   UNL     1      40.649  -9.177   8.447  1.00  0.00     0.033 A 
HETATM    6  C   UNL     1      39.671  -9.412   7.474  1.00  0.00     0.019 A 
ENDROOT
BRANCH   1   7
HETATM    7  C   UNL     1      38.953 -10.125   5.210  1.00  0.00     0.252 C 
HETATM    8  N   UNL     1      39.363 -10.361   3.912  1.00  0.00    -0.352 N 
HETATM    9  H   UNL     1      40.326 -10.618   3.752  1.00  0.00     0.163 HD
HETATM   10  O   UNL     1      37.773 -10.089   5.540  1.00  0.00    -0.268 OA
BRANCH   8  11
HETATM   11  C   UNL     1      38.413 -10.646   2.842  1.00  0.00     0.087 C 
HETATM   12  C   UNL     1      38.838  -9.974   1.536  1.00  0.00     0.045 C 
HETATM   13  C   UNL     1      40.079 -10.616   0.930  1.00  0.00     0.130 C 
HETATM   14  N   UNL     1      39.980 -12.070   0.849  1.00  0.00    -0.328 N 
HETATM   15  C   UNL     1      40.761 -12.789  -0.051  1.00  0.00     0.362 C 
HETATM   16  C   UNL     1      39.504 -12.779   2.032  1.00  0.00     0.130 C 
HETATM   17  O   UNL     1      40.908 -14.006  -0.009  1.00  0.00    -0.238 OA
HETATM   18  C   UNL     1      38.249 -12.152   2.631  1.00  0.00     0.045 C 
BRANCH  15  19
HETATM   19  O   UNL     1      41.350 -11.989  -0.982  1.00  0.00    -0.304 OA
BRANCH  19  20
HETATM   20  C   UNL     1      40.806 -12.051  -2.307  1.00  0.00     0.176 C 
HETATM   21  C   UNL     1      40.829 -10.673  -2.941  1.00  0.00     0.034 C 
ENDBRANCH  19  20
ENDBRANCH  15  19
ENDBRANCH   8  11
ENDBRANCH   1   7
BRANCH   3  22
HETATM   22  N   UNL     1      43.699 -10.315   6.663  1.00  0.00    -0.320 N 
HETATM   23  C   UNL     1      44.138 -11.350   5.865  1.00  0.00     0.263 C 
HETATM   24  O   UNL     1      45.097 -11.144   5.121  1.00  0.00    -0.267 OA
HETATM   25  H   UNL     1      44.348  -9.547   6.701  1.00  0.00     0.169 HD
BRANCH  23  26
HETATM   26  C   UNL     1      43.504 -12.650   6.048  1.00  0.00     0.072 A 
HETATM   27  S   UNL     1      42.721 -13.410   4.726  1.00  0.00    -0.097 SA
HETATM   28  C   UNL     1      42.341 -14.793   5.658  1.00  0.00     0.050 A 
HETATM   29  C   UNL     1      42.798 -14.687   6.953  1.00  0.00     0.009 A 
HETATM   30  C   UNL     1      43.468 -13.452   7.178  1.00  0.00     0.025 A 
ENDBRANCH  23  26
ENDBRANCH   3  22
BRANCH   4  31
HETATM   31  N   UNL     1      42.925  -9.236   9.257  1.00  0.00    -0.378 N 
HETATM   32  C   UNL     1      43.336  -7.891   9.668  1.00  0.00     0.134 C 
HETATM   33  C   UNL     1      43.214  -7.715  11.199  1.00  0.00     0.054 C 
HETATM   34  C   UNL     1      44.018  -8.801  11.907  1.00  0.00     0.020 C 
HETATM   35  C   UNL     1      41.749  -7.759  11.596  1.00  0.00     0.020 A 
HETATM   36  C   UNL     1      43.403 -10.143  11.532  1.00  0.00     0.023 C 
HETATM   37  C   UNL     1      41.970 -10.200  12.072  1.00  0.00     0.138 C 
HETATM   38  C   UNL     1      43.476 -10.367  10.011  1.00  0.00     0.129 C 
HETATM   39  N   UNL     1      41.166  -8.984  11.929  1.00  0.00    -0.317 N 
HETATM   40  C   UNL     1      39.807  -9.104  12.234  1.00  0.00     0.247 A 
HETATM   41  O   UNL     1      39.256 -10.152  12.559  1.00  0.00    -0.268 OA
HETATM   42  C   UNL     1      39.001  -7.859  12.152  1.00  0.00     0.074 A 
HETATM   43  C   UNL     1      39.588  -6.696  11.849  1.00  0.00     0.007 A 
HETATM   44  C   UNL     1      40.997  -6.643  11.570  1.00  0.00     0.026 A 
ENDBRANCH   4  31
TORSDOF 7
ENDMDL
MODEL 8
REMARK VINA RESULT:      -8.1      4.656     10.242
REMARK  7 active torsions:
REMARK  status: ('A' for Active; 'I' for Inactive)
REMARK    1  A    between atoms: C_2  and  O_3 
REMARK    2  A    between atoms: O_3  and  C_4 
REMARK       I    between atoms: C_4  and  N_5 
REMARK    3  A    between atoms: C_8  and  N_9 
REMARK       I    between atoms: N_9  and  C_10 
REMARK    4  A    between atoms: C_10  and  C_11 
REMARK    5  A    between atoms: C_13  and  N_14 
REMARK       I    between atoms: N_14  and  C_15 
REMARK    6  A    between atoms: C_15  and  C_16 
REMARK    7  A    between atoms: C_22  and  N_23 
ROOT
HETATM    1  C   UNL     1      41.277 -10.184   0.744  1.00  0.00     0.034 A 
HETATM    2  C   UNL     1      41.081 -11.085  -0.306  1.00  0.00     0.049 A 
HETATM    3  C   UNL     1      41.227 -12.473  -0.112  1.00  0.00     0.062 A 
HETATM    4  C   UNL     1      41.616 -12.995   1.145  1.00  0.00     0.057 A 
HETATM    5  C   UNL     1      41.811 -12.059   2.180  1.00  0.00     0.033 A 
HETATM    6  C   UNL     1      41.645 -10.683   1.990  1.00  0.00     0.019 A 
ENDROOT
BRANCH   1   7
HETATM    7  C   UNL     1      41.153  -8.705   0.578  1.00  0.00     0.252 C 
HETATM    8  N   UNL     1      41.898  -8.125  -0.430  1.00  0.00    -0.352 N 
HETATM    9  H   UNL     1      42.298  -8.724  -1.137  1.00  0.00     0.163 HD
HETATM   10  O   UNL     1      40.403  -8.063   1.306  1.00  0.00    -0.268 OA
BRANCH   8  11
HETATM   11  C   UNL     1      41.801  -6.702  -0.742  1.00  0.00     0.087 C 
HETATM   12  C   UNL     1      43.058  -6.210  -1.458  1.00  0.00     0.045 C 
HETATM   13  C   UNL     1      43.172  -6.757  -2.875  1.00  0.00     0.130 C 
HETATM   14  N   UNL     1      41.942  -6.592  -3.644  1.00  0.00    -0.328 N 
HETATM   15  C   UNL     1      41.966  -6.596  -5.035  1.00  0.00     0.362 C 
HETATM   16  C   UNL     1      40.689  -6.965  -2.997  1.00  0.00     0.130 C 
HETATM   17  O   UNL     1      40.964  -6.703  -5.737  1.00  0.00    -0.238 OA
HETATM   18  C   UNL     1      40.562  -6.402  -1.586  1.00  0.00     0.045 C 
BRANCH  15  19
HETATM   19  O   UNL     1      43.226  -6.472  -5.534  1.00  0.00    -0.304 OA
BRANCH  19  20
HETATM   20  C   UNL     1      43.368  -5.658  -6.706  1.00  0.00     0.176 C 
HETATM   21  C   UNL     1      43.724  -6.526  -7.898  1.00  0.00     0.034 C 
ENDBRANCH  19  20
ENDBRANCH  15  19
ENDBRANCH   8  11
ENDBRANCH   1   7
BRANCH   3  22
HETATM   22  N   UNL     1      40.985 -13.337  -1.206  1.00  0.00    -0.320 N 
HETATM   23  C   UNL     1      40.465 -12.990  -2.435  1.00  0.00     0.263 C 
HETATM   24  O   UNL     1      40.937 -13.525  -3.438  1.00  0.00    -0.267 OA
HETATM   25  H   UNL     1      41.569 -14.156  -1.246  1.00  0.00     0.169 HD
BRANCH  23  26
HETATM   26  C   UNL     1      39.312 -12.097  -2.444  1.00  0.00     0.072 A 
HETATM   27  S   UNL     1      37.871 -12.558  -1.640  1.00  0.00    -0.097 SA
HETATM   28  C   UNL     1      37.103 -11.079  -2.021  1.00  0.00     0.050 A 
HETATM   29  C   UNL     1      37.921 -10.242  -2.747  1.00  0.00     0.009 A 
HETATM   30  C   UNL     1      39.195 -10.830  -2.992  1.00  0.00     0.025 A 
ENDBRANCH  23  26
ENDBRANCH   3  22
BRANCH   4  31
HETATM   31  N   UNL     1      41.750 -14.351   1.416  1.00  0.00    -0.378 N 
HETATM   32  C   UNL     1      43.034 -14.946   1.797  1.00  0.00     0.134 C 
HETATM   33  C   UNL     1      42.892 -15.811   3.070  1.00  0.00     0.054 C 
HETATM   34  C   UNL     1      41.812 -16.868   2.855  1.00  0.00     0.020 C 
HETATM   35  C   UNL     1      42.566 -14.916   4.253  1.00  0.00     0.020 A 
HETATM   36  C   UNL     1      40.495 -16.136   2.626  1.00  0.00     0.023 C 
HETATM   37  C   UNL     1      40.135 -15.356   3.895  1.00  0.00     0.138 C 
HETATM   38  C   UNL     1      40.583 -15.239   1.379  1.00  0.00     0.129 C 
HETATM   39  N   UNL     1      41.231 -14.655   4.567  1.00  0.00    -0.317 N 
HETATM   40  C   UNL     1      40.865 -13.785   5.599  1.00  0.00     0.247 A 
HETATM   41  O   UNL     1      39.706 -13.546   5.931  1.00  0.00    -0.268 OA
HETATM   42  C   UNL     1      41.977 -13.120   6.326  1.00  0.00     0.074 A 
HETATM   43  C   UNL     1      43.246 -13.403   6.016  1.00  0.00     0.007 A 
HETATM   44  C   UNL     1      43.549 -14.328   4.959  1.00  0.00     0.026 A 
ENDBRANCH   4  31
TORSDOF 7
ENDMDL
MODEL 9
REMARK VINA RESULT:      -7.9     18.185     20.598
REMARK  7 active torsions:
REMARK  status: ('A' for Active; 'I' for Inactive)
REMARK    1  A    between atoms: C_2  and  O_3 
REMARK    2  A    between atoms: O_3  and  C_4 
REMARK       I    between atoms: C_4  and  N_5 
REMARK    3  A    between atoms: C_8  and  N_9 
REMARK       I    between atoms: N_9  and  C_10 
REMARK    4  A    between atoms: C_10  and  C_11 
REMARK    5  A    between atoms: C_13  and  N_14 
REMARK       I    between atoms: N_14  and  C_15 
REMARK    6  A    between atoms: C_15  and  C_16 
REMARK    7  A    between atoms: C_22  and  N_23 
ROOT
HETATM    1  C   UNL     1      44.858 -32.482   2.600  1.00  0.00     0.034 A 
HETATM    2  C   UNL     1      45.376 -31.231   2.942  1.00  0.00     0.049 A 
HETATM    3  C   UNL     1      45.598 -30.242   1.962  1.00  0.00     0.062 A 
HETATM    4  C   UNL     1      45.338 -30.501   0.595  1.00  0.00     0.057 A 
HETATM    5  C   UNL     1      44.822 -31.774   0.285  1.00  0.00     0.033 A 
HETATM    6  C   UNL     1      44.583 -32.747   1.262  1.00  0.00     0.019 A 
ENDROOT
BRANCH   1   7
HETATM    7  C   UNL     1      44.626 -33.566   3.602  1.00  0.00     0.252 C 
HETATM    8  N   UNL     1      44.407 -33.172   4.908  1.00  0.00    -0.352 N 
HETATM    9  H   UNL     1      44.186 -32.204   5.087  1.00  0.00     0.163 HD
HETATM   10  O   UNL     1      44.619 -34.740   3.250  1.00  0.00    -0.268 OA
BRANCH   8  11
HETATM   11  C   UNL     1      44.091 -34.132   5.960  1.00  0.00     0.087 C 
HETATM   12  C   UNL     1      44.784 -33.758   7.271  1.00  0.00     0.045 C 
HETATM   13  C   UNL     1      44.194 -32.505   7.904  1.00  0.00     0.130 C 
HETATM   14  N   UNL     1      42.737 -32.550   7.990  1.00  0.00    -0.328 N 
HETATM   15  C   UNL     1      42.053 -31.759   8.909  1.00  0.00     0.362 C 
HETATM   16  C   UNL     1      42.006 -32.975   6.802  1.00  0.00     0.130 C 
HETATM   17  O   UNL     1      40.842 -31.565   8.877  1.00  0.00    -0.238 OA
HETATM   18  C   UNL     1      42.581 -34.241   6.176  1.00  0.00     0.045 C 
BRANCH  15  19
HETATM   19  O   UNL     1      42.879 -31.221   9.847  1.00  0.00    -0.304 OA
BRANCH  19  20
HETATM   20  C   UNL     1      42.658 -31.636  11.201  1.00  0.00     0.176 C 
HETATM   21  C   UNL     1      43.183 -30.582  12.158  1.00  0.00     0.034 C 
ENDBRANCH  19  20
ENDBRANCH  15  19
ENDBRANCH   8  11
ENDBRANCH   1   7
BRANCH   3  22
HETATM   22  N   UNL     1      46.097 -28.983   2.374  1.00  0.00    -0.320 N 
HETATM   23  C   UNL     1      47.415 -28.579   2.386  1.00  0.00     0.263 C 
HETATM   24  O   UNL     1      47.672 -27.423   2.052  1.00  0.00    -0.267 OA
HETATM   25  H   UNL     1      45.453 -28.214   2.286  1.00  0.00     0.169 HD
BRANCH  23  26
HETATM   26  C   UNL     1      48.398 -29.523   2.906  1.00  0.00     0.072 A 
HETATM   27  S   UNL     1      49.403 -30.390   1.823  1.00  0.00    -0.097 SA
HETATM   28  C   UNL     1      50.243 -31.151   3.104  1.00  0.00     0.050 A 
HETATM   29  C   UNL     1      49.774 -30.757   4.337  1.00  0.00     0.009 A 
HETATM   30  C   UNL     1      48.710 -29.819   4.224  1.00  0.00     0.025 A 
ENDBRANCH  23  26
ENDBRANCH   3  22
BRANCH   4  31
HETATM   31  N   UNL     1      45.506 -29.565  -0.419  1.00  0.00    -0.378 N 
HETATM   32  C   UNL     1      46.817 -29.279  -1.007  1.00  0.00     0.134 C 
HETATM   33  C   UNL     1      46.761 -29.340  -2.550  1.00  0.00     0.054 C 
HETATM   34  C   UNL     1      45.684 -28.388  -3.063  1.00  0.00     0.020 C 
HETATM   35  C   UNL     1      46.495 -30.770  -2.989  1.00  0.00     0.020 A 
HETATM   36  C   UNL     1      44.347 -28.875  -2.518  1.00  0.00     0.023 C 
HETATM   37  C   UNL     1      44.052 -30.264  -3.096  1.00  0.00     0.138 C 
HETATM   38  C   UNL     1      44.350 -28.857  -0.979  1.00  0.00     0.129 C 
HETATM   39  N   UNL     1      45.177 -31.199  -3.160  1.00  0.00    -0.317 N 
HETATM   40  C   UNL     1      44.861 -32.520  -3.494  1.00  0.00     0.247 A 
HETATM   41  O   UNL     1      43.722 -32.938  -3.682  1.00  0.00    -0.268 OA
HETATM   42  C   UNL     1      46.006 -33.459  -3.623  1.00  0.00     0.074 A 
HETATM   43  C   UNL     1      47.258 -33.016  -3.472  1.00  0.00     0.007 A 
HETATM   44  C   UNL     1      47.510 -31.637  -3.154  1.00  0.00     0.026 A 
ENDBRANCH   4  31
TORSDOF 7
ENDMDL
MODEL 10
REMARK VINA RESULT:      -7.9     18.632     20.632
REMARK  7 active torsions:
REMARK  status: ('A' for Active; 'I' for Inactive)
REMARK    1  A    between atoms: C_2  and  O_3 
REMARK    2  A    between atoms: O_3  and  C_4 
REMARK       I    between atoms: C_4  and  N_5 
REMARK    3  A    between atoms: C_8  and  N_9 
REMARK       I    between atoms: N_9  and  C_10 
REMARK    4  A    between atoms: C_10  and  C_11 
REMARK    5  A    between atoms: C_13  and  N_14 
REMARK       I    between atoms: N_14  and  C_15 
REMARK    6  A    between atoms: C_15  and  C_16 
REMARK    7  A    between atoms: C_22  and  N_23 
ROOT
HETATM    1  C   UNL     1      42.552 -31.286   1.812  1.00  0.00     0.034 A 
HETATM    2  C   UNL     1      43.479 -30.643   2.635  1.00  0.00     0.049 A 
HETATM    3  C   UNL     1      44.682 -30.126   2.113  1.00  0.00     0.062 A 
HETATM    4  C   UNL     1      45.005 -30.279   0.743  1.00  0.00     0.057 A 
HETATM    5  C   UNL     1      44.052 -30.937  -0.057  1.00  0.00     0.033 A 
HETATM    6  C   UNL     1      42.848 -31.431   0.460  1.00  0.00     0.019 A 
ENDROOT
BRANCH   1   7
HETATM    7  C   UNL     1      41.275 -31.866   2.326  1.00  0.00     0.252 C 
HETATM    8  N   UNL     1      41.367 -32.713   3.414  1.00  0.00    -0.352 N 
HETATM    9  H   UNL     1      42.225 -32.721   3.944  1.00  0.00     0.163 HD
HETATM   10  O   UNL     1      40.207 -31.572   1.798  1.00  0.00    -0.268 OA
BRANCH   8  11
HETATM   11  C   UNL     1      40.184 -33.277   4.055  1.00  0.00     0.087 C 
HETATM   12  C   UNL     1      40.552 -34.477   4.928  1.00  0.00     0.045 C 
HETATM   13  C   UNL     1      41.328 -34.072   6.174  1.00  0.00     0.130 C 
HETATM   14  N   UNL     1      40.697 -32.975   6.901  1.00  0.00    -0.328 N 
HETATM   15  C   UNL     1      40.967 -32.764   8.250  1.00  0.00     0.362 C 
HETATM   16  C   UNL     1      40.244 -31.826   6.125  1.00  0.00     0.130 C 
HETATM   17  O   UNL     1      40.669 -31.740   8.856  1.00  0.00    -0.238 OA
HETATM   18  C   UNL     1      39.448 -32.226   4.887  1.00  0.00     0.045 C 
BRANCH  15  19
HETATM   19  O   UNL     1      41.605 -33.821   8.823  1.00  0.00    -0.304 OA
BRANCH  19  20
HETATM   20  C   UNL     1      42.746 -33.511   9.634  1.00  0.00     0.176 C 
HETATM   21  C   UNL     1      43.971 -33.328   8.757  1.00  0.00     0.034 C 
ENDBRANCH  19  20
ENDBRANCH  15  19
ENDBRANCH   8  11
ENDBRANCH   1   7
BRANCH   3  22
HETATM   22  N   UNL     1      45.567 -29.458   2.991  1.00  0.00    -0.320 N 
HETATM   23  C   UNL     1      46.733 -29.959   3.530  1.00  0.00     0.263 C 
HETATM   24  O   UNL     1      47.701 -29.205   3.626  1.00  0.00    -0.267 OA
HETATM   25  H   UNL     1      45.570 -28.454   2.919  1.00  0.00     0.169 HD
BRANCH  23  26
HETATM   26  C   UNL     1      46.696 -31.320   4.053  1.00  0.00     0.072 A 
HETATM   27  S   UNL     1      47.397 -32.598   3.154  1.00  0.00    -0.097 SA
HETATM   28  C   UNL     1      47.036 -33.745   4.370  1.00  0.00     0.050 A 
HETATM   29  C   UNL     1      46.393 -33.173   5.446  1.00  0.00     0.009 A 
HETATM   30  C   UNL     1      46.197 -31.776   5.263  1.00  0.00     0.025 A 
ENDBRANCH  23  26
ENDBRANCH   3  22
BRANCH   4  31
HETATM   31  N   UNL     1      46.158 -29.771   0.155  1.00  0.00    -0.378 N 
HETATM   32  C   UNL     1      47.252 -30.637  -0.291  1.00  0.00     0.134 C 
HETATM   33  C   UNL     1      47.666 -30.309  -1.743  1.00  0.00     0.054 C 
HETATM   34  C   UNL     1      48.027 -28.830  -1.853  1.00  0.00     0.020 C 
HETATM   35  C   UNL     1      46.534 -30.677  -2.686  1.00  0.00     0.020 A 
HETATM   36  C   UNL     1      46.773 -28.029  -1.522  1.00  0.00     0.023 C 
HETATM   37  C   UNL     1      45.702 -28.326  -2.578  1.00  0.00     0.138 C 
HETATM   38  C   UNL     1      46.298 -28.332  -0.090  1.00  0.00     0.129 C 
HETATM   39  N   UNL     1      45.565 -29.722  -2.997  1.00  0.00    -0.317 N 
HETATM   40  C   UNL     1      44.459 -30.017  -3.802  1.00  0.00     0.247 A 
HETATM   41  O   UNL     1      43.597 -29.205  -4.126  1.00  0.00    -0.268 OA
HETATM   42  C   UNL     1      44.350 -31.419  -4.282  1.00  0.00     0.074 A 
HETATM   43  C   UNL     1      45.303 -32.308  -3.984  1.00  0.00     0.007 A 
HETATM   44  C   UNL     1      46.426 -31.927  -3.172  1.00  0.00     0.026 A 
ENDBRANCH   4  31
TORSDOF 7
ENDMDL
