MODEL 1
REMARK VINA RESULT:      -8.9      0.000      0.000
REMARK  9 active torsions:
REMARK  status: ('A' for Active; 'I' for Inactive)
REMARK    1  A    between atoms: C_6  and  C_7 
REMARK       I    between atoms: C_7  and  N_8 
REMARK    2  A    between atoms: N_8  and  C_9 
REMARK    3  A    between atoms: C_9  and  C_10 
REMARK    4  A    between atoms: N_15  and  C_17 
REMARK    5  A    between atoms: C_17  and  C_18 
REMARK    6  A    between atoms: C_21  and  C_22 
REMARK    7  A    between atoms: C_22  and  C_23 
REMARK    8  A    between atoms: C_23  and  C_24 
REMARK    9  A    between atoms: C_24  and  O_25 
ROOT
HETATM    1  C   UNL     1      44.973 -11.722   7.305  1.00  0.00     0.140 C 
HETATM    2  O   UNL     1      44.224 -11.229   8.434  1.00  0.00    -0.373 OA
HETATM    3  C   UNL     1      44.661  -9.897   8.767  1.00  0.00     0.064 C 
HETATM    4  C   UNL     1      45.175  -9.946  10.211  1.00  0.00     0.066 C 
HETATM    5  C   UNL     1      44.059 -10.328  11.174  1.00  0.00     0.238 C 
HETATM    6  N   UNL     1      42.886  -9.383  11.052  1.00  0.00    -0.067 N 
HETATM    7  H   UNL     1      42.140  -9.817  11.608  1.00  0.00     0.280 HD
HETATM    8  C   UNL     1      42.359  -9.345   9.634  1.00  0.00     0.238 C 
HETATM    9  C   UNL     1      43.465  -8.946   8.668  1.00  0.00     0.066 C 
HETATM   10  C   UNL     1      45.762  -9.536   7.768  1.00  0.00     0.041 C 
HETATM   11  C   UNL     1      46.239 -10.883   7.278  1.00  0.00     0.036 C 
ENDROOT
BRANCH   1  12
HETATM   12  C   UNL     1      44.137 -11.596   6.015  1.00  0.00     0.155 C 
BRANCH  12  13
HETATM   13  N   UNL     1      43.984 -12.872   5.337  1.00  0.00    -0.353 N 
HETATM   14  C   UNL     1      42.986 -13.770   5.650  1.00  0.00     0.270 C 
HETATM   15  O   UNL     1      42.124 -13.524   6.491  1.00  0.00    -0.266 OA
HETATM   16  H   UNL     1      44.653 -13.115   4.621  1.00  0.00     0.162 HD
BRANCH  14  17
HETATM   17  C   UNL     1      43.038 -15.016   4.921  1.00  0.00     0.122 A 
HETATM   18  N   UNL     1      43.723 -16.134   5.339  1.00  0.00    -0.269 N 
HETATM   19  N   UNL     1      43.679 -17.158   4.469  1.00  0.00    -0.177 NA
HETATM   20  C   UNL     1      44.439 -16.315   6.582  1.00  0.00     0.180 C 
HETATM   21  C   UNL     1      42.904 -16.716   3.476  1.00  0.00     0.053 A 
HETATM   22  C   UNL     1      42.596 -17.582   2.312  1.00  0.00     0.072 C 
HETATM   23  C   UNL     1      42.482 -15.389   3.706  1.00  0.00     0.065 A 
ENDBRANCH  14  17
ENDBRANCH  12  13
ENDBRANCH   1  12
BRANCH   6  24
HETATM   24  C   UNL     1      43.074  -8.012  11.661  1.00  0.00     0.273 C 
BRANCH  24  25
HETATM   25  C   UNL     1      42.571  -7.914  13.076  1.00  0.00    -0.033 A 
HETATM   26  C   UNL     1      43.195  -7.051  13.991  1.00  0.00     0.010 A 
HETATM   27  C   UNL     1      42.771  -7.002  15.321  1.00  0.00     0.021 A 
HETATM   28  C   UNL     1      41.717  -7.810  15.747  1.00  0.00     0.017 A 
HETATM   29  C   UNL     1      41.077  -8.657  14.840  1.00  0.00     0.021 A 
HETATM   30  C   UNL     1      41.500  -8.709  13.510  1.00  0.00     0.010 A 
BRANCH  28  31
HETATM   31  C   UNL     1      41.300  -7.780  17.111  1.00  0.00    -0.064 C 
BRANCH  31  32
HETATM   32  C   UNL     1      40.946  -7.742  18.365  1.00  0.00    -0.064 C 
BRANCH  32  33
HETATM   33  C   UNL     1      40.533  -7.697  19.827  1.00  0.00     0.114 C 
HETATM   34  C   UNL     1      40.384  -6.250  20.288  1.00  0.00     0.060 C 
HETATM   35  C   UNL     1      39.238  -8.476  20.028  1.00  0.00     0.060 C 
BRANCH  33  36
HETATM   36  O   UNL     1      41.551  -8.326  20.599  1.00  0.00    -0.378 OA
HETATM   37  H   UNL     1      42.342  -7.763  20.545  1.00  0.00     0.211 HD
ENDBRANCH  33  36
ENDBRANCH  32  33
ENDBRANCH  31  32
ENDBRANCH  28  31
ENDBRANCH  24  25
ENDBRANCH   6  24
TORSDOF 9
ENDMDL
MODEL 2
REMARK VINA RESULT:      -8.8      1.451      1.863
REMARK  9 active torsions:
REMARK  status: ('A' for Active; 'I' for Inactive)
REMARK    1  A    between atoms: C_6  and  C_7 
REMARK       I    between atoms: C_7  and  N_8 
REMARK    2  A    between atoms: N_8  and  C_9 
REMARK    3  A    between atoms: C_9  and  C_10 
REMARK    4  A    between atoms: N_15  and  C_17 
REMARK    5  A    between atoms: C_17  and  C_18 
REMARK    6  A    between atoms: C_21  and  C_22 
REMARK    7  A    between atoms: C_22  and  C_23 
REMARK    8  A    between atoms: C_23  and  C_24 
REMARK    9  A    between atoms: C_24  and  O_25 
ROOT
HETATM    1  C   UNL     1      44.983 -11.496   7.193  1.00  0.00     0.140 C 
HETATM    2  O   UNL     1      44.151 -10.977   8.250  1.00  0.00    -0.373 OA
HETATM    3  C   UNL     1      44.692  -9.732   8.732  1.00  0.00     0.064 C 
HETATM    4  C   UNL     1      44.997  -9.926  10.222  1.00  0.00     0.066 C 
HETATM    5  C   UNL     1      43.723 -10.220  11.005  1.00  0.00     0.238 C 
HETATM    6  N   UNL     1      42.697  -9.129  10.803  1.00  0.00    -0.067 N 
HETATM    7  H   UNL     1      41.836  -9.496  11.226  1.00  0.00     0.280 HD
HETATM    8  C   UNL     1      42.375  -8.944   9.336  1.00  0.00     0.238 C 
HETATM    9  C   UNL     1      43.641  -8.633   8.551  1.00  0.00     0.066 C 
HETATM   10  C   UNL     1      45.953  -9.456   7.910  1.00  0.00     0.041 C 
HETATM   11  C   UNL     1      46.331 -10.823   7.389  1.00  0.00     0.036 C 
ENDROOT
BRANCH   1  12
HETATM   12  C   UNL     1      44.351 -11.193   5.820  1.00  0.00     0.155 C 
BRANCH  12  13
HETATM   13  N   UNL     1      43.693 -12.358   5.252  1.00  0.00    -0.353 N 
HETATM   14  C   UNL     1      43.342 -12.446   3.922  1.00  0.00     0.270 C 
HETATM   15  O   UNL     1      43.615 -11.560   3.115  1.00  0.00    -0.266 OA
HETATM   16  H   UNL     1      43.467 -13.125   5.869  1.00  0.00     0.162 HD
BRANCH  14  17
HETATM   17  C   UNL     1      42.631 -13.649   3.559  1.00  0.00     0.122 A 
HETATM   18  N   UNL     1      41.276 -13.829   3.718  1.00  0.00    -0.269 N 
HETATM   19  N   UNL     1      40.843 -15.052   3.364  1.00  0.00    -0.177 NA
HETATM   20  C   UNL     1      40.308 -12.865   4.190  1.00  0.00     0.180 C 
HETATM   21  C   UNL     1      41.936 -15.674   2.917  1.00  0.00     0.053 A 
HETATM   22  C   UNL     1      41.862 -17.066   2.410  1.00  0.00     0.072 C 
HETATM   23  C   UNL     1      43.076 -14.847   3.018  1.00  0.00     0.065 A 
ENDBRANCH  14  17
ENDBRANCH  12  13
ENDBRANCH   1  12
BRANCH   6  24
HETATM   24  C   UNL     1      42.960  -7.829  11.529  1.00  0.00     0.273 C 
BRANCH  24  25
HETATM   25  C   UNL     1      42.562  -7.865  12.980  1.00  0.00    -0.033 A 
HETATM   26  C   UNL     1      41.523  -8.707  13.409  1.00  0.00     0.010 A 
HETATM   27  C   UNL     1      41.110  -8.699  14.743  1.00  0.00     0.021 A 
HETATM   28  C   UNL     1      41.733  -7.855  15.660  1.00  0.00     0.017 A 
HETATM   29  C   UNL     1      42.779  -7.027  15.249  1.00  0.00     0.021 A 
HETATM   30  C   UNL     1      43.194  -7.032  13.916  1.00  0.00     0.010 A 
BRANCH  28  31
HETATM   31  C   UNL     1      41.293  -7.826  17.018  1.00  0.00    -0.064 C 
BRANCH  31  32
HETATM   32  C   UNL     1      40.921  -7.798  18.267  1.00  0.00    -0.064 C 
BRANCH  32  33
HETATM   33  C   UNL     1      40.486  -7.767  19.723  1.00  0.00     0.114 C 
HETATM   34  C   UNL     1      40.346  -6.324  20.200  1.00  0.00     0.060 C 
HETATM   35  C   UNL     1      39.180  -8.534  19.895  1.00  0.00     0.060 C 
BRANCH  33  36
HETATM   36  O   UNL     1      41.486  -8.416  20.502  1.00  0.00    -0.378 OA
HETATM   37  H   UNL     1      41.047  -8.782  21.288  1.00  0.00     0.211 HD
ENDBRANCH  33  36
ENDBRANCH  32  33
ENDBRANCH  31  32
ENDBRANCH  28  31
ENDBRANCH  24  25
ENDBRANCH   6  24
TORSDOF 9
ENDMDL
MODEL 3
REMARK VINA RESULT:      -8.4      8.459     13.786
REMARK  9 active torsions:
REMARK  status: ('A' for Active; 'I' for Inactive)
REMARK    1  A    between atoms: C_6  and  C_7 
REMARK       I    between atoms: C_7  and  N_8 
REMARK    2  A    between atoms: N_8  and  C_9 
REMARK    3  A    between atoms: C_9  and  C_10 
REMARK    4  A    between atoms: N_15  and  C_17 
REMARK    5  A    between atoms: C_17  and  C_18 
REMARK    6  A    between atoms: C_21  and  C_22 
REMARK    7  A    between atoms: C_22  and  C_23 
REMARK    8  A    between atoms: C_23  and  C_24 
REMARK    9  A    between atoms: C_24  and  O_25 
ROOT
HETATM    1  C   UNL     1      40.924 -15.067   6.162  1.00  0.00     0.140 C 
HETATM    2  O   UNL     1      40.716 -15.267   4.748  1.00  0.00    -0.373 OA
HETATM    3  C   UNL     1      41.231 -14.139   4.015  1.00  0.00     0.064 C 
HETATM    4  C   UNL     1      40.053 -13.537   3.239  1.00  0.00     0.066 C 
HETATM    5  C   UNL     1      39.495 -14.537   2.234  1.00  0.00     0.238 C 
HETATM    6  N   UNL     1      40.572 -15.018   1.289  1.00  0.00    -0.067 N 
HETATM    7  H   UNL     1      40.142 -15.795   0.773  1.00  0.00     0.280 HD
HETATM    8  C   UNL     1      41.729 -15.633   2.046  1.00  0.00     0.238 C 
HETATM    9  C   UNL     1      42.304 -14.633   3.039  1.00  0.00     0.066 C 
HETATM   10  C   UNL     1      41.805 -13.169   5.049  1.00  0.00     0.041 C 
HETATM   11  C   UNL     1      41.098 -13.567   6.324  1.00  0.00     0.036 C 
ENDROOT
BRANCH   1  12
HETATM   12  C   UNL     1      42.149 -15.873   6.638  1.00  0.00     0.155 C 
BRANCH  12  13
HETATM   13  N   UNL     1      42.407 -17.026   5.793  1.00  0.00    -0.353 N 
HETATM   14  C   UNL     1      43.671 -17.374   5.367  1.00  0.00     0.270 C 
HETATM   15  O   UNL     1      44.674 -16.758   5.722  1.00  0.00    -0.266 OA
HETATM   16  H   UNL     1      41.620 -17.581   5.490  1.00  0.00     0.162 HD
BRANCH  14  17
HETATM   17  C   UNL     1      43.721 -18.507   4.473  1.00  0.00     0.122 A 
HETATM   18  N   UNL     1      43.809 -19.818   4.884  1.00  0.00    -0.269 N 
HETATM   19  N   UNL     1      43.902 -20.701   3.874  1.00  0.00    -0.177 NA
HETATM   20  C   UNL     1      43.791 -20.319   6.239  1.00  0.00     0.180 C 
HETATM   21  C   UNL     1      43.824 -19.953   2.771  1.00  0.00     0.053 A 
HETATM   22  C   UNL     1      43.873 -20.577   1.427  1.00  0.00     0.072 C 
HETATM   23  C   UNL     1      43.714 -18.581   3.088  1.00  0.00     0.065 A 
ENDBRANCH  14  17
ENDBRANCH  12  13
ENDBRANCH   1  12
BRANCH   6  24
HETATM   24  C   UNL     1      41.004 -14.038   0.222  1.00  0.00     0.273 C 
BRANCH  24  25
HETATM   25  C   UNL     1      39.868 -13.559  -0.642  1.00  0.00    -0.033 A 
HETATM   26  C   UNL     1      39.370 -12.254  -0.496  1.00  0.00     0.010 A 
HETATM   27  C   UNL     1      38.277 -11.826  -1.252  1.00  0.00     0.021 A 
HETATM   28  C   UNL     1      37.676 -12.693  -2.163  1.00  0.00     0.017 A 
HETATM   29  C   UNL     1      38.175 -13.986  -2.329  1.00  0.00     0.021 A 
HETATM   30  C   UNL     1      39.267 -14.418  -1.574  1.00  0.00     0.010 A 
BRANCH  28  31
HETATM   31  C   UNL     1      36.542 -12.265  -2.917  1.00  0.00    -0.064 C 
BRANCH  31  32
HETATM   32  C   UNL     1      35.511 -11.897  -3.625  1.00  0.00    -0.064 C 
BRANCH  32  33
HETATM   33  C   UNL     1      34.309 -11.468  -4.450  1.00  0.00     0.114 C 
HETATM   34  C   UNL     1      33.126 -11.160  -3.538  1.00  0.00     0.060 C 
HETATM   35  C   UNL     1      34.670 -10.262  -5.311  1.00  0.00     0.060 C 
BRANCH  33  36
HETATM   36  O   UNL     1      33.957 -12.541  -5.318  1.00  0.00    -0.378 OA
HETATM   37  H   UNL     1      33.228 -12.230  -5.880  1.00  0.00     0.211 HD
ENDBRANCH  33  36
ENDBRANCH  32  33
ENDBRANCH  31  32
ENDBRANCH  28  31
ENDBRANCH  24  25
ENDBRANCH   6  24
TORSDOF 9
ENDMDL
MODEL 4
REMARK VINA RESULT:      -8.0      3.351     12.819
REMARK  9 active torsions:
REMARK  status: ('A' for Active; 'I' for Inactive)
REMARK    1  A    between atoms: C_6  and  C_7 
REMARK       I    between atoms: C_7  and  N_8 
REMARK    2  A    between atoms: N_8  and  C_9 
REMARK    3  A    between atoms: C_9  and  C_10 
REMARK    4  A    between atoms: N_15  and  C_17 
REMARK    5  A    between atoms: C_17  and  C_18 
REMARK    6  A    between atoms: C_21  and  C_22 
REMARK    7  A    between atoms: C_22  and  C_23 
REMARK    8  A    between atoms: C_23  and  C_24 
REMARK    9  A    between atoms: C_24  and  O_25 
ROOT
HETATM    1  C   UNL     1      42.207 -10.218   6.783  1.00  0.00     0.140 C 
HETATM    2  O   UNL     1      42.135 -11.655   6.876  1.00  0.00    -0.373 OA
HETATM    3  C   UNL     1      42.601 -12.249   5.649  1.00  0.00     0.064 C 
HETATM    4  C   UNL     1      41.440 -13.077   5.086  1.00  0.00     0.066 C 
HETATM    5  C   UNL     1      41.062 -14.204   6.040  1.00  0.00     0.238 C 
HETATM    6  N   UNL     1      42.252 -15.083   6.343  1.00  0.00    -0.067 N 
HETATM    7  H   UNL     1      41.940 -15.695   7.106  1.00  0.00     0.280 HD
HETATM    8  C   UNL     1      43.396 -14.277   6.918  1.00  0.00     0.238 C 
HETATM    9  C   UNL     1      43.791 -13.161   5.962  1.00  0.00     0.066 C 
HETATM   10  C   UNL     1      42.995 -11.094   4.726  1.00  0.00     0.041 C 
HETATM   11  C   UNL     1      42.226  -9.923   5.293  1.00  0.00     0.036 C 
ENDROOT
BRANCH   1  12
HETATM   12  C   UNL     1      43.459  -9.699   7.517  1.00  0.00     0.155 C 
BRANCH  12  13
HETATM   13  N   UNL     1      43.139  -9.162   8.830  1.00  0.00    -0.353 N 
HETATM   14  C   UNL     1      43.350  -9.863   9.997  1.00  0.00     0.270 C 
HETATM   15  O   UNL     1      43.877 -10.973  10.007  1.00  0.00    -0.266 OA
HETATM   16  H   UNL     1      42.724  -8.242   8.880  1.00  0.00     0.162 HD
BRANCH  14  17
HETATM   17  C   UNL     1      42.902  -9.196  11.197  1.00  0.00     0.122 A 
HETATM   18  N   UNL     1      41.587  -9.114  11.595  1.00  0.00    -0.269 N 
HETATM   19  N   UNL     1      41.400  -8.394  12.716  1.00  0.00    -0.177 NA
HETATM   20  C   UNL     1      40.435  -9.720  10.965  1.00  0.00     0.180 C 
HETATM   21  C   UNL     1      42.631  -8.034  13.087  1.00  0.00     0.053 A 
HETATM   22  C   UNL     1      42.847  -7.228  14.312  1.00  0.00     0.072 C 
HETATM   23  C   UNL     1      43.601  -8.505  12.175  1.00  0.00     0.065 A 
ENDBRANCH  14  17
ENDBRANCH  12  13
ENDBRANCH   1  12
BRANCH   6  24
HETATM   24  C   UNL     1      42.676 -16.027   5.240  1.00  0.00     0.273 C 
BRANCH  24  25
HETATM   25  C   UNL     1      42.009 -15.742   3.922  1.00  0.00    -0.033 A 
HETATM   26  C   UNL     1      42.707 -15.070   2.905  1.00  0.00     0.010 A 
HETATM   27  C   UNL     1      42.073 -14.749   1.703  1.00  0.00     0.021 A 
HETATM   28  C   UNL     1      40.739 -15.100   1.503  1.00  0.00     0.017 A 
HETATM   29  C   UNL     1      40.041 -15.784   2.500  1.00  0.00     0.021 A 
HETATM   30  C   UNL     1      40.672 -16.106   3.704  1.00  0.00     0.010 A 
BRANCH  28  31
HETATM   31  C   UNL     1      40.082 -14.749   0.286  1.00  0.00    -0.064 C 
BRANCH  31  32
HETATM   32  C   UNL     1      39.502 -14.407  -0.830  1.00  0.00    -0.064 C 
BRANCH  32  33
HETATM   33  C   UNL     1      38.826 -14.007  -2.132  1.00  0.00     0.114 C 
HETATM   34  C   UNL     1      39.641 -12.928  -2.839  1.00  0.00     0.060 C 
HETATM   35  C   UNL     1      38.643 -15.232  -3.022  1.00  0.00     0.060 C 
BRANCH  33  36
HETATM   36  O   UNL     1      37.537 -13.487  -1.825  1.00  0.00    -0.378 OA
HETATM   37  H   UNL     1      37.095 -13.293  -2.669  1.00  0.00     0.211 HD
ENDBRANCH  33  36
ENDBRANCH  32  33
ENDBRANCH  31  32
ENDBRANCH  28  31
ENDBRANCH  24  25
ENDBRANCH   6  24
TORSDOF 9
ENDMDL
MODEL 5
REMARK VINA RESULT:      -7.8      3.550     12.240
REMARK  9 active torsions:
REMARK  status: ('A' for Active; 'I' for Inactive)
REMARK    1  A    between atoms: C_6  and  C_7 
REMARK       I    between atoms: C_7  and  N_8 
REMARK    2  A    between atoms: N_8  and  C_9 
REMARK    3  A    between atoms: C_9  and  C_10 
REMARK    4  A    between atoms: N_15  and  C_17 
REMARK    5  A    between atoms: C_17  and  C_18 
REMARK    6  A    between atoms: C_21  and  C_22 
REMARK    7  A    between atoms: C_22  and  C_23 
REMARK    8  A    between atoms: C_23  and  C_24 
REMARK    9  A    between atoms: C_24  and  O_25 
ROOT
HETATM    1  C   UNL     1      42.776  -7.532  11.510  1.00  0.00     0.140 C 
HETATM    2  O   UNL     1      43.472  -7.961  10.322  1.00  0.00    -0.373 OA
HETATM    3  C   UNL     1      43.732  -9.377  10.393  1.00  0.00     0.064 C 
HETATM    4  C   UNL     1      45.253  -9.555  10.320  1.00  0.00     0.066 C 
HETATM    5  C   UNL     1      45.799  -9.042   8.993  1.00  0.00     0.238 C 
HETATM    6  N   UNL     1      45.121  -9.723   7.827  1.00  0.00    -0.067 N 
HETATM    7  H   UNL     1      45.432  -9.199   7.000  1.00  0.00     0.280 HD
HETATM    8  C   UNL     1      43.621  -9.535   7.879  1.00  0.00     0.238 C 
HETATM    9  C   UNL     1      43.066 -10.061   9.195  1.00  0.00     0.066 C 
HETATM   10  C   UNL     1      43.150  -9.863  11.722  1.00  0.00     0.041 C 
HETATM   11  C   UNL     1      43.077  -8.599  12.548  1.00  0.00     0.036 C 
ENDROOT
BRANCH   1  12
HETATM   12  C   UNL     1      41.270  -7.380  11.219  1.00  0.00     0.155 C 
BRANCH  12  13
HETATM   13  N   UNL     1      40.590  -6.610  12.248  1.00  0.00    -0.353 N 
HETATM   14  C   UNL     1      39.693  -7.171  13.131  1.00  0.00     0.270 C 
HETATM   15  O   UNL     1      39.451  -8.376  13.141  1.00  0.00    -0.266 OA
HETATM   16  H   UNL     1      40.771  -5.618  12.298  1.00  0.00     0.162 HD
BRANCH  14  17
HETATM   17  C   UNL     1      39.063  -6.236  14.034  1.00  0.00     0.122 A 
HETATM   18  N   UNL     1      37.906  -5.546  13.754  1.00  0.00    -0.269 N 
HETATM   19  N   UNL     1      37.536  -4.686  14.720  1.00  0.00    -0.177 NA
HETATM   20  C   UNL     1      37.070  -5.666  12.581  1.00  0.00     0.180 C 
HETATM   21  C   UNL     1      38.450  -4.851  15.678  1.00  0.00     0.053 A 
HETATM   22  C   UNL     1      38.375  -4.076  16.940  1.00  0.00     0.072 C 
HETATM   23  C   UNL     1      39.424  -5.802  15.301  1.00  0.00     0.065 A 
ENDBRANCH  14  17
ENDBRANCH  12  13
ENDBRANCH   1  12
BRANCH   6  24
HETATM   24  C   UNL     1      45.539 -11.151   7.559  1.00  0.00     0.273 C 
BRANCH  24  25
HETATM   25  C   UNL     1      44.654 -11.855   6.566  1.00  0.00    -0.033 A 
HETATM   26  C   UNL     1      44.577 -11.401   5.239  1.00  0.00     0.010 A 
HETATM   27  C   UNL     1      43.711 -12.013   4.330  1.00  0.00     0.021 A 
HETATM   28  C   UNL     1      42.919 -13.086   4.736  1.00  0.00     0.017 A 
HETATM   29  C   UNL     1      43.001 -13.557   6.048  1.00  0.00     0.021 A 
HETATM   30  C   UNL     1      43.865 -12.947   6.959  1.00  0.00     0.010 A 
BRANCH  28  31
HETATM   31  C   UNL     1      42.013 -13.695   3.816  1.00  0.00    -0.064 C 
BRANCH  31  32
HETATM   32  C   UNL     1      41.201 -14.278   2.980  1.00  0.00    -0.064 C 
BRANCH  32  33
HETATM   33  C   UNL     1      40.253 -14.957   2.005  1.00  0.00     0.114 C 
HETATM   34  C   UNL     1      40.252 -14.219   0.670  1.00  0.00     0.060 C 
HETATM   35  C   UNL     1      40.649 -16.419   1.826  1.00  0.00     0.060 C 
BRANCH  33  36
HETATM   36  O   UNL     1      38.941 -14.918   2.556  1.00  0.00    -0.378 OA
HETATM   37  H   UNL     1      38.315 -14.929   1.813  1.00  0.00     0.211 HD
ENDBRANCH  33  36
ENDBRANCH  32  33
ENDBRANCH  31  32
ENDBRANCH  28  31
ENDBRANCH  24  25
ENDBRANCH   6  24
TORSDOF 9
ENDMDL
MODEL 6
REMARK VINA RESULT:      -7.8      1.483      2.040
REMARK  9 active torsions:
REMARK  status: ('A' for Active; 'I' for Inactive)
REMARK    1  A    between atoms: C_6  and  C_7 
REMARK       I    between atoms: C_7  and  N_8 
REMARK    2  A    between atoms: N_8  and  C_9 
REMARK    3  A    between atoms: C_9  and  C_10 
REMARK    4  A    between atoms: N_15  and  C_17 
REMARK    5  A    between atoms: C_17  and  C_18 
REMARK    6  A    between atoms: C_21  and  C_22 
REMARK    7  A    between atoms: C_22  and  C_23 
REMARK    8  A    between atoms: C_23  and  C_24 
REMARK    9  A    between atoms: C_24  and  O_25 
ROOT
HETATM    1  C   UNL     1      43.805 -10.883   6.729  1.00  0.00     0.140 C 
HETATM    2  O   UNL     1      43.893  -9.998   7.865  1.00  0.00    -0.373 OA
HETATM    3  C   UNL     1      42.630  -9.333   8.065  1.00  0.00     0.064 C 
HETATM    4  C   UNL     1      42.897  -7.827   7.946  1.00  0.00     0.066 C 
HETATM    5  C   UNL     1      43.855  -7.357   9.034  1.00  0.00     0.238 C 
HETATM    6  N   UNL     1      43.330  -7.704  10.408  1.00  0.00    -0.067 N 
HETATM    7  H   UNL     1      44.109  -7.499  11.046  1.00  0.00     0.280 HD
HETATM    8  C   UNL     1      43.084  -9.191  10.541  1.00  0.00     0.238 C 
HETATM    9  C   UNL     1      42.114  -9.665   9.468  1.00  0.00     0.066 C 
HETATM   10  C   UNL     1      41.688  -9.845   6.974  1.00  0.00     0.041 C 
HETATM   11  C   UNL     1      42.635 -10.360   5.914  1.00  0.00     0.036 C 
ENDROOT
BRANCH   1  12
HETATM   12  C   UNL     1      43.609 -12.338   7.202  1.00  0.00     0.155 C 
BRANCH  12  13
HETATM   13  N   UNL     1      43.695 -13.285   6.103  1.00  0.00    -0.353 N 
HETATM   14  C   UNL     1      42.606 -13.985   5.632  1.00  0.00     0.270 C 
HETATM   15  O   UNL     1      41.474 -13.811   6.077  1.00  0.00    -0.266 OA
HETATM   16  H   UNL     1      44.600 -13.448   5.685  1.00  0.00     0.162 HD
BRANCH  14  17
HETATM   17  C   UNL     1      42.900 -14.935   4.584  1.00  0.00     0.122 A 
HETATM   18  N   UNL     1      43.044 -14.606   3.255  1.00  0.00    -0.269 N 
HETATM   19  N   UNL     1      43.258 -15.663   2.452  1.00  0.00    -0.177 NA
HETATM   20  C   UNL     1      43.010 -13.287   2.664  1.00  0.00     0.180 C 
HETATM   21  C   UNL     1      43.303 -16.707   3.283  1.00  0.00     0.053 A 
HETATM   22  C   UNL     1      43.544 -18.076   2.767  1.00  0.00     0.072 C 
HETATM   23  C   UNL     1      43.084 -16.309   4.620  1.00  0.00     0.065 A 
ENDBRANCH  14  17
ENDBRANCH  12  13
ENDBRANCH   1  12
BRANCH   6  24
HETATM   24  C   UNL     1      42.184  -6.857  10.914  1.00  0.00     0.273 C 
BRANCH  24  25
HETATM   25  C   UNL     1      41.934  -7.012  12.389  1.00  0.00    -0.033 A 
HETATM   26  C   UNL     1      42.993  -6.892  13.304  1.00  0.00     0.010 A 
HETATM   27  C   UNL     1      42.776  -7.096  14.669  1.00  0.00     0.021 A 
HETATM   28  C   UNL     1      41.502  -7.417  15.132  1.00  0.00     0.017 A 
HETATM   29  C   UNL     1      40.438  -7.521  14.234  1.00  0.00     0.021 A 
HETATM   30  C   UNL     1      40.651  -7.318  12.868  1.00  0.00     0.010 A 
BRANCH  28  31
HETATM   31  C   UNL     1      41.285  -7.652  16.523  1.00  0.00    -0.064 C 
BRANCH  31  32
HETATM   32  C   UNL     1      41.116  -7.875  17.797  1.00  0.00    -0.064 C 
BRANCH  32  33
HETATM   33  C   UNL     1      40.919  -8.136  19.281  1.00  0.00     0.114 C 
HETATM   34  C   UNL     1      41.346  -6.916  20.091  1.00  0.00     0.060 C 
HETATM   35  C   UNL     1      39.465  -8.501  19.558  1.00  0.00     0.060 C 
BRANCH  33  36
HETATM   36  O   UNL     1      41.731  -9.246  19.651  1.00  0.00    -0.378 OA
HETATM   37  H   UNL     1      41.810  -9.234  20.620  1.00  0.00     0.211 HD
ENDBRANCH  33  36
ENDBRANCH  32  33
ENDBRANCH  31  32
ENDBRANCH  28  31
ENDBRANCH  24  25
ENDBRANCH   6  24
TORSDOF 9
ENDMDL
MODEL 7
REMARK VINA RESULT:      -7.8      4.370      7.349
REMARK  9 active torsions:
REMARK  status: ('A' for Active; 'I' for Inactive)
REMARK    1  A    between atoms: C_6  and  C_7 
REMARK       I    between atoms: C_7  and  N_8 
REMARK    2  A    between atoms: N_8  and  C_9 
REMARK    3  A    between atoms: C_9  and  C_10 
REMARK    4  A    between atoms: N_15  and  C_17 
REMARK    5  A    between atoms: C_17  and  C_18 
REMARK    6  A    between atoms: C_21  and  C_22 
REMARK    7  A    between atoms: C_22  and  C_23 
REMARK    8  A    between atoms: C_23  and  C_24 
REMARK    9  A    between atoms: C_24  and  O_25 
ROOT
HETATM    1  C   UNL     1      40.845 -15.759   2.660  1.00  0.00     0.140 C 
HETATM    2  O   UNL     1      41.000 -14.527   3.395  1.00  0.00    -0.373 OA
HETATM    3  C   UNL     1      42.364 -14.393   3.840  1.00  0.00     0.064 C 
HETATM    4  C   UNL     1      42.327 -14.310   5.371  1.00  0.00     0.066 C 
HETATM    5  C   UNL     1      41.558 -13.077   5.831  1.00  0.00     0.238 C 
HETATM    6  N   UNL     1      42.144 -11.817   5.238  1.00  0.00    -0.067 N 
HETATM    7  H   UNL     1      41.468 -11.079   5.469  1.00  0.00     0.280 HD
HETATM    8  C   UNL     1      42.165 -11.882   3.727  1.00  0.00     0.238 C 
HETATM    9  C   UNL     1      42.947 -13.101   3.259  1.00  0.00     0.066 C 
HETATM   10  C   UNL     1      43.112 -15.631   3.341  1.00  0.00     0.041 C 
HETATM   11  C   UNL     1      42.004 -16.632   3.110  1.00  0.00     0.036 C 
ENDROOT
BRANCH   1  12
HETATM   12  C   UNL     1      40.852 -15.478   1.144  1.00  0.00     0.155 C 
BRANCH  12  13
HETATM   13  N   UNL     1      39.831 -14.517   0.762  1.00  0.00    -0.353 N 
HETATM   14  C   UNL     1      40.128 -13.246   0.320  1.00  0.00     0.270 C 
HETATM   15  O   UNL     1      41.285 -12.860   0.168  1.00  0.00    -0.266 OA
HETATM   16  H   UNL     1      38.863 -14.792   0.846  1.00  0.00     0.162 HD
BRANCH  14  17
HETATM   17  C   UNL     1      38.980 -12.409   0.057  1.00  0.00     0.122 A 
HETATM   18  N   UNL     1      38.368 -12.294  -1.170  1.00  0.00    -0.269 N 
HETATM   19  N   UNL     1      37.353 -11.412  -1.193  1.00  0.00    -0.177 NA
HETATM   20  C   UNL     1      38.683 -13.015  -2.384  1.00  0.00     0.180 C 
HETATM   21  C   UNL     1      37.268 -10.973   0.065  1.00  0.00     0.053 A 
HETATM   22  C   UNL     1      36.236  -9.982   0.453  1.00  0.00     0.072 C 
HETATM   23  C   UNL     1      38.259 -11.560   0.882  1.00  0.00     0.065 A 
ENDBRANCH  14  17
ENDBRANCH  12  13
ENDBRANCH   1  12
BRANCH   6  24
HETATM   24  C   UNL     1      43.449 -11.347   5.839  1.00  0.00     0.273 C 
BRANCH  24  25
HETATM   25  C   UNL     1      43.281 -10.662   7.167  1.00  0.00    -0.033 A 
HETATM   26  C   UNL     1      44.104 -11.008   8.252  1.00  0.00     0.010 A 
HETATM   27  C   UNL     1      43.911 -10.418   9.503  1.00  0.00     0.021 A 
HETATM   28  C   UNL     1      42.901  -9.475   9.681  1.00  0.00     0.017 A 
HETATM   29  C   UNL     1      42.089  -9.110   8.606  1.00  0.00     0.021 A 
HETATM   30  C   UNL     1      42.279  -9.698   7.353  1.00  0.00     0.010 A 
BRANCH  28  31
HETATM   31  C   UNL     1      42.685  -8.891  10.966  1.00  0.00    -0.064 C 
BRANCH  31  32
HETATM   32  C   UNL     1      42.482  -8.386  12.151  1.00  0.00    -0.064 C 
BRANCH  32  33
HETATM   33  C   UNL     1      42.245  -7.796  13.531  1.00  0.00     0.114 C 
HETATM   34  C   UNL     1      41.867  -8.898  14.517  1.00  0.00     0.060 C 
HETATM   35  C   UNL     1      43.485  -7.042  13.996  1.00  0.00     0.060 C 
BRANCH  33  36
HETATM   36  O   UNL     1      41.169  -6.867  13.442  1.00  0.00    -0.378 OA
HETATM   37  H   UNL     1      40.753  -6.822  14.319  1.00  0.00     0.211 HD
ENDBRANCH  33  36
ENDBRANCH  32  33
ENDBRANCH  31  32
ENDBRANCH  28  31
ENDBRANCH  24  25
ENDBRANCH   6  24
TORSDOF 9
ENDMDL
MODEL 8
REMARK VINA RESULT:      -7.7      1.841      3.041
REMARK  9 active torsions:
REMARK  status: ('A' for Active; 'I' for Inactive)
REMARK    1  A    between atoms: C_6  and  C_7 
REMARK       I    between atoms: C_7  and  N_8 
REMARK    2  A    between atoms: N_8  and  C_9 
REMARK    3  A    between atoms: C_9  and  C_10 
REMARK    4  A    between atoms: N_15  and  C_17 
REMARK    5  A    between atoms: C_17  and  C_18 
REMARK    6  A    between atoms: C_21  and  C_22 
REMARK    7  A    between atoms: C_22  and  C_23 
REMARK    8  A    between atoms: C_23  and  C_24 
REMARK    9  A    between atoms: C_24  and  O_25 
ROOT
HETATM    1  C   UNL     1      43.394 -10.432   9.816  1.00  0.00     0.140 C 
HETATM    2  O   UNL     1      42.461  -9.647  10.587  1.00  0.00    -0.373 OA
HETATM    3  C   UNL     1      43.172  -8.641  11.336  1.00  0.00     0.064 C 
HETATM    4  C   UNL     1      42.873  -8.896  12.818  1.00  0.00     0.066 C 
HETATM    5  C   UNL     1      41.385  -8.737  13.109  1.00  0.00     0.238 C 
HETATM    6  N   UNL     1      40.891  -7.372  12.687  1.00  0.00    -0.067 N 
HETATM    7  H   UNL     1      39.869  -7.426  12.768  1.00  0.00     0.280 HD
HETATM    8  C   UNL     1      41.164  -7.121  11.220  1.00  0.00     0.238 C 
HETATM    9  C   UNL     1      42.650  -7.261  10.925  1.00  0.00     0.066 C 
HETATM   10  C   UNL     1      44.655  -8.813  11.002  1.00  0.00     0.041 C 
HETATM   11  C   UNL     1      44.733 -10.238  10.505  1.00  0.00     0.036 C 
ENDROOT
BRANCH   1  12
HETATM   12  C   UNL     1      43.397  -9.964   8.347  1.00  0.00     0.155 C 
BRANCH  12  13
HETATM   13  N   UNL     1      43.015 -11.028   7.434  1.00  0.00    -0.353 N 
HETATM   14  C   UNL     1      43.907 -11.969   6.967  1.00  0.00     0.270 C 
HETATM   15  O   UNL     1      45.078 -12.002   7.339  1.00  0.00    -0.266 OA
HETATM   16  H   UNL     1      42.058 -11.061   7.114  1.00  0.00     0.162 HD
BRANCH  14  17
HETATM   17  C   UNL     1      43.360 -12.904   6.010  1.00  0.00     0.122 A 
HETATM   18  N   UNL     1      43.029 -14.207   6.301  1.00  0.00    -0.269 N 
HETATM   19  N   UNL     1      42.592 -14.908   5.238  1.00  0.00    -0.177 NA
HETATM   20  C   UNL     1      43.081 -14.866   7.586  1.00  0.00     0.180 C 
HETATM   21  C   UNL     1      42.592 -14.026   4.237  1.00  0.00     0.053 A 
HETATM   22  C   UNL     1      42.149 -14.422   2.878  1.00  0.00     0.072 C 
HETATM   23  C   UNL     1      43.064 -12.765   4.663  1.00  0.00     0.065 A 
ENDBRANCH  14  17
ENDBRANCH  12  13
ENDBRANCH   1  12
BRANCH   6  24
HETATM   24  C   UNL     1      41.289  -6.218  13.579  1.00  0.00     0.273 C 
BRANCH  24  25
HETATM   25  C   UNL     1      41.053  -6.486  15.041  1.00  0.00    -0.033 A 
HETATM   26  C   UNL     1      39.758  -6.393  15.578  1.00  0.00     0.010 A 
HETATM   27  C   UNL     1      39.544  -6.581  16.945  1.00  0.00     0.021 A 
HETATM   28  C   UNL     1      40.617  -6.867  17.787  1.00  0.00     0.017 A 
HETATM   29  C   UNL     1      41.905  -6.980  17.261  1.00  0.00     0.021 A 
HETATM   30  C   UNL     1      42.124  -6.792  15.894  1.00  0.00     0.010 A 
BRANCH  28  31
HETATM   31  C   UNL     1      40.403  -7.032  19.188  1.00  0.00    -0.064 C 
BRANCH  31  32
HETATM   32  C   UNL     1      40.185  -7.162  20.467  1.00  0.00    -0.064 C 
BRANCH  32  33
HETATM   33  C   UNL     1      39.932  -7.314  21.958  1.00  0.00     0.114 C 
HETATM   34  C   UNL     1      41.164  -7.894  22.646  1.00  0.00     0.060 C 
HETATM   35  C   UNL     1      39.546  -5.968  22.561  1.00  0.00     0.060 C 
BRANCH  33  36
HETATM   36  O   UNL     1      38.838  -8.209  22.136  1.00  0.00    -0.378 OA
HETATM   37  H   UNL     1      38.974  -8.955  21.528  1.00  0.00     0.211 HD
ENDBRANCH  33  36
ENDBRANCH  32  33
ENDBRANCH  31  32
ENDBRANCH  28  31
ENDBRANCH  24  25
ENDBRANCH   6  24
TORSDOF 9
ENDMDL
MODEL 9
REMARK VINA RESULT:      -7.7      3.195     12.775
REMARK  9 active torsions:
REMARK  status: ('A' for Active; 'I' for Inactive)
REMARK    1  A    between atoms: C_6  and  C_7 
REMARK       I    between atoms: C_7  and  N_8 
REMARK    2  A    between atoms: N_8  and  C_9 
REMARK    3  A    between atoms: C_9  and  C_10 
REMARK    4  A    between atoms: N_15  and  C_17 
REMARK    5  A    between atoms: C_17  and  C_18 
REMARK    6  A    between atoms: C_21  and  C_22 
REMARK    7  A    between atoms: C_22  and  C_23 
REMARK    8  A    between atoms: C_23  and  C_24 
REMARK    9  A    between atoms: C_24  and  O_25 
ROOT
HETATM    1  C   UNL     1      41.266  -7.286  13.907  1.00  0.00     0.140 C 
HETATM    2  O   UNL     1      41.294  -7.711  12.530  1.00  0.00    -0.373 OA
HETATM    3  C   UNL     1      42.654  -7.955  12.121  1.00  0.00     0.064 C 
HETATM    4  C   UNL     1      42.942  -7.010  10.948  1.00  0.00     0.066 C 
HETATM    5  C   UNL     1      42.033  -7.317   9.765  1.00  0.00     0.238 C 
HETATM    6  N   UNL     1      42.164  -8.761   9.337  1.00  0.00    -0.067 N 
HETATM    7  H   UNL     1      41.405  -8.905   8.660  1.00  0.00     0.280 HD
HETATM    8  C   UNL     1      41.861  -9.701  10.483  1.00  0.00     0.238 C 
HETATM    9  C   UNL     1      42.777  -9.412  11.663  1.00  0.00     0.066 C 
HETATM   10  C   UNL     1      43.535  -7.662  13.336  1.00  0.00     0.041 C 
HETATM   11  C   UNL     1      42.666  -6.763  14.184  1.00  0.00     0.036 C 
ENDROOT
BRANCH   1  12
HETATM   12  C   UNL     1      40.869  -8.463  14.821  1.00  0.00     0.155 C 
BRANCH  12  13
HETATM   13  N   UNL     1      41.319  -8.268  16.189  1.00  0.00    -0.353 N 
HETATM   14  C   UNL     1      40.660  -7.454  17.085  1.00  0.00     0.270 C 
HETATM   15  O   UNL     1      39.612  -6.880  16.798  1.00  0.00    -0.266 OA
HETATM   16  H   UNL     1      42.163  -8.736  16.484  1.00  0.00     0.162 HD
BRANCH  14  17
HETATM   17  C   UNL     1      41.297  -7.328  18.375  1.00  0.00     0.122 A 
HETATM   18  N   UNL     1      40.771  -7.810  19.551  1.00  0.00    -0.269 N 
HETATM   19  N   UNL     1      41.512  -7.525  20.637  1.00  0.00    -0.177 NA
HETATM   20  C   UNL     1      39.561  -8.581  19.726  1.00  0.00     0.180 C 
HETATM   21  C   UNL     1      42.575  -6.880  20.153  1.00  0.00     0.053 A 
HETATM   22  C   UNL     1      43.652  -6.408  21.056  1.00  0.00     0.072 C 
HETATM   23  C   UNL     1      42.490  -6.728  18.751  1.00  0.00     0.065 A 
ENDBRANCH  14  17
ENDBRANCH  12  13
ENDBRANCH   1  12
BRANCH   6  24
HETATM   24  C   UNL     1      43.426  -9.117   8.585  1.00  0.00     0.273 C 
BRANCH  24  25
HETATM   25  C   UNL     1      43.270 -10.322   7.697  1.00  0.00    -0.033 A 
HETATM   26  C   UNL     1      44.207 -11.367   7.751  1.00  0.00     0.010 A 
HETATM   27  C   UNL     1      44.101 -12.459   6.886  1.00  0.00     0.021 A 
HETATM   28  C   UNL     1      43.057 -12.519   5.964  1.00  0.00     0.017 A 
HETATM   29  C   UNL     1      42.110 -11.494   5.915  1.00  0.00     0.021 A 
HETATM   30  C   UNL     1      42.213 -10.401   6.778  1.00  0.00     0.010 A 
BRANCH  28  31
HETATM   31  C   UNL     1      42.962 -13.620   5.061  1.00  0.00    -0.064 C 
BRANCH  31  32
HETATM   32  C   UNL     1      42.892 -14.643   4.256  1.00  0.00    -0.064 C 
BRANCH  32  33
HETATM   33  C   UNL     1      42.809 -15.836   3.318  1.00  0.00     0.114 C 
HETATM   34  C   UNL     1      41.373 -16.345   3.238  1.00  0.00     0.060 C 
HETATM   35  C   UNL     1      43.336 -15.453   1.940  1.00  0.00     0.060 C 
BRANCH  33  36
HETATM   36  O   UNL     1      43.638 -16.871   3.837  1.00  0.00    -0.378 OA
HETATM   37  H   UNL     1      43.100 -17.679   3.876  1.00  0.00     0.211 HD
ENDBRANCH  33  36
ENDBRANCH  32  33
ENDBRANCH  31  32
ENDBRANCH  28  31
ENDBRANCH  24  25
ENDBRANCH   6  24
TORSDOF 9
ENDMDL
MODEL 10
REMARK VINA RESULT:      -7.6     22.097     24.176
REMARK  9 active torsions:
REMARK  status: ('A' for Active; 'I' for Inactive)
REMARK    1  A    between atoms: C_6  and  C_7 
REMARK       I    between atoms: C_7  and  N_8 
REMARK    2  A    between atoms: N_8  and  C_9 
REMARK    3  A    between atoms: C_9  and  C_10 
REMARK    4  A    between atoms: N_15  and  C_17 
REMARK    5  A    between atoms: C_17  and  C_18 
REMARK    6  A    between atoms: C_21  and  C_22 
REMARK    7  A    between atoms: C_22  and  C_23 
REMARK    8  A    between atoms: C_23  and  C_24 
REMARK    9  A    between atoms: C_24  and  O_25 
ROOT
HETATM    1  C   UNL     1      45.603 -29.298  -4.071  1.00  0.00     0.140 C 
HETATM    2  O   UNL     1      46.381 -29.682  -2.919  1.00  0.00    -0.373 OA
HETATM    3  C   UNL     1      45.979 -28.903  -1.775  1.00  0.00     0.064 C 
HETATM    4  C   UNL     1      47.220 -28.138  -1.299  1.00  0.00     0.066 C 
HETATM    5  C   UNL     1      48.314 -29.100  -0.851  1.00  0.00     0.238 C 
HETATM    6  N   UNL     1      47.811 -30.034   0.225  1.00  0.00    -0.067 N 
HETATM    7  H   UNL     1      48.554 -30.734   0.335  1.00  0.00     0.280 HD
HETATM    8  C   UNL     1      46.598 -30.808  -0.244  1.00  0.00     0.238 C 
HETATM    9  C   UNL     1      45.494 -29.853  -0.676  1.00  0.00     0.066 C 
HETATM   10  C   UNL     1      44.866 -27.968  -2.253  1.00  0.00     0.041 C 
HETATM   11  C   UNL     1      45.083 -27.908  -3.747  1.00  0.00     0.036 C 
ENDROOT
BRANCH   1  12
HETATM   12  C   UNL     1      44.477 -30.322  -4.317  1.00  0.00     0.155 C 
BRANCH  12  13
HETATM   13  N   UNL     1      44.443 -30.773  -5.698  1.00  0.00    -0.353 N 
HETATM   14  C   UNL     1      44.482 -32.105  -6.051  1.00  0.00     0.270 C 
HETATM   15  O   UNL     1      44.493 -33.004  -5.213  1.00  0.00    -0.266 OA
HETATM   16  H   UNL     1      44.410 -30.075  -6.427  1.00  0.00     0.162 HD
BRANCH  14  17
HETATM   17  C   UNL     1      44.514 -32.357  -7.473  1.00  0.00     0.122 A 
HETATM   18  N   UNL     1      45.666 -32.454  -8.220  1.00  0.00    -0.269 N 
HETATM   19  N   UNL     1      45.450 -32.634  -9.535  1.00  0.00    -0.177 NA
HETATM   20  C   UNL     1      47.031 -32.404  -7.745  1.00  0.00     0.180 C 
HETATM   21  C   UNL     1      44.122 -32.704  -9.646  1.00  0.00     0.053 A 
HETATM   22  C   UNL     1      43.483 -32.920 -10.967  1.00  0.00     0.072 C 
HETATM   23  C   UNL     1      43.492 -32.535  -8.394  1.00  0.00     0.065 A 
ENDBRANCH  14  17
ENDBRANCH  12  13
ENDBRANCH   1  12
BRANCH   6  24
HETATM   24  C   UNL     1      47.643 -29.430   1.601  1.00  0.00     0.273 C 
BRANCH  24  25
HETATM   25  C   UNL     1      48.683 -29.892   2.585  1.00  0.00    -0.033 A 
HETATM   26  C   UNL     1      48.306 -30.297   3.876  1.00  0.00     0.010 A 
HETATM   27  C   UNL     1      49.274 -30.668   4.812  1.00  0.00     0.021 A 
HETATM   28  C   UNL     1      50.624 -30.643   4.468  1.00  0.00     0.017 A 
HETATM   29  C   UNL     1      51.008 -30.259   3.182  1.00  0.00     0.021 A 
HETATM   30  C   UNL     1      50.044 -29.887   2.243  1.00  0.00     0.010 A 
BRANCH  28  31
HETATM   31  C   UNL     1      51.615 -30.996   5.432  1.00  0.00    -0.064 C 
BRANCH  31  32
HETATM   32  C   UNL     1      52.539 -31.296   6.302  1.00  0.00    -0.064 C 
BRANCH  32  33
HETATM   33  C   UNL     1      53.616 -31.647   7.315  1.00  0.00     0.114 C 
HETATM   34  C   UNL     1      52.980 -32.146   8.609  1.00  0.00     0.060 C 
HETATM   35  C   UNL     1      54.564 -32.687   6.730  1.00  0.00     0.060 C 
BRANCH  33  36
HETATM   36  O   UNL     1      54.368 -30.470   7.594  1.00  0.00    -0.378 OA
HETATM   37  H   UNL     1      55.092 -30.724   8.189  1.00  0.00     0.211 HD
ENDBRANCH  33  36
ENDBRANCH  32  33
ENDBRANCH  31  32
ENDBRANCH  28  31
ENDBRANCH  24  25
ENDBRANCH   6  24
TORSDOF 9
ENDMDL
