MODEL 1
REMARK VINA RESULT:      -8.1      0.000      0.000
REMARK  5 active torsions:
REMARK  status: ('A' for Active; 'I' for Inactive)
REMARK    1  A    between atoms: C_4  and  O_5 
REMARK    2  A    between atoms: O_5  and  C_6 
REMARK    3  A    between atoms: C_6  and  C_7 
REMARK       I    between atoms: C_7  and  N_8 
REMARK    4  A    between atoms: N_8  and  N_9 
REMARK    5  A    between atoms: C_10  and  C_11 
ROOT
HETATM    1  C   UNL     1      41.224 -15.642   3.866  1.00  0.00     0.261 C 
HETATM    2  N   UNL     1      41.322 -14.649   2.896  1.00  0.00    -0.246 N 
HETATM    3  O   UNL     1      40.244 -16.351   4.084  1.00  0.00    -0.269 OA
HETATM    4  H   UNL     1      42.096 -13.993   2.988  1.00  0.00     0.192 HD
ENDROOT
BRANCH   2   5
HETATM    5  N   UNL     1      40.338 -14.238   2.027  1.00  0.00    -0.184 NA
HETATM    6  C   UNL     1      40.500 -13.137   1.366  1.00  0.00     0.152 C 
BRANCH   6   7
HETATM    7  C   UNL     1      39.482 -12.701   0.429  1.00  0.00     0.011 A 
HETATM    8  C   UNL     1      39.096 -13.366  -0.781  1.00  0.00     0.004 A 
HETATM    9  C   UNL     1      38.101 -12.595  -1.383  1.00  0.00     0.043 A 
HETATM   10  C   UNL     1      39.496 -14.561  -1.416  1.00  0.00     0.014 A 
HETATM   11  C   UNL     1      37.492 -12.954  -2.592  1.00  0.00     0.030 A 
HETATM   12  N   UNL     1      37.887 -11.506  -0.570  1.00  0.00    -0.364 N 
HETATM   13  C   UNL     1      37.907 -14.143  -3.199  1.00  0.00     0.002 A 
HETATM   14  C   UNL     1      38.894 -14.938  -2.622  1.00  0.00     0.001 A 
HETATM   15  H   UNL     1      37.216 -10.773  -0.759  1.00  0.00     0.165 HD
HETATM   16  C   UNL     1      38.706 -11.562   0.525  1.00  0.00     0.102 A 
ENDBRANCH   6   7
ENDBRANCH   2   5
BRANCH   1  17
HETATM   17  C   UNL     1      42.534 -15.863   4.613  1.00  0.00     0.280 C 
BRANCH  17  18
HETATM   18  O   UNL     1      43.564 -16.316   3.739  1.00  0.00    -0.342 OA
BRANCH  18  19
HETATM   19  C   UNL     1      43.607 -17.678   3.573  1.00  0.00     0.069 A 
HETATM   20  C   UNL     1      43.990 -18.589   4.562  1.00  0.00     0.043 A 
HETATM   21  C   UNL     1      44.017 -19.964   4.292  1.00  0.00    -0.059 A 
HETATM   22  C   UNL     1      44.408 -20.943   5.360  1.00  0.00     0.048 C 
HETATM   23  C   UNL     1      43.620 -20.421   3.030  1.00  0.00     0.007 A 
HETATM   24  C   UNL     1      43.215 -19.514   2.049  1.00  0.00     0.003 A 
HETATM   25  C   UNL     1      43.203 -18.147   2.324  1.00  0.00     0.037 A 
ENDBRANCH  18  19
ENDBRANCH  17  18
ENDBRANCH   1  17
TORSDOF 5
ENDMDL
MODEL 2
REMARK VINA RESULT:      -8.0      1.854      8.366
REMARK  5 active torsions:
REMARK  status: ('A' for Active; 'I' for Inactive)
REMARK    1  A    between atoms: C_4  and  O_5 
REMARK    2  A    between atoms: O_5  and  C_6 
REMARK    3  A    between atoms: C_6  and  C_7 
REMARK       I    between atoms: C_7  and  N_8 
REMARK    4  A    between atoms: N_8  and  N_9 
REMARK    5  A    between atoms: C_10  and  C_11 
ROOT
HETATM    1  C   UNL     1      40.143 -13.457   2.659  1.00  0.00     0.261 C 
HETATM    2  N   UNL     1      40.903 -14.518   2.179  1.00  0.00    -0.246 N 
HETATM    3  O   UNL     1      39.849 -13.246   3.834  1.00  0.00    -0.269 OA
HETATM    4  H   UNL     1      40.864 -14.692   1.176  1.00  0.00     0.192 HD
ENDROOT
BRANCH   2   5
HETATM    5  N   UNL     1      41.435 -15.555   2.909  1.00  0.00    -0.184 NA
HETATM    6  C   UNL     1      42.722 -15.668   2.999  1.00  0.00     0.152 C 
BRANCH   6   7
HETATM    7  C   UNL     1      43.299 -16.743   3.783  1.00  0.00     0.011 A 
HETATM    8  C   UNL     1      43.400 -18.120   3.397  1.00  0.00     0.004 A 
HETATM    9  C   UNL     1      44.000 -18.807   4.453  1.00  0.00     0.043 A 
HETATM   10  C   UNL     1      43.044 -18.845   2.239  1.00  0.00     0.014 A 
HETATM   11  C   UNL     1      44.254 -20.184   4.413  1.00  0.00     0.030 A 
HETATM   12  N   UNL     1      44.257 -17.885   5.441  1.00  0.00    -0.364 N 
HETATM   13  C   UNL     1      43.891 -20.878   3.255  1.00  0.00     0.002 A 
HETATM   14  C   UNL     1      43.296 -20.220   2.181  1.00  0.00     0.001 A 
HETATM   15  H   UNL     1      44.690 -18.102   6.328  1.00  0.00     0.165 HD
HETATM   16  C   UNL     1      43.846 -16.641   5.048  1.00  0.00     0.102 A 
ENDBRANCH   6   7
ENDBRANCH   2   5
BRANCH   1  17
HETATM   17  C   UNL     1      39.764 -12.463   1.566  1.00  0.00     0.280 C 
BRANCH  17  18
HETATM   18  O   UNL     1      40.395 -12.783   0.330  1.00  0.00    -0.342 OA
BRANCH  18  19
HETATM   19  C   UNL     1      39.525 -13.034  -0.701  1.00  0.00     0.069 A 
HETATM   20  C   UNL     1      38.579 -12.125  -1.185  1.00  0.00     0.043 A 
HETATM   21  C   UNL     1      37.721 -12.480  -2.235  1.00  0.00    -0.059 A 
HETATM   22  C   UNL     1      36.721 -11.497  -2.768  1.00  0.00     0.048 C 
HETATM   23  C   UNL     1      37.846 -13.745  -2.821  1.00  0.00     0.007 A 
HETATM   24  C   UNL     1      38.805 -14.646  -2.354  1.00  0.00     0.003 A 
HETATM   25  C   UNL     1      39.646 -14.287  -1.301  1.00  0.00     0.037 A 
ENDBRANCH  18  19
ENDBRANCH  17  18
ENDBRANCH   1  17
TORSDOF 5
ENDMDL
MODEL 3
REMARK VINA RESULT:      -8.0      2.370      8.093
REMARK  5 active torsions:
REMARK  status: ('A' for Active; 'I' for Inactive)
REMARK    1  A    between atoms: C_4  and  O_5 
REMARK    2  A    between atoms: O_5  and  C_6 
REMARK    3  A    between atoms: C_6  and  C_7 
REMARK       I    between atoms: C_7  and  N_8 
REMARK    4  A    between atoms: N_8  and  N_9 
REMARK    5  A    between atoms: C_10  and  C_11 
ROOT
HETATM    1  C   UNL     1      42.170 -12.163   2.482  1.00  0.00     0.261 C 
HETATM    2  N   UNL     1      42.518 -13.470   2.156  1.00  0.00    -0.246 N 
HETATM    3  O   UNL     1      42.280 -11.635   3.587  1.00  0.00    -0.269 OA
HETATM    4  H   UNL     1      42.154 -13.835   1.277  1.00  0.00     0.192 HD
ENDROOT
BRANCH   2   5
HETATM    5  N   UNL     1      43.009 -14.434   3.005  1.00  0.00    -0.184 NA
HETATM    6  C   UNL     1      42.795 -15.681   2.734  1.00  0.00     0.152 C 
BRANCH   6   7
HETATM    7  C   UNL     1      43.325 -16.711   3.607  1.00  0.00     0.011 A 
HETATM    8  C   UNL     1      43.421 -18.111   3.313  1.00  0.00     0.004 A 
HETATM    9  C   UNL     1      43.968 -18.737   4.433  1.00  0.00     0.043 A 
HETATM   10  C   UNL     1      43.101 -18.904   2.190  1.00  0.00     0.014 A 
HETATM   11  C   UNL     1      44.203 -20.117   4.491  1.00  0.00     0.030 A 
HETATM   12  N   UNL     1      44.198 -17.757   5.372  1.00  0.00    -0.364 N 
HETATM   13  C   UNL     1      43.877 -20.878   3.365  1.00  0.00     0.002 A 
HETATM   14  C   UNL     1      43.335 -20.283   2.228  1.00  0.00     0.001 A 
HETATM   15  H   UNL     1      44.592 -17.923   6.288  1.00  0.00     0.165 HD
HETATM   16  C   UNL     1      43.822 -16.536   4.884  1.00  0.00     0.102 A 
ENDBRANCH   6   7
ENDBRANCH   2   5
BRANCH   1  17
HETATM   17  C   UNL     1      41.707 -11.359   1.272  1.00  0.00     0.280 C 
BRANCH  17  18
HETATM   18  O   UNL     1      40.416 -11.773   0.834  1.00  0.00    -0.342 OA
BRANCH  18  19
HETATM   19  C   UNL     1      40.394 -12.312  -0.428  1.00  0.00     0.069 A 
HETATM   20  C   UNL     1      39.635 -13.424  -0.805  1.00  0.00     0.043 A 
HETATM   21  C   UNL     1      39.690 -13.912  -2.118  1.00  0.00    -0.059 A 
HETATM   22  C   UNL     1      38.859 -15.093  -2.528  1.00  0.00     0.048 C 
HETATM   23  C   UNL     1      40.486 -13.251  -3.060  1.00  0.00     0.007 A 
HETATM   24  C   UNL     1      41.227 -12.127  -2.691  1.00  0.00     0.003 A 
HETATM   25  C   UNL     1      41.174 -11.656  -1.379  1.00  0.00     0.037 A 
ENDBRANCH  18  19
ENDBRANCH  17  18
ENDBRANCH   1  17
TORSDOF 5
ENDMDL
MODEL 4
REMARK VINA RESULT:      -7.9      4.690      7.412
REMARK  5 active torsions:
REMARK  status: ('A' for Active; 'I' for Inactive)
REMARK    1  A    between atoms: C_4  and  O_5 
REMARK    2  A    between atoms: O_5  and  C_6 
REMARK    3  A    between atoms: C_6  and  C_7 
REMARK       I    between atoms: C_7  and  N_8 
REMARK    4  A    between atoms: N_8  and  N_9 
REMARK    5  A    between atoms: C_10  and  C_11 
ROOT
HETATM    1  C   UNL     1      40.698 -14.331   4.035  1.00  0.00     0.261 C 
HETATM    2  N   UNL     1      41.545 -14.124   5.120  1.00  0.00    -0.246 N 
HETATM    3  O   UNL     1      39.912 -13.513   3.559  1.00  0.00    -0.269 OA
HETATM    4  H   UNL     1      41.958 -14.954   5.543  1.00  0.00     0.192 HD
ENDROOT
BRANCH   2   5
HETATM    5  N   UNL     1      41.639 -12.992   5.894  1.00  0.00    -0.184 NA
HETATM    6  C   UNL     1      42.703 -12.259   5.811  1.00  0.00     0.152 C 
BRANCH   6   7
HETATM    7  C   UNL     1      42.810 -11.049   6.605  1.00  0.00     0.011 A 
HETATM    8  C   UNL     1      44.006 -10.518   7.191  1.00  0.00     0.004 A 
HETATM    9  C   UNL     1      43.652  -9.359   7.883  1.00  0.00     0.043 A 
HETATM   10  C   UNL     1      45.361 -10.911   7.188  1.00  0.00     0.014 A 
HETATM   11  C   UNL     1      44.584  -8.579   8.580  1.00  0.00     0.030 A 
HETATM   12  N   UNL     1      42.296  -9.190   7.723  1.00  0.00    -0.364 N 
HETATM   13  C   UNL     1      45.920  -8.992   8.561  1.00  0.00     0.002 A 
HETATM   14  C   UNL     1      46.306 -10.141   7.874  1.00  0.00     0.001 A 
HETATM   15  H   UNL     1      41.764  -8.427   8.119  1.00  0.00     0.165 HD
HETATM   16  C   UNL     1      41.780 -10.195   6.952  1.00  0.00     0.102 A 
ENDBRANCH   6   7
ENDBRANCH   2   5
BRANCH   1  17
HETATM   17  C   UNL     1      40.902 -15.693   3.382  1.00  0.00     0.280 C 
BRANCH  17  18
HETATM   18  O   UNL     1      42.196 -15.802   2.795  1.00  0.00    -0.342 OA
BRANCH  18  19
HETATM   19  C   UNL     1      42.861 -16.962   3.103  1.00  0.00     0.069 A 
HETATM   20  C   UNL     1      42.889 -18.102   2.294  1.00  0.00     0.043 A 
HETATM   21  C   UNL     1      43.586 -19.248   2.702  1.00  0.00    -0.059 A 
HETATM   22  C   UNL     1      43.633 -20.464   1.824  1.00  0.00     0.048 C 
HETATM   23  C   UNL     1      44.285 -19.227   3.914  1.00  0.00     0.007 A 
HETATM   24  C   UNL     1      44.277 -18.082   4.712  1.00  0.00     0.003 A 
HETATM   25  C   UNL     1      43.571 -16.951   4.302  1.00  0.00     0.037 A 
ENDBRANCH  18  19
ENDBRANCH  17  18
ENDBRANCH   1  17
TORSDOF 5
ENDMDL
MODEL 5
REMARK VINA RESULT:      -7.9      1.842      2.981
REMARK  5 active torsions:
REMARK  status: ('A' for Active; 'I' for Inactive)
REMARK    1  A    between atoms: C_4  and  O_5 
REMARK    2  A    between atoms: O_5  and  C_6 
REMARK    3  A    between atoms: C_6  and  C_7 
REMARK       I    between atoms: C_7  and  N_8 
REMARK    4  A    between atoms: N_8  and  N_9 
REMARK    5  A    between atoms: C_10  and  C_11 
ROOT
HETATM    1  C   UNL     1      42.239 -13.689   1.705  1.00  0.00     0.261 C 
HETATM    2  N   UNL     1      41.531 -14.343   0.701  1.00  0.00    -0.246 N 
HETATM    3  O   UNL     1      42.185 -12.490   1.971  1.00  0.00    -0.269 OA
HETATM    4  H   UNL     1      41.852 -15.276   0.448  1.00  0.00     0.192 HD
ENDROOT
BRANCH   2   5
HETATM    5  N   UNL     1      40.673 -13.776  -0.212  1.00  0.00    -0.184 NA
HETATM    6  C   UNL     1      39.741 -14.504  -0.737  1.00  0.00     0.152 C 
BRANCH   6   7
HETATM    7  C   UNL     1      38.814 -13.916  -1.686  1.00  0.00     0.011 A 
HETATM    8  C   UNL     1      38.103 -12.682  -1.528  1.00  0.00     0.004 A 
HETATM    9  C   UNL     1      37.309 -12.508  -2.663  1.00  0.00     0.043 A 
HETATM   10  C   UNL     1      38.067 -11.689  -0.526  1.00  0.00     0.014 A 
HETATM   11  C   UNL     1      36.476 -11.397  -2.843  1.00  0.00     0.030 A 
HETATM   12  N   UNL     1      37.532 -13.593  -3.481  1.00  0.00    -0.364 N 
HETATM   13  C   UNL     1      36.461 -10.428  -1.834  1.00  0.00     0.002 A 
HETATM   14  C   UNL     1      37.245 -10.569  -0.692  1.00  0.00     0.001 A 
HETATM   15  H   UNL     1      37.087 -13.734  -4.377  1.00  0.00     0.165 HD
HETATM   16  C   UNL     1      38.438 -14.442  -2.907  1.00  0.00     0.102 A 
ENDBRANCH   6   7
ENDBRANCH   2   5
BRANCH   1  17
HETATM   17  C   UNL     1      43.057 -14.646   2.565  1.00  0.00     0.280 C 
BRANCH  17  18
HETATM   18  O   UNL     1      42.242 -15.669   3.128  1.00  0.00    -0.342 OA
BRANCH  18  19
HETATM   19  C   UNL     1      42.891 -16.860   3.336  1.00  0.00     0.069 A 
HETATM   20  C   UNL     1      42.848 -17.953   2.464  1.00  0.00     0.043 A 
HETATM   21  C   UNL     1      43.534 -19.136   2.770  1.00  0.00    -0.059 A 
HETATM   22  C   UNL     1      43.505 -20.301   1.824  1.00  0.00     0.048 C 
HETATM   23  C   UNL     1      44.294 -19.201   3.944  1.00  0.00     0.007 A 
HETATM   24  C   UNL     1      44.356 -18.104   4.804  1.00  0.00     0.003 A 
HETATM   25  C   UNL     1      43.660 -16.935   4.495  1.00  0.00     0.037 A 
ENDBRANCH  18  19
ENDBRANCH  17  18
ENDBRANCH   1  17
TORSDOF 5
ENDMDL
MODEL 6
REMARK VINA RESULT:      -7.9      6.743     10.042
REMARK  5 active torsions:
REMARK  status: ('A' for Active; 'I' for Inactive)
REMARK    1  A    between atoms: C_4  and  O_5 
REMARK    2  A    between atoms: O_5  and  C_6 
REMARK    3  A    between atoms: C_6  and  C_7 
REMARK       I    between atoms: C_7  and  N_8 
REMARK    4  A    between atoms: N_8  and  N_9 
REMARK    5  A    between atoms: C_10  and  C_11 
ROOT
HETATM    1  C   UNL     1      44.439 -11.485   7.467  1.00  0.00     0.261 C 
HETATM    2  N   UNL     1      43.525 -12.532   7.536  1.00  0.00    -0.246 N 
HETATM    3  O   UNL     1      45.601 -11.558   7.069  1.00  0.00    -0.269 OA
HETATM    4  H   UNL     1      42.692 -12.375   8.100  1.00  0.00     0.192 HD
ENDROOT
BRANCH   2   5
HETATM    5  N   UNL     1      43.749 -13.851   7.217  1.00  0.00    -0.184 NA
HETATM    6  C   UNL     1      43.237 -14.332   6.130  1.00  0.00     0.152 C 
BRANCH   6   7
HETATM    7  C   UNL     1      43.481 -15.716   5.768  1.00  0.00     0.011 A 
HETATM    8  C   UNL     1      43.397 -16.279   4.452  1.00  0.00     0.004 A 
HETATM    9  C   UNL     1      43.688 -17.640   4.561  1.00  0.00     0.043 A 
HETATM   10  C   UNL     1      43.108 -15.754   3.175  1.00  0.00     0.014 A 
HETATM   11  C   UNL     1      43.697 -18.503   3.458  1.00  0.00     0.030 A 
HETATM   12  N   UNL     1      43.943 -17.893   5.890  1.00  0.00    -0.364 N 
HETATM   13  C   UNL     1      43.408 -17.956   2.204  1.00  0.00     0.002 A 
HETATM   14  C   UNL     1      43.118 -16.601   2.061  1.00  0.00     0.001 A 
HETATM   15  H   UNL     1      44.183 -18.802   6.263  1.00  0.00     0.165 HD
HETATM   16  C   UNL     1      43.828 -16.744   6.623  1.00  0.00     0.102 A 
ENDBRANCH   6   7
ENDBRANCH   2   5
BRANCH   1  17
HETATM   17  C   UNL     1      43.825 -10.143   7.850  1.00  0.00     0.280 C 
BRANCH  17  18
HETATM   18  O   UNL     1      44.680  -9.408   8.721  1.00  0.00    -0.342 OA
BRANCH  18  19
HETATM   19  C   UNL     1      44.022  -8.574   9.589  1.00  0.00     0.069 A 
HETATM   20  C   UNL     1      43.859  -8.816  10.956  1.00  0.00     0.043 A 
HETATM   21  C   UNL     1      43.155  -7.909  11.761  1.00  0.00    -0.059 A 
HETATM   22  C   UNL     1      42.999  -8.158  13.233  1.00  0.00     0.048 C 
HETATM   23  C   UNL     1      42.647  -6.738  11.188  1.00  0.00     0.007 A 
HETATM   24  C   UNL     1      42.827  -6.484   9.828  1.00  0.00     0.003 A 
HETATM   25  C   UNL     1      43.519  -7.398   9.033  1.00  0.00     0.037 A 
ENDBRANCH  18  19
ENDBRANCH  17  18
ENDBRANCH   1  17
TORSDOF 5
ENDMDL
MODEL 7
REMARK VINA RESULT:      -7.8      6.280      8.925
REMARK  5 active torsions:
REMARK  status: ('A' for Active; 'I' for Inactive)
REMARK    1  A    between atoms: C_4  and  O_5 
REMARK    2  A    between atoms: O_5  and  C_6 
REMARK    3  A    between atoms: C_6  and  C_7 
REMARK       I    between atoms: C_7  and  N_8 
REMARK    4  A    between atoms: N_8  and  N_9 
REMARK    5  A    between atoms: C_10  and  C_11 
ROOT
HETATM    1  C   UNL     1      45.381 -11.378   6.511  1.00  0.00     0.261 C 
HETATM    2  N   UNL     1      44.573 -12.358   7.079  1.00  0.00    -0.246 N 
HETATM    3  O   UNL     1      45.573 -11.199   5.309  1.00  0.00    -0.269 OA
HETATM    4  H   UNL     1      44.696 -12.532   8.075  1.00  0.00     0.192 HD
ENDROOT
BRANCH   2   5
HETATM    5  N   UNL     1      43.872 -13.340   6.418  1.00  0.00    -0.184 NA
HETATM    6  C   UNL     1      42.631 -13.132   6.116  1.00  0.00     0.152 C 
BRANCH   6   7
HETATM    7  C   UNL     1      41.882 -14.149   5.400  1.00  0.00     0.011 A 
HETATM    8  C   UNL     1      42.161 -14.642   4.083  1.00  0.00     0.004 A 
HETATM    9  C   UNL     1      41.185 -15.592   3.777  1.00  0.00     0.043 A 
HETATM   10  C   UNL     1      43.161 -14.375   3.124  1.00  0.00     0.014 A 
HETATM   11  C   UNL     1      41.154 -16.281   2.558  1.00  0.00     0.030 A 
HETATM   12  N   UNL     1      40.348 -15.675   4.866  1.00  0.00    -0.364 N 
HETATM   13  C   UNL     1      42.157 -15.996   1.627  1.00  0.00     0.002 A 
HETATM   14  C   UNL     1      43.149 -15.058   1.903  1.00  0.00     0.001 A 
HETATM   15  H   UNL     1      39.546 -16.288   4.925  1.00  0.00     0.165 HD
HETATM   16  C   UNL     1      40.761 -14.818   5.849  1.00  0.00     0.102 A 
ENDBRANCH   6   7
ENDBRANCH   2   5
BRANCH   1  17
HETATM   17  C   UNL     1      45.963 -10.423   7.548  1.00  0.00     0.280 C 
BRANCH  17  18
HETATM   18  O   UNL     1      45.466 -10.705   8.853  1.00  0.00    -0.342 OA
BRANCH  18  19
HETATM   19  C   UNL     1      44.746  -9.682   9.417  1.00  0.00     0.069 A 
HETATM   20  C   UNL     1      44.342  -9.635  10.755  1.00  0.00     0.043 A 
HETATM   21  C   UNL     1      43.594  -8.552  11.236  1.00  0.00    -0.059 A 
HETATM   22  C   UNL     1      43.179  -8.492  12.677  1.00  0.00     0.048 C 
HETATM   23  C   UNL     1      43.285  -7.496  10.370  1.00  0.00     0.007 A 
HETATM   24  C   UNL     1      43.707  -7.530   9.040  1.00  0.00     0.003 A 
HETATM   25  C   UNL     1      44.441  -8.618   8.568  1.00  0.00     0.037 A 
ENDBRANCH  18  19
ENDBRANCH  17  18
ENDBRANCH   1  17
TORSDOF 5
ENDMDL
MODEL 8
REMARK VINA RESULT:      -7.5      3.129      9.104
REMARK  5 active torsions:
REMARK  status: ('A' for Active; 'I' for Inactive)
REMARK    1  A    between atoms: C_4  and  O_5 
REMARK    2  A    between atoms: O_5  and  C_6 
REMARK    3  A    between atoms: C_6  and  C_7 
REMARK       I    between atoms: C_7  and  N_8 
REMARK    4  A    between atoms: N_8  and  N_9 
REMARK    5  A    between atoms: C_10  and  C_11 
ROOT
HETATM    1  C   UNL     1      40.744 -13.801   0.793  1.00  0.00     0.261 C 
HETATM    2  N   UNL     1      41.740 -14.771   0.859  1.00  0.00    -0.246 N 
HETATM    3  O   UNL     1      39.940 -13.521   1.680  1.00  0.00    -0.269 OA
HETATM    4  H   UNL     1      42.167 -15.049  -0.023  1.00  0.00     0.192 HD
ENDROOT
BRANCH   2   5
HETATM    5  N   UNL     1      41.993 -15.630   1.903  1.00  0.00    -0.184 NA
HETATM    6  C   UNL     1      43.219 -15.927   2.191  1.00  0.00     0.152 C 
BRANCH   6   7
HETATM    7  C   UNL     1      43.505 -16.815   3.302  1.00  0.00     0.011 A 
HETATM    8  C   UNL     1      43.599 -18.244   3.248  1.00  0.00     0.004 A 
HETATM    9  C   UNL     1      43.867 -18.694   4.542  1.00  0.00     0.043 A 
HETATM   10  C   UNL     1      43.491 -19.198   2.214  1.00  0.00     0.014 A 
HETATM   11  C   UNL     1      44.023 -20.050   4.855  1.00  0.00     0.030 A 
HETATM   12  N   UNL     1      43.936 -17.583   5.350  1.00  0.00    -0.364 N 
HETATM   13  C   UNL     1      43.910 -20.974   3.811  1.00  0.00     0.002 A 
HETATM   14  C   UNL     1      43.649 -20.557   2.508  1.00  0.00     0.001 A 
HETATM   15  H   UNL     1      44.118 -17.609   6.344  1.00  0.00     0.165 HD
HETATM   16  C   UNL     1      43.726 -16.448   4.616  1.00  0.00     0.102 A 
ENDBRANCH   6   7
ENDBRANCH   2   5
BRANCH   1  17
HETATM   17  C   UNL     1      40.792 -12.997  -0.502  1.00  0.00     0.280 C 
BRANCH  17  18
HETATM   18  O   UNL     1      40.035 -11.795  -0.399  1.00  0.00    -0.342 OA
BRANCH  18  19
HETATM   19  C   UNL     1      40.478 -10.776  -1.204  1.00  0.00     0.069 A 
HETATM   20  C   UNL     1      41.574  -9.957  -0.920  1.00  0.00     0.043 A 
HETATM   21  C   UNL     1      41.942  -8.929  -1.799  1.00  0.00    -0.059 A 
HETATM   22  C   UNL     1      43.131  -8.062  -1.505  1.00  0.00     0.048 C 
HETATM   23  C   UNL     1      41.221  -8.754  -2.986  1.00  0.00     0.007 A 
HETATM   24  C   UNL     1      40.140  -9.585  -3.281  1.00  0.00     0.003 A 
HETATM   25  C   UNL     1      39.775 -10.598  -2.394  1.00  0.00     0.037 A 
ENDBRANCH  18  19
ENDBRANCH  17  18
ENDBRANCH   1  17
TORSDOF 5
ENDMDL
MODEL 9
REMARK VINA RESULT:      -7.4      5.276      8.091
REMARK  5 active torsions:
REMARK  status: ('A' for Active; 'I' for Inactive)
REMARK    1  A    between atoms: C_4  and  O_5 
REMARK    2  A    between atoms: O_5  and  C_6 
REMARK    3  A    between atoms: C_6  and  C_7 
REMARK       I    between atoms: C_7  and  N_8 
REMARK    4  A    between atoms: N_8  and  N_9 
REMARK    5  A    between atoms: C_10  and  C_11 
ROOT
HETATM    1  C   UNL     1      41.694 -13.978   5.396  1.00  0.00     0.261 C 
HETATM    2  N   UNL     1      42.796 -13.852   6.236  1.00  0.00    -0.246 N 
HETATM    3  O   UNL     1      41.009 -13.058   4.952  1.00  0.00    -0.269 OA
HETATM    4  H   UNL     1      43.112 -14.699   6.706  1.00  0.00     0.192 HD
ENDROOT
BRANCH   2   5
HETATM    5  N   UNL     1      43.307 -12.691   6.766  1.00  0.00    -0.184 NA
HETATM    6  C   UNL     1      44.573 -12.447   6.647  1.00  0.00     0.152 C 
BRANCH   6   7
HETATM    7  C   UNL     1      45.124 -11.216   7.181  1.00  0.00     0.011 A 
HETATM    8  C   UNL     1      44.397 -10.177   7.850  1.00  0.00     0.004 A 
HETATM    9  C   UNL     1      45.309  -9.173   8.177  1.00  0.00     0.043 A 
HETATM   10  C   UNL     1      43.046 -10.002   8.217  1.00  0.00     0.014 A 
HETATM   11  C   UNL     1      44.937  -7.999   8.844  1.00  0.00     0.030 A 
HETATM   12  N   UNL     1      46.543  -9.586   7.728  1.00  0.00    -0.364 N 
HETATM   13  C   UNL     1      43.591  -7.852   9.196  1.00  0.00     0.002 A 
HETATM   14  C   UNL     1      42.657  -8.838   8.889  1.00  0.00     0.001 A 
HETATM   15  H   UNL     1      47.396  -9.053   7.828  1.00  0.00     0.165 HD
HETATM   16  C   UNL     1      46.445 -10.814   7.134  1.00  0.00     0.102 A 
ENDBRANCH   6   7
ENDBRANCH   2   5
BRANCH   1  17
HETATM   17  C   UNL     1      41.447 -15.418   4.963  1.00  0.00     0.280 C 
BRANCH  17  18
HETATM   18  O   UNL     1      42.120 -15.720   3.744  1.00  0.00    -0.342 OA
BRANCH  18  19
HETATM   19  C   UNL     1      42.793 -16.915   3.751  1.00  0.00     0.069 A 
HETATM   20  C   UNL     1      42.756 -17.856   2.716  1.00  0.00     0.043 A 
HETATM   21  C   UNL     1      43.469 -19.059   2.822  1.00  0.00    -0.059 A 
HETATM   22  C   UNL     1      43.445 -20.059   1.703  1.00  0.00     0.048 C 
HETATM   23  C   UNL     1      44.248 -19.294   3.960  1.00  0.00     0.007 A 
HETATM   24  C   UNL     1      44.304 -18.346   4.983  1.00  0.00     0.003 A 
HETATM   25  C   UNL     1      43.583 -17.158   4.874  1.00  0.00     0.037 A 
ENDBRANCH  18  19
ENDBRANCH  17  18
ENDBRANCH   1  17
TORSDOF 5
ENDMDL
MODEL 10
REMARK VINA RESULT:      -7.4      2.574      3.361
REMARK  5 active torsions:
REMARK  status: ('A' for Active; 'I' for Inactive)
REMARK    1  A    between atoms: C_4  and  O_5 
REMARK    2  A    between atoms: O_5  and  C_6 
REMARK    3  A    between atoms: C_6  and  C_7 
REMARK       I    between atoms: C_7  and  N_8 
REMARK    4  A    between atoms: N_8  and  N_9 
REMARK    5  A    between atoms: C_10  and  C_11 
ROOT
HETATM    1  C   UNL     1      41.066 -14.441   1.184  1.00  0.00     0.261 C 
HETATM    2  N   UNL     1      41.346 -13.785  -0.011  1.00  0.00    -0.246 N 
HETATM    3  O   UNL     1      40.046 -14.318   1.860  1.00  0.00    -0.269 OA
HETATM    4  H   UNL     1      42.314 -13.805  -0.328  1.00  0.00     0.192 HD
ENDROOT
BRANCH   2   5
HETATM    5  N   UNL     1      40.565 -12.848  -0.645  1.00  0.00    -0.184 NA
HETATM    6  C   UNL     1      39.892 -13.194  -1.695  1.00  0.00     0.152 C 
BRANCH   6   7
HETATM    7  C   UNL     1      39.047 -12.223  -2.364  1.00  0.00     0.011 A 
HETATM    8  C   UNL     1      39.484 -11.047  -3.057  1.00  0.00     0.004 A 
HETATM    9  C   UNL     1      38.346 -10.392  -3.528  1.00  0.00     0.043 A 
HETATM   10  C   UNL     1      40.748 -10.484  -3.338  1.00  0.00     0.014 A 
HETATM   11  C   UNL     1      38.406  -9.197  -4.257  1.00  0.00     0.030 A 
HETATM   12  N   UNL     1      37.259 -11.140  -3.139  1.00  0.00    -0.364 N 
HETATM   13  C   UNL     1      39.670  -8.661  -4.520  1.00  0.00     0.002 A 
HETATM   14  C   UNL     1      40.826  -9.293  -4.069  1.00  0.00     0.001 A 
HETATM   15  H   UNL     1      36.298 -10.902  -3.343  1.00  0.00     0.165 HD
HETATM   16  C   UNL     1      37.668 -12.246  -2.444  1.00  0.00     0.102 A 
ENDBRANCH   6   7
ENDBRANCH   2   5
BRANCH   1  17
HETATM   17  C   UNL     1      42.139 -15.456   1.562  1.00  0.00     0.280 C 
BRANCH  17  18
HETATM   18  O   UNL     1      41.959 -15.934   2.892  1.00  0.00    -0.342 OA
BRANCH  18  19
HETATM   19  C   UNL     1      42.672 -17.069   3.186  1.00  0.00     0.069 A 
HETATM   20  C   UNL     1      42.822 -18.161   2.325  1.00  0.00     0.043 A 
HETATM   21  C   UNL     1      43.559 -19.285   2.722  1.00  0.00    -0.059 A 
HETATM   22  C   UNL     1      43.738 -20.448   1.789  1.00  0.00     0.048 C 
HETATM   23  C   UNL     1      44.175 -19.290   3.978  1.00  0.00     0.007 A 
HETATM   24  C   UNL     1      44.045 -18.192   4.830  1.00  0.00     0.003 A 
HETATM   25  C   UNL     1      43.300 -17.083   4.430  1.00  0.00     0.037 A 
ENDBRANCH  18  19
ENDBRANCH  17  18
ENDBRANCH   1  17
TORSDOF 5
ENDMDL
