MODEL 1
REMARK VINA RESULT:     -10.0      0.000      0.000
REMARK  4 active torsions:
REMARK  status: ('A' for Active; 'I' for Inactive)
REMARK    1  A    between atoms: C_8  and  C_9 
REMARK    2  A    between atoms: C_9  and  C_10 
REMARK    3  A    between atoms: C_18  and  C_19 
REMARK    4  A    between atoms: C_28  and  N_29 
ROOT
HETATM    1  C   UNL     1      42.572 -13.274   2.861  1.00  0.00     0.030 A 
HETATM    2  C   UNL     1      41.629 -13.362   1.808  1.00  0.00     0.007 A 
HETATM    3  C   UNL     1      41.316 -14.661   1.365  1.00  0.00     0.068 A 
HETATM    4  C   UNL     1      40.407 -14.821   0.328  1.00  0.00     0.032 A 
HETATM    5  C   UNL     1      39.786 -13.734  -0.288  1.00  0.00     0.002 A 
HETATM    6  C   UNL     1      40.074 -12.449   0.143  1.00  0.00     0.001 A 
HETATM    7  C   UNL     1      40.984 -12.262   1.183  1.00  0.00     0.015 A 
HETATM    8  N   UNL     1      41.853 -15.768   1.903  1.00  0.00    -0.248 NA
HETATM    9  C   UNL     1      42.739 -15.663   2.921  1.00  0.00     0.068 A 
HETATM   10  C   UNL     1      43.147 -14.429   3.401  1.00  0.00     0.049 A 
ENDROOT
BRANCH   1  11
HETATM   11  C   UNL     1      43.023 -11.956   3.378  1.00  0.00     0.202 C 
HETATM   12  O   UNL     1      43.173 -11.026   2.584  1.00  0.00    -0.286 OA
BRANCH  11  13
HETATM   13  C   UNL     1      43.339 -11.791   4.837  1.00  0.00     0.121 C 
HETATM   14  C   UNL     1      42.287 -11.905   5.873  1.00  0.00     0.266 C 
HETATM   15  N   UNL     1      42.698 -11.883   7.166  1.00  0.00    -0.274 N 
HETATM   16  O   UNL     1      41.096 -12.004   5.598  1.00  0.00    -0.267 OA
HETATM   17  C   UNL     1      43.937 -11.515   7.586  1.00  0.00     0.330 C 
HETATM   18  H   UNL     1      41.989 -11.945   7.881  1.00  0.00     0.173 HD
HETATM   19  N   UNL     1      44.882 -11.321   6.589  1.00  0.00    -0.293 N 
HETATM   20  O   UNL     1      44.143 -11.366   8.789  1.00  0.00    -0.246 OA
HETATM   21  C   UNL     1      46.237 -10.980   7.016  1.00  0.00     0.162 C 
HETATM   22  C   UNL     1      44.600 -11.469   5.228  1.00  0.00     0.103 C 
BRANCH  22  23
HETATM   23  N   UNL     1      45.634 -11.294   4.313  1.00  0.00    -0.287 NA
HETATM   24  H   UNL     1      45.691 -10.322   3.974  1.00  0.00     0.125 HD
HETATM   25  H   UNL     1      46.537 -11.559   4.696  1.00  0.00     0.125 HD
ENDBRANCH  22  23
ENDBRANCH  11  13
ENDBRANCH   1  11
BRANCH   9  26
HETATM   26  C   UNL     1      43.222 -16.943   3.477  1.00  0.00    -0.007 A 
HETATM   27  C   UNL     1      43.465 -18.046   2.635  1.00  0.00     0.015 A 
HETATM   28  C   UNL     1      43.902 -19.273   3.145  1.00  0.00     0.024 A 
HETATM   29  C   UNL     1      44.096 -19.421   4.514  1.00  0.00     0.034 A 
HETATM   30 CL   UNL     1      44.624 -20.929   5.149  1.00  0.00    -0.084 Cl
HETATM   31  C   UNL     1      43.857 -18.353   5.374  1.00  0.00     0.024 A 
HETATM   32  C   UNL     1      43.422 -17.126   4.858  1.00  0.00     0.015 A 
ENDBRANCH   9  26
TORSDOF 4
ENDMDL
MODEL 2
REMARK VINA RESULT:      -9.4      3.216      5.803
REMARK  4 active torsions:
REMARK  status: ('A' for Active; 'I' for Inactive)
REMARK    1  A    between atoms: C_8  and  C_9 
REMARK    2  A    between atoms: C_9  and  C_10 
REMARK    3  A    between atoms: C_18  and  C_19 
REMARK    4  A    between atoms: C_28  and  N_29 
ROOT
HETATM    1  C   UNL     1      41.423 -15.264   4.257  1.00  0.00     0.030 A 
HETATM    2  C   UNL     1      42.299 -16.363   4.081  1.00  0.00     0.007 A 
HETATM    3  C   UNL     1      42.541 -16.753   2.751  1.00  0.00     0.068 A 
HETATM    4  C   UNL     1      43.382 -17.831   2.504  1.00  0.00     0.032 A 
HETATM    5  C   UNL     1      44.002 -18.537   3.536  1.00  0.00     0.002 A 
HETATM    6  C   UNL     1      43.784 -18.159   4.851  1.00  0.00     0.001 A 
HETATM    7  C   UNL     1      42.944 -17.081   5.124  1.00  0.00     0.015 A 
HETATM    8  N   UNL     1      42.000 -16.128   1.693  1.00  0.00    -0.248 NA
HETATM    9  C   UNL     1      41.179 -15.068   1.882  1.00  0.00     0.068 A 
HETATM   10  C   UNL     1      40.842 -14.632   3.153  1.00  0.00     0.049 A 
ENDROOT
BRANCH   1  11
HETATM   11  C   UNL     1      41.048 -14.792   5.616  1.00  0.00     0.202 C 
HETATM   12  O   UNL     1      40.450 -15.564   6.368  1.00  0.00    -0.286 OA
BRANCH  11  13
HETATM   13  C   UNL     1      41.350 -13.381   6.030  1.00  0.00     0.121 C 
HETATM   14  C   UNL     1      42.713 -12.972   6.440  1.00  0.00     0.266 C 
HETATM   15  N   UNL     1      42.913 -11.647   6.657  1.00  0.00    -0.274 N 
HETATM   16  O   UNL     1      43.627 -13.775   6.593  1.00  0.00    -0.267 OA
HETATM   17  C   UNL     1      41.930 -10.717   6.778  1.00  0.00     0.330 C 
HETATM   18  H   UNL     1      43.834 -11.359   6.951  1.00  0.00     0.173 HD
HETATM   19  N   UNL     1      40.646 -11.151   6.479  1.00  0.00    -0.293 N 
HETATM   20  O   UNL     1      42.220  -9.581   7.146  1.00  0.00    -0.246 OA
HETATM   21  C   UNL     1      39.578 -10.157   6.546  1.00  0.00     0.162 C 
HETATM   22  C   UNL     1      40.352 -12.462   6.095  1.00  0.00     0.103 C 
BRANCH  22  23
HETATM   23  N   UNL     1      39.035 -12.780   5.775  1.00  0.00    -0.287 NA
HETATM   24  H   UNL     1      38.363 -12.353   6.430  1.00  0.00     0.125 HD
HETATM   25  H   UNL     1      38.789 -12.501   4.829  1.00  0.00     0.125 HD
ENDBRANCH  22  23
ENDBRANCH  11  13
ENDBRANCH   1  11
BRANCH   9  26
HETATM   26  C   UNL     1      40.687 -14.419   0.650  1.00  0.00    -0.007 A 
HETATM   27  C   UNL     1      41.069 -13.101   0.331  1.00  0.00     0.015 A 
HETATM   28  C   UNL     1      40.596 -12.462  -0.820  1.00  0.00     0.024 A 
HETATM   29  C   UNL     1      39.722 -13.130  -1.671  1.00  0.00     0.034 A 
HETATM   30 CL   UNL     1      39.130 -12.346  -3.081  1.00  0.00    -0.084 Cl
HETATM   31  C   UNL     1      39.319 -14.430  -1.379  1.00  0.00     0.024 A 
HETATM   32  C   UNL     1      39.797 -15.067  -0.227  1.00  0.00     0.015 A 
ENDBRANCH   9  26
TORSDOF 4
ENDMDL
MODEL 3
REMARK VINA RESULT:      -9.2      3.014      5.401
REMARK  4 active torsions:
REMARK  status: ('A' for Active; 'I' for Inactive)
REMARK    1  A    between atoms: C_8  and  C_9 
REMARK    2  A    between atoms: C_9  and  C_10 
REMARK    3  A    between atoms: C_18  and  C_19 
REMARK    4  A    between atoms: C_28  and  N_29 
ROOT
HETATM    1  C   UNL     1      41.597 -15.253   4.287  1.00  0.00     0.030 A 
HETATM    2  C   UNL     1      42.404 -16.393   4.057  1.00  0.00     0.007 A 
HETATM    3  C   UNL     1      42.551 -16.786   2.714  1.00  0.00     0.068 A 
HETATM    4  C   UNL     1      43.320 -17.904   2.416  1.00  0.00     0.032 A 
HETATM    5  C   UNL     1      43.960 -18.648   3.408  1.00  0.00     0.002 A 
HETATM    6  C   UNL     1      43.836 -18.268   4.735  1.00  0.00     0.001 A 
HETATM    7  C   UNL     1      43.068 -17.150   5.059  1.00  0.00     0.015 A 
HETATM    8  N   UNL     1      41.983 -16.127   1.691  1.00  0.00    -0.248 NA
HETATM    9  C   UNL     1      41.230 -15.028   1.930  1.00  0.00     0.068 A 
HETATM   10  C   UNL     1      40.988 -14.584   3.220  1.00  0.00     0.049 A 
ENDROOT
BRANCH   1  11
HETATM   11  C   UNL     1      41.323 -14.772   5.667  1.00  0.00     0.202 C 
HETATM   12  O   UNL     1      40.708 -15.507   6.440  1.00  0.00    -0.286 OA
BRANCH  11  13
HETATM   13  C   UNL     1      41.748 -13.392   6.078  1.00  0.00     0.121 C 
HETATM   14  C   UNL     1      40.812 -12.245   6.014  1.00  0.00     0.266 C 
HETATM   15  N   UNL     1      41.247 -11.072   6.541  1.00  0.00    -0.274 N 
HETATM   16  O   UNL     1      39.700 -12.327   5.504  1.00  0.00    -0.267 OA
HETATM   17  C   UNL     1      42.533 -10.798   6.882  1.00  0.00     0.330 C 
HETATM   18  H   UNL     1      40.624 -10.280   6.489  1.00  0.00     0.173 HD
HETATM   19  N   UNL     1      43.412 -11.870   6.843  1.00  0.00    -0.293 N 
HETATM   20  O   UNL     1      42.841  -9.647   7.186  1.00  0.00    -0.246 OA
HETATM   21  C   UNL     1      44.789 -11.615   7.261  1.00  0.00     0.162 C 
HETATM   22  C   UNL     1      43.030 -13.159   6.461  1.00  0.00     0.103 C 
BRANCH  22  23
HETATM   23  N   UNL     1      43.984 -14.173   6.500  1.00  0.00    -0.287 NA
HETATM   24  H   UNL     1      44.137 -14.596   5.573  1.00  0.00     0.125 HD
HETATM   25  H   UNL     1      44.876 -13.850   6.863  1.00  0.00     0.125 HD
ENDBRANCH  22  23
ENDBRANCH  11  13
ENDBRANCH   1  11
BRANCH   9  26
HETATM   26  C   UNL     1      40.703 -14.346   0.731  1.00  0.00    -0.007 A 
HETATM   27  C   UNL     1      39.841 -15.018  -0.157  1.00  0.00     0.015 A 
HETATM   28  C   UNL     1      39.349 -14.396  -1.309  1.00  0.00     0.024 A 
HETATM   29  C   UNL     1      39.719 -13.087  -1.598  1.00  0.00     0.034 A 
HETATM   30 CL   UNL     1      39.125 -12.320  -3.017  1.00  0.00    -0.084 Cl
HETATM   31  C   UNL     1      40.576 -12.398  -0.744  1.00  0.00     0.024 A 
HETATM   32  C   UNL     1      41.064 -13.024   0.409  1.00  0.00     0.015 A 
ENDBRANCH   9  26
TORSDOF 4
ENDMDL
MODEL 4
REMARK VINA RESULT:      -9.2      2.523      5.817
REMARK  4 active torsions:
REMARK  status: ('A' for Active; 'I' for Inactive)
REMARK    1  A    between atoms: C_8  and  C_9 
REMARK    2  A    between atoms: C_9  and  C_10 
REMARK    3  A    between atoms: C_18  and  C_19 
REMARK    4  A    between atoms: C_28  and  N_29 
ROOT
HETATM    1  C   UNL     1      41.241 -13.488   2.975  1.00  0.00     0.030 A 
HETATM    2  C   UNL     1      41.927 -12.687   3.919  1.00  0.00     0.007 A 
HETATM    3  C   UNL     1      42.902 -13.343   4.694  1.00  0.00     0.068 A 
HETATM    4  C   UNL     1      43.607 -12.619   5.648  1.00  0.00     0.032 A 
HETATM    5  C   UNL     1      43.385 -11.258   5.858  1.00  0.00     0.002 A 
HETATM    6  C   UNL     1      42.437 -10.594   5.095  1.00  0.00     0.001 A 
HETATM    7  C   UNL     1      41.716 -11.299   4.132  1.00  0.00     0.015 A 
HETATM    8  N   UNL     1      43.194 -14.646   4.556  1.00  0.00    -0.248 NA
HETATM    9  C   UNL     1      42.539 -15.391   3.636  1.00  0.00     0.068 A 
HETATM   10  C   UNL     1      41.531 -14.851   2.852  1.00  0.00     0.049 A 
ENDROOT
BRANCH   1  11
HETATM   11  C   UNL     1      40.152 -12.923   2.135  1.00  0.00     0.202 C 
HETATM   12  O   UNL     1      39.033 -12.784   2.630  1.00  0.00    -0.286 OA
BRANCH  11  13
HETATM   13  C   UNL     1      40.415 -12.583   0.697  1.00  0.00     0.121 C 
HETATM   14  C   UNL     1      40.963 -11.263   0.303  1.00  0.00     0.266 C 
HETATM   15  N   UNL     1      41.298 -11.107  -1.003  1.00  0.00    -0.274 N 
HETATM   16  O   UNL     1      41.103 -10.342   1.099  1.00  0.00    -0.267 OA
HETATM   17  C   UNL     1      40.942 -11.951  -2.008  1.00  0.00     0.330 C 
HETATM   18  H   UNL     1      41.657 -10.208  -1.286  1.00  0.00     0.173 HD
HETATM   19  N   UNL     1      40.344 -13.140  -1.617  1.00  0.00    -0.293 N 
HETATM   20  O   UNL     1      41.152 -11.619  -3.172  1.00  0.00    -0.246 OA
HETATM   21  C   UNL     1      40.004 -14.089  -2.674  1.00  0.00     0.162 C 
HETATM   22  C   UNL     1      40.092 -13.467  -0.282  1.00  0.00     0.103 C 
BRANCH  22  23
HETATM   23  N   UNL     1      39.527 -14.708   0.002  1.00  0.00    -0.287 NA
HETATM   24  H   UNL     1      39.001 -14.700   0.888  1.00  0.00     0.125 HD
HETATM   25  H   UNL     1      38.913 -15.031  -0.740  1.00  0.00     0.125 HD
ENDBRANCH  22  23
ENDBRANCH  11  13
ENDBRANCH   1  11
BRANCH   9  26
HETATM   26  C   UNL     1      42.979 -16.796   3.526  1.00  0.00    -0.007 A 
HETATM   27  C   UNL     1      42.690 -17.552   2.373  1.00  0.00     0.015 A 
HETATM   28  C   UNL     1      43.079 -18.891   2.260  1.00  0.00     0.024 A 
HETATM   29  C   UNL     1      43.761 -19.502   3.307  1.00  0.00     0.034 A 
HETATM   30 CL   UNL     1      44.235 -21.149   3.178  1.00  0.00    -0.084 Cl
HETATM   31  C   UNL     1      44.055 -18.785   4.463  1.00  0.00     0.024 A 
HETATM   32  C   UNL     1      43.665 -17.444   4.571  1.00  0.00     0.015 A 
ENDBRANCH   9  26
TORSDOF 4
ENDMDL
MODEL 5
REMARK VINA RESULT:      -9.2      1.607      1.991
REMARK  4 active torsions:
REMARK  status: ('A' for Active; 'I' for Inactive)
REMARK    1  A    between atoms: C_8  and  C_9 
REMARK    2  A    between atoms: C_9  and  C_10 
REMARK    3  A    between atoms: C_18  and  C_19 
REMARK    4  A    between atoms: C_28  and  N_29 
ROOT
HETATM    1  C   UNL     1      41.675 -12.874   2.071  1.00  0.00     0.030 A 
HETATM    2  C   UNL     1      40.800 -13.136   0.989  1.00  0.00     0.007 A 
HETATM    3  C   UNL     1      40.680 -14.484   0.604  1.00  0.00     0.068 A 
HETATM    4  C   UNL     1      39.846 -14.813  -0.457  1.00  0.00     0.032 A 
HETATM    5  C   UNL     1      39.115 -13.848  -1.151  1.00  0.00     0.002 A 
HETATM    6  C   UNL     1      39.212 -12.517  -0.777  1.00  0.00     0.001 A 
HETATM    7  C   UNL     1      40.043 -12.162   0.285  1.00  0.00     0.015 A 
HETATM    8  N   UNL     1      41.333 -15.484   1.218  1.00  0.00    -0.248 NA
HETATM    9  C   UNL     1      42.152 -15.214   2.262  1.00  0.00     0.068 A 
HETATM   10  C   UNL     1      42.372 -13.915   2.692  1.00  0.00     0.049 A 
ENDROOT
BRANCH   1  11
HETATM   11  C   UNL     1      41.926 -11.484   2.536  1.00  0.00     0.202 C 
HETATM   12  O   UNL     1      42.509 -10.703   1.782  1.00  0.00    -0.286 OA
BRANCH  11  13
HETATM   13  C   UNL     1      41.520 -11.072   3.921  1.00  0.00     0.121 C 
HETATM   14  C   UNL     1      40.102 -10.810   4.264  1.00  0.00     0.266 C 
HETATM   15  N   UNL     1      39.823 -10.584   5.573  1.00  0.00    -0.274 N 
HETATM   16  O   UNL     1      39.213 -10.783   3.422  1.00  0.00    -0.267 OA
HETATM   17  C   UNL     1      40.747 -10.328   6.537  1.00  0.00     0.330 C 
HETATM   18  H   UNL     1      38.864 -10.390   5.817  1.00  0.00     0.173 HD
HETATM   19  N   UNL     1      42.073 -10.489   6.162  1.00  0.00    -0.293 N 
HETATM   20  O   UNL     1      40.369  -9.967   7.649  1.00  0.00    -0.246 OA
HETATM   21  C   UNL     1      43.084 -10.275   7.195  1.00  0.00     0.162 C 
HETATM   22  C   UNL     1      42.464 -10.870   4.876  1.00  0.00     0.103 C 
BRANCH  22  23
HETATM   23  N   UNL     1      43.822 -11.046   4.620  1.00  0.00    -0.287 NA
HETATM   24  H   UNL     1      44.254 -10.197   4.225  1.00  0.00     0.125 HD
HETATM   25  H   UNL     1      44.339 -11.320   5.450  1.00  0.00     0.125 HD
ENDBRANCH  22  23
ENDBRANCH  11  13
ENDBRANCH   1  11
BRANCH   9  26
HETATM   26  C   UNL     1      42.774 -16.391   2.901  1.00  0.00    -0.007 A 
HETATM   27  C   UNL     1      42.959 -17.587   2.180  1.00  0.00     0.015 A 
HETATM   28  C   UNL     1      43.526 -18.718   2.774  1.00  0.00     0.024 A 
HETATM   29  C   UNL     1      43.913 -18.676   4.110  1.00  0.00     0.034 A 
HETATM   30 CL   UNL     1      44.602 -20.067   4.849  1.00  0.00    -0.084 Cl
HETATM   31  C   UNL     1      43.736 -17.512   4.852  1.00  0.00     0.024 A 
HETATM   32  C   UNL     1      43.170 -16.381   4.252  1.00  0.00     0.015 A 
ENDBRANCH   9  26
TORSDOF 4
ENDMDL
MODEL 6
REMARK VINA RESULT:      -9.1      1.989      2.549
REMARK  4 active torsions:
REMARK  status: ('A' for Active; 'I' for Inactive)
REMARK    1  A    between atoms: C_8  and  C_9 
REMARK    2  A    between atoms: C_9  and  C_10 
REMARK    3  A    between atoms: C_18  and  C_19 
REMARK    4  A    between atoms: C_28  and  N_29 
ROOT
HETATM    1  C   UNL     1      42.360 -13.115   2.960  1.00  0.00     0.030 A 
HETATM    2  C   UNL     1      41.535 -13.196   1.812  1.00  0.00     0.007 A 
HETATM    3  C   UNL     1      41.356 -14.483   1.270  1.00  0.00     0.068 A 
HETATM    4  C   UNL     1      40.568 -14.636   0.137  1.00  0.00     0.032 A 
HETATM    5  C   UNL     1      39.939 -13.553  -0.479  1.00  0.00     0.002 A 
HETATM    6  C   UNL     1      40.094 -12.281   0.048  1.00  0.00     0.001 A 
HETATM    7  C   UNL     1      40.882 -12.102   1.185  1.00  0.00     0.015 A 
HETATM    8  N   UNL     1      41.911 -15.585   1.799  1.00  0.00    -0.248 NA
HETATM    9  C   UNL     1      42.682 -15.488   2.907  1.00  0.00     0.068 A 
HETATM   10  C   UNL     1      42.956 -14.262   3.493  1.00  0.00     0.049 A 
ENDROOT
BRANCH   1  11
HETATM   11  C   UNL     1      42.668 -11.804   3.592  1.00  0.00     0.202 C 
HETATM   12  O   UNL     1      43.754 -11.273   3.356  1.00  0.00    -0.286 OA
BRANCH  11  13
HETATM   13  C   UNL     1      41.686 -11.181   4.541  1.00  0.00     0.121 C 
HETATM   14  C   UNL     1      41.243 -11.885   5.766  1.00  0.00     0.266 C 
HETATM   15  N   UNL     1      40.467 -11.180   6.629  1.00  0.00    -0.274 N 
HETATM   16  O   UNL     1      41.541 -13.050   6.004  1.00  0.00    -0.267 OA
HETATM   17  C   UNL     1      39.863  -9.995   6.347  1.00  0.00     0.330 C 
HETATM   18  H   UNL     1      40.146 -11.655   7.459  1.00  0.00     0.173 HD
HETATM   19  N   UNL     1      40.225  -9.401   5.147  1.00  0.00    -0.293 N 
HETATM   20  O   UNL     1      39.045  -9.536   7.141  1.00  0.00    -0.246 OA
HETATM   21  C   UNL     1      39.633  -8.100   4.847  1.00  0.00     0.162 C 
HETATM   22  C   UNL     1      41.136  -9.973   4.254  1.00  0.00     0.103 C 
BRANCH  22  23
HETATM   23  N   UNL     1      41.462  -9.269   3.098  1.00  0.00    -0.287 NA
HETATM   24  H   UNL     1      40.742  -9.371   2.367  1.00  0.00     0.125 HD
HETATM   25  H   UNL     1      41.608  -8.279   3.277  1.00  0.00     0.125 HD
ENDBRANCH  22  23
ENDBRANCH  11  13
ENDBRANCH   1  11
BRANCH   9  26
HETATM   26  C   UNL     1      43.193 -16.767   3.440  1.00  0.00    -0.007 A 
HETATM   27  C   UNL     1      43.294 -17.901   2.610  1.00  0.00     0.015 A 
HETATM   28  C   UNL     1      43.755 -19.127   3.102  1.00  0.00     0.024 A 
HETATM   29  C   UNL     1      44.116 -19.242   4.439  1.00  0.00     0.034 A 
HETATM   30 CL   UNL     1      44.675 -20.749   5.051  1.00  0.00    -0.084 Cl
HETATM   31  C   UNL     1      44.020 -18.143   5.287  1.00  0.00     0.024 A 
HETATM   32  C   UNL     1      43.560 -16.917   4.790  1.00  0.00     0.015 A 
ENDBRANCH   9  26
TORSDOF 4
ENDMDL
MODEL 7
REMARK VINA RESULT:      -8.8      2.454      5.384
REMARK  4 active torsions:
REMARK  status: ('A' for Active; 'I' for Inactive)
REMARK    1  A    between atoms: C_8  and  C_9 
REMARK    2  A    between atoms: C_9  and  C_10 
REMARK    3  A    between atoms: C_18  and  C_19 
REMARK    4  A    between atoms: C_28  and  N_29 
ROOT
HETATM    1  C   UNL     1      42.581 -12.628   3.591  1.00  0.00     0.030 A 
HETATM    2  C   UNL     1      42.964 -12.286   4.910  1.00  0.00     0.007 A 
HETATM    3  C   UNL     1      43.370 -13.354   5.733  1.00  0.00     0.068 A 
HETATM    4  C   UNL     1      43.749 -13.092   7.043  1.00  0.00     0.032 A 
HETATM    5  C   UNL     1      43.749 -11.800   7.570  1.00  0.00     0.002 A 
HETATM    6  C   UNL     1      43.364 -10.735   6.771  1.00  0.00     0.001 A 
HETATM    7  C   UNL     1      42.978 -10.973   5.452  1.00  0.00     0.015 A 
HETATM    8  N   UNL     1      43.414 -14.628   5.312  1.00  0.00    -0.248 NA
HETATM    9  C   UNL     1      43.060 -14.932   4.041  1.00  0.00     0.068 A 
HETATM   10  C   UNL     1      42.606 -13.960   3.164  1.00  0.00     0.049 A 
ENDROOT
BRANCH   1  11
HETATM   11  C   UNL     1      42.083 -11.596   2.644  1.00  0.00     0.202 C 
HETATM   12  O   UNL     1      42.872 -10.748   2.222  1.00  0.00    -0.286 OA
BRANCH  11  13
HETATM   13  C   UNL     1      40.632 -11.567   2.262  1.00  0.00     0.121 C 
HETATM   14  C   UNL     1      39.588 -11.145   3.225  1.00  0.00     0.266 C 
HETATM   15  N   UNL     1      38.327 -11.016   2.740  1.00  0.00    -0.274 N 
HETATM   16  O   UNL     1      39.828 -10.929   4.407  1.00  0.00    -0.267 OA
HETATM   17  C   UNL     1      37.901 -11.479   1.535  1.00  0.00     0.330 C 
HETATM   18  H   UNL     1      37.605 -10.744   3.390  1.00  0.00     0.173 HD
HETATM   19  N   UNL     1      38.889 -11.957   0.687  1.00  0.00    -0.293 N 
HETATM   20  O   UNL     1      36.700 -11.460   1.275  1.00  0.00    -0.246 OA
HETATM   21  C   UNL     1      38.465 -12.408  -0.637  1.00  0.00     0.162 C 
HETATM   22  C   UNL     1      40.243 -11.991   1.032  1.00  0.00     0.103 C 
BRANCH  22  23
HETATM   23  N   UNL     1      41.157 -12.450   0.087  1.00  0.00    -0.287 NA
HETATM   24  H   UNL     1      41.199 -13.480   0.057  1.00  0.00     0.125 HD
HETATM   25  H   UNL     1      40.954 -12.105  -0.847  1.00  0.00     0.125 HD
ENDBRANCH  22  23
ENDBRANCH  11  13
ENDBRANCH   1  11
BRANCH   9  26
HETATM   26  C   UNL     1      43.203 -16.353   3.665  1.00  0.00    -0.007 A 
HETATM   27  C   UNL     1      43.931 -17.242   4.480  1.00  0.00     0.015 A 
HETATM   28  C   UNL     1      44.096 -18.586   4.129  1.00  0.00     0.024 A 
HETATM   29  C   UNL     1      43.538 -19.065   2.948  1.00  0.00     0.034 A 
HETATM   30 CL   UNL     1      43.744 -20.713   2.508  1.00  0.00    -0.084 Cl
HETATM   31  C   UNL     1      42.819 -18.210   2.118  1.00  0.00     0.024 A 
HETATM   32  C   UNL     1      42.655 -16.865   2.474  1.00  0.00     0.015 A 
ENDBRANCH   9  26
TORSDOF 4
ENDMDL
MODEL 8
REMARK VINA RESULT:      -8.8      3.091      5.040
REMARK  4 active torsions:
REMARK  status: ('A' for Active; 'I' for Inactive)
REMARK    1  A    between atoms: C_8  and  C_9 
REMARK    2  A    between atoms: C_9  and  C_10 
REMARK    3  A    between atoms: C_18  and  C_19 
REMARK    4  A    between atoms: C_28  and  N_29 
ROOT
HETATM    1  C   UNL     1      43.034 -12.773   4.606  1.00  0.00     0.030 A 
HETATM    2  C   UNL     1      42.778 -13.885   5.444  1.00  0.00     0.007 A 
HETATM    3  C   UNL     1      41.921 -14.870   4.918  1.00  0.00     0.068 A 
HETATM    4  C   UNL     1      41.618 -15.984   5.691  1.00  0.00     0.032 A 
HETATM    5  C   UNL     1      42.142 -16.162   6.972  1.00  0.00     0.002 A 
HETATM    6  C   UNL     1      42.996 -15.207   7.500  1.00  0.00     0.001 A 
HETATM    7  C   UNL     1      43.315 -14.080   6.744  1.00  0.00     0.015 A 
HETATM    8  N   UNL     1      41.378 -14.793   3.693  1.00  0.00    -0.248 NA
HETATM    9  C   UNL     1      41.650 -13.730   2.900  1.00  0.00     0.068 A 
HETATM   10  C   UNL     1      42.447 -12.685   3.339  1.00  0.00     0.049 A 
ENDROOT
BRANCH   1  11
HETATM   11  C   UNL     1      43.880 -11.641   5.069  1.00  0.00     0.202 C 
HETATM   12  O   UNL     1      44.863 -11.322   4.398  1.00  0.00    -0.286 OA
BRANCH  11  13
HETATM   13  C   UNL     1      43.560 -10.946   6.360  1.00  0.00     0.121 C 
HETATM   14  C   UNL     1      42.214 -10.385   6.622  1.00  0.00     0.266 C 
HETATM   15  N   UNL     1      41.985  -9.905   7.871  1.00  0.00    -0.274 N 
HETATM   16  O   UNL     1      41.339 -10.337   5.765  1.00  0.00    -0.267 OA
HETATM   17  C   UNL     1      42.945  -9.665   8.804  1.00  0.00     0.330 C 
HETATM   18  H   UNL     1      41.077  -9.507   8.057  1.00  0.00     0.173 HD
HETATM   19  N   UNL     1      44.219 -10.116   8.493  1.00  0.00    -0.293 N 
HETATM   20  O   UNL     1      42.642  -9.068   9.835  1.00  0.00    -0.246 OA
HETATM   21  C   UNL     1      45.256  -9.921   9.503  1.00  0.00     0.162 C 
HETATM   22  C   UNL     1      44.529 -10.763   7.293  1.00  0.00     0.103 C 
BRANCH  22  23
HETATM   23  N   UNL     1      45.832 -11.215   7.102  1.00  0.00    -0.287 NA
HETATM   24  H   UNL     1      45.858 -12.161   6.693  1.00  0.00     0.125 HD
HETATM   25  H   UNL     1      46.376 -10.590   6.513  1.00  0.00     0.125 HD
ENDBRANCH  22  23
ENDBRANCH  11  13
ENDBRANCH   1  11
BRANCH   9  26
HETATM   26  C   UNL     1      41.050 -13.774   1.552  1.00  0.00    -0.007 A 
HETATM   27  C   UNL     1      40.371 -14.925   1.105  1.00  0.00     0.015 A 
HETATM   28  C   UNL     1      39.815 -14.993  -0.177  1.00  0.00     0.024 A 
HETATM   29  C   UNL     1      39.936 -13.910  -1.041  1.00  0.00     0.034 A 
HETATM   30 CL   UNL     1      39.262 -13.992  -2.620  1.00  0.00    -0.084 Cl
HETATM   31  C   UNL     1      40.607 -12.761  -0.632  1.00  0.00     0.024 A 
HETATM   32  C   UNL     1      41.160 -12.696   0.653  1.00  0.00     0.015 A 
ENDBRANCH   9  26
TORSDOF 4
ENDMDL
MODEL 9
REMARK VINA RESULT:      -8.7      2.654      3.335
REMARK  4 active torsions:
REMARK  status: ('A' for Active; 'I' for Inactive)
REMARK    1  A    between atoms: C_8  and  C_9 
REMARK    2  A    between atoms: C_9  and  C_10 
REMARK    3  A    between atoms: C_18  and  C_19 
REMARK    4  A    between atoms: C_28  and  N_29 
ROOT
HETATM    1  C   UNL     1      40.911 -12.413   1.415  1.00  0.00     0.030 A 
HETATM    2  C   UNL     1      40.146 -12.836   0.301  1.00  0.00     0.007 A 
HETATM    3  C   UNL     1      40.187 -14.212   0.010  1.00  0.00     0.068 A 
HETATM    4  C   UNL     1      39.469 -14.695  -1.076  1.00  0.00     0.032 A 
HETATM    5  C   UNL     1      38.699 -13.859  -1.886  1.00  0.00     0.002 A 
HETATM    6  C   UNL     1      38.637 -12.503  -1.606  1.00  0.00     0.001 A 
HETATM    7  C   UNL     1      39.351 -11.994  -0.521  1.00  0.00     0.015 A 
HETATM    8  N   UNL     1      40.889 -15.095   0.737  1.00  0.00    -0.248 NA
HETATM    9  C   UNL     1      41.600 -14.673   1.810  1.00  0.00     0.068 A 
HETATM   10  C   UNL     1      41.660 -13.333   2.156  1.00  0.00     0.049 A 
ENDROOT
BRANCH   1  11
HETATM   11  C   UNL     1      40.990 -10.977   1.791  1.00  0.00     0.202 C 
HETATM   12  O   UNL     1      41.653 -10.215   1.086  1.00  0.00    -0.286 OA
BRANCH  11  13
HETATM   13  C   UNL     1      40.315 -10.490   3.041  1.00  0.00     0.121 C 
HETATM   14  C   UNL     1      38.840 -10.393   3.133  1.00  0.00     0.266 C 
HETATM   15  N   UNL     1      38.324 -10.080   4.350  1.00  0.00    -0.274 N 
HETATM   16  O   UNL     1      38.104 -10.571   2.170  1.00  0.00    -0.267 OA
HETATM   17  C   UNL     1      39.039  -9.606   5.404  1.00  0.00     0.330 C 
HETATM   18  H   UNL     1      37.321  -9.996   4.421  1.00  0.00     0.173 HD
HETATM   19  N   UNL     1      40.418  -9.620   5.255  1.00  0.00    -0.293 N 
HETATM   20  O   UNL     1      38.443  -9.193   6.396  1.00  0.00    -0.246 OA
HETATM   21  C   UNL     1      41.212  -9.169   6.395  1.00  0.00     0.162 C 
HETATM   22  C   UNL     1      41.058 -10.068   4.096  1.00  0.00     0.103 C 
BRANCH  22  23
HETATM   23  N   UNL     1      42.450 -10.080   4.070  1.00  0.00    -0.287 NA
HETATM   24  H   UNL     1      42.846 -10.690   4.801  1.00  0.00     0.125 HD
HETATM   25  H   UNL     1      42.817 -10.371   3.168  1.00  0.00     0.125 HD
ENDBRANCH  22  23
ENDBRANCH  11  13
ENDBRANCH   1  11
BRANCH   9  26
HETATM   26  C   UNL     1      42.286 -15.734   2.574  1.00  0.00    -0.007 A 
HETATM   27  C   UNL     1      42.734 -16.906   1.933  1.00  0.00     0.015 A 
HETATM   28  C   UNL     1      43.366 -17.931   2.644  1.00  0.00     0.024 A 
HETATM   29  C   UNL     1      43.555 -17.805   4.016  1.00  0.00     0.034 A 
HETATM   30 CL   UNL     1      44.324 -19.066   4.896  1.00  0.00    -0.084 Cl
HETATM   31  C   UNL     1      43.117 -16.663   4.680  1.00  0.00     0.024 A 
HETATM   32  C   UNL     1      42.486 -15.639   3.964  1.00  0.00     0.015 A 
ENDBRANCH   9  26
TORSDOF 4
ENDMDL
MODEL 10
REMARK VINA RESULT:      -8.6      2.778      5.916
REMARK  4 active torsions:
REMARK  status: ('A' for Active; 'I' for Inactive)
REMARK    1  A    between atoms: C_8  and  C_9 
REMARK    2  A    between atoms: C_9  and  C_10 
REMARK    3  A    between atoms: C_18  and  C_19 
REMARK    4  A    between atoms: C_28  and  N_29 
ROOT
HETATM    1  C   UNL     1      41.916 -12.129   2.407  1.00  0.00     0.030 A 
HETATM    2  C   UNL     1      42.002 -11.536   3.690  1.00  0.00     0.007 A 
HETATM    3  C   UNL     1      42.353 -12.397   4.747  1.00  0.00     0.068 A 
HETATM    4  C   UNL     1      42.446 -11.885   6.034  1.00  0.00     0.032 A 
HETATM    5  C   UNL     1      42.210 -10.539   6.315  1.00  0.00     0.002 A 
HETATM    6  C   UNL     1      41.875  -9.674   5.285  1.00  0.00     0.001 A 
HETATM    7  C   UNL     1      41.775 -10.165   3.983  1.00  0.00     0.015 A 
HETATM    8  N   UNL     1      42.610 -13.704   4.573  1.00  0.00    -0.248 NA
HETATM    9  C   UNL     1      42.539 -14.248   3.336  1.00  0.00     0.068 A 
HETATM   10  C   UNL     1      42.160 -13.495   2.235  1.00  0.00     0.049 A 
ENDROOT
BRANCH   1  11
HETATM   11  C   UNL     1      41.502 -11.334   1.221  1.00  0.00     0.202 C 
HETATM   12  O   UNL     1      42.104 -10.289   0.968  1.00  0.00    -0.286 OA
BRANCH  11  13
HETATM   13  C   UNL     1      40.335 -11.780   0.389  1.00  0.00     0.121 C 
HETATM   14  C   UNL     1      38.982 -11.932   0.974  1.00  0.00     0.266 C 
HETATM   15  N   UNL     1      37.971 -12.201   0.110  1.00  0.00    -0.274 N 
HETATM   16  O   UNL     1      38.768 -11.834   2.177  1.00  0.00    -0.267 OA
HETATM   17  C   UNL     1      38.129 -12.589  -1.183  1.00  0.00     0.330 C 
HETATM   18  H   UNL     1      37.047 -12.321   0.499  1.00  0.00     0.173 HD
HETATM   19  N   UNL     1      39.423 -12.528  -1.680  1.00  0.00    -0.293 N 
HETATM   20  O   UNL     1      37.149 -12.973  -1.818  1.00  0.00    -0.246 OA
HETATM   21  C   UNL     1      39.611 -12.886  -3.083  1.00  0.00     0.162 C 
HETATM   22  C   UNL     1      40.517 -12.116  -0.915  1.00  0.00     0.103 C 
BRANCH  22  23
HETATM   23  N   UNL     1      41.766 -12.050  -1.526  1.00  0.00    -0.287 NA
HETATM   24  H   UNL     1      41.778 -12.532  -2.437  1.00  0.00     0.125 HD
HETATM   25  H   UNL     1      42.081 -11.093  -1.659  1.00  0.00     0.125 HD
ENDBRANCH  22  23
ENDBRANCH  11  13
ENDBRANCH   1  11
BRANCH   9  26
HETATM   26  C   UNL     1      42.899 -15.677   3.249  1.00  0.00    -0.007 A 
HETATM   27  C   UNL     1      42.778 -16.375   2.031  1.00  0.00     0.015 A 
HETATM   28  C   UNL     1      43.093 -17.735   1.935  1.00  0.00     0.024 A 
HETATM   29  C   UNL     1      43.529 -18.424   3.061  1.00  0.00     0.034 A 
HETATM   30 CL   UNL     1      43.909 -20.097   2.950  1.00  0.00    -0.084 Cl
HETATM   31  C   UNL     1      43.651 -17.765   4.281  1.00  0.00     0.024 A 
HETATM   32  C   UNL     1      43.337 -16.403   4.372  1.00  0.00     0.015 A 
ENDBRANCH   9  26
TORSDOF 4
ENDMDL
