MODEL 1
REMARK VINA RESULT:      -8.8      0.000      0.000
REMARK  6 active torsions:
REMARK  status: ('A' for Active; 'I' for Inactive)
REMARK    1  A    between atoms: C_2  and  O_3 
REMARK    2  A    between atoms: C_2  and  C_4 
REMARK    3  A    between atoms: C_7  and  N_8 
REMARK       I    between atoms: N_8  and  C_9 
REMARK    4  A    between atoms: C_9  and  C_10 
REMARK    5  A    between atoms: C_13  and  C_14 
REMARK    6  A    between atoms: C_19  and  C_20 
ROOT
HETATM    1  C   UNL     1      41.802 -12.370   4.309  1.00  0.00     0.096 A 
HETATM    2  C   UNL     1      41.678 -11.418   5.304  1.00  0.00     0.138 A 
HETATM    3  N   UNL     1      41.649 -10.202   4.658  1.00  0.00    -0.240 N 
HETATM    4  C   UNL     1      41.572  -8.917   5.330  1.00  0.00     0.221 C 
HETATM    5  C   UNL     1      41.206  -9.106   6.816  1.00  0.00     0.066 C 
HETATM    6  C   UNL     1      41.973 -10.283   7.442  1.00  0.00     0.118 C 
HETATM    7  N   UNL     1      41.639 -11.489   6.665  1.00  0.00    -0.365 N 
HETATM    8  N   UNL     1      41.899 -10.291   3.344  1.00  0.00    -0.181 NA
HETATM    9  C   UNL     1      41.971 -11.608   3.129  1.00  0.00     0.160 A 
HETATM   10  H   UNL     1      41.962 -12.345   7.120  1.00  0.00     0.161 HD
ENDROOT
BRANCH   1  11
HETATM   11  C   UNL     1      41.828 -13.817   4.423  1.00  0.00     0.261 C 
HETATM   12  N   UNL     1      42.883 -14.394   3.740  1.00  0.00    -0.323 N 
HETATM   13  H   UNL     1      43.567 -13.744   3.370  1.00  0.00     0.169 HD
HETATM   14  O   UNL     1      41.002 -14.406   5.108  1.00  0.00    -0.267 OA
BRANCH  12  15
HETATM   15  C   UNL     1      43.183 -15.764   3.625  1.00  0.00     0.035 A 
HETATM   16  C   UNL     1      43.738 -16.526   4.652  1.00  0.00     0.030 A 
HETATM   17  C   UNL     1      44.008 -17.887   4.464  1.00  0.00     0.012 A 
HETATM   18  C   UNL     1      43.729 -18.511   3.241  1.00  0.00    -0.030 A 
HETATM   19  C   UNL     1      43.176 -17.741   2.210  1.00  0.00     0.012 A 
HETATM   20  C   UNL     1      42.893 -16.385   2.405  1.00  0.00     0.030 A 
BRANCH  18  21
HETATM   21  C   UNL     1      44.063 -19.974   3.044  1.00  0.00     0.147 C 
HETATM   22  C   UNL     1      43.458 -20.527   1.762  1.00  0.00     0.044 C 
BRANCH  21  23
HETATM   23  O   UNL     1      43.594 -20.747   4.147  1.00  0.00    -0.391 OA
HETATM   24  H   UNL     1      43.050 -20.154   4.694  1.00  0.00     0.210 HD
ENDBRANCH  21  23
ENDBRANCH  18  21
ENDBRANCH  12  15
ENDBRANCH   1  11
BRANCH   4  25
HETATM   25  C   UNL     1      40.554  -8.010   4.675  1.00  0.00     0.409 C 
HETATM   26  F   UNL     1      39.453  -8.683   4.269  1.00  0.00    -0.169 F 
HETATM   27  F   UNL     1      40.126  -7.084   5.577  1.00  0.00    -0.169 F 
HETATM   28  F   UNL     1      41.038  -7.316   3.626  1.00  0.00    -0.169 F 
ENDBRANCH   4  25
BRANCH   6  29
HETATM   29  C   UNL     1      43.477 -10.046   7.585  1.00  0.00    -0.035 A 
HETATM   30  C   UNL     1      43.938  -8.892   8.252  1.00  0.00     0.012 A 
HETATM   31  C   UNL     1      45.305  -8.640   8.401  1.00  0.00     0.043 A 
HETATM   32  C   UNL     1      46.228  -9.549   7.905  1.00  0.00     0.116 A 
HETATM   33  F   UNL     1      47.538  -9.309   8.052  1.00  0.00    -0.206 F 
HETATM   34  C   UNL     1      45.810 -10.706   7.267  1.00  0.00     0.043 A 
HETATM   35  C   UNL     1      44.443 -10.956   7.112  1.00  0.00     0.012 A 
ENDBRANCH   6  29
TORSDOF 6
ENDMDL
MODEL 2
REMARK VINA RESULT:      -8.6      4.917      7.985
REMARK  6 active torsions:
REMARK  status: ('A' for Active; 'I' for Inactive)
REMARK    1  A    between atoms: C_2  and  O_3 
REMARK    2  A    between atoms: C_2  and  C_4 
REMARK    3  A    between atoms: C_7  and  N_8 
REMARK       I    between atoms: N_8  and  C_9 
REMARK    4  A    between atoms: C_9  and  C_10 
REMARK    5  A    between atoms: C_13  and  C_14 
REMARK    6  A    between atoms: C_19  and  C_20 
ROOT
HETATM    1  C   UNL     1      40.980 -12.811   3.029  1.00  0.00     0.096 A 
HETATM    2  C   UNL     1      41.276 -13.672   4.069  1.00  0.00     0.138 A 
HETATM    3  N   UNL     1      42.489 -13.255   4.568  1.00  0.00    -0.240 N 
HETATM    4  C   UNL     1      43.202 -13.912   5.650  1.00  0.00     0.221 C 
HETATM    5  C   UNL     1      42.283 -14.922   6.367  1.00  0.00     0.066 C 
HETATM    6  C   UNL     1      41.442 -15.731   5.365  1.00  0.00     0.118 C 
HETATM    7  N   UNL     1      40.649 -14.771   4.578  1.00  0.00    -0.365 N 
HETATM    8  N   UNL     1      43.066 -12.294   3.833  1.00  0.00    -0.181 NA
HETATM    9  C   UNL     1      42.140 -12.010   2.911  1.00  0.00     0.160 A 
HETATM   10  H   UNL     1      39.932 -15.231   4.015  1.00  0.00     0.161 HD
ENDROOT
BRANCH   1  11
HETATM   11  C   UNL     1      39.798 -12.760   2.189  1.00  0.00     0.261 C 
HETATM   12  N   UNL     1      40.076 -12.394   0.885  1.00  0.00    -0.323 N 
HETATM   13  H   UNL     1      41.061 -12.343   0.650  1.00  0.00     0.169 HD
HETATM   14  O   UNL     1      38.700 -13.068   2.635  1.00  0.00    -0.267 OA
BRANCH  12  15
HETATM   15  C   UNL     1      39.162 -12.225  -0.172  1.00  0.00     0.035 A 
HETATM   16  C   UNL     1      39.023 -13.126  -1.228  1.00  0.00     0.030 A 
HETATM   17  C   UNL     1      38.090 -12.891  -2.245  1.00  0.00     0.012 A 
HETATM   18  C   UNL     1      37.279 -11.749  -2.226  1.00  0.00    -0.030 A 
HETATM   19  C   UNL     1      37.426 -10.845  -1.166  1.00  0.00     0.012 A 
HETATM   20  C   UNL     1      38.348 -11.088  -0.143  1.00  0.00     0.030 A 
BRANCH  18  21
HETATM   21  C   UNL     1      36.303 -11.494  -3.354  1.00  0.00     0.147 C 
HETATM   22  C   UNL     1      35.246 -10.469  -2.969  1.00  0.00     0.044 C 
BRANCH  21  23
HETATM   23  O   UNL     1      35.654 -12.705  -3.737  1.00  0.00    -0.391 OA
HETATM   24  H   UNL     1      36.340 -13.395  -3.759  1.00  0.00     0.210 HD
ENDBRANCH  21  23
ENDBRANCH  18  21
ENDBRANCH  12  15
ENDBRANCH   1  11
BRANCH   4  25
HETATM   25  C   UNL     1      43.727 -12.910   6.655  1.00  0.00     0.409 C 
HETATM   26  F   UNL     1      43.040 -11.745   6.625  1.00  0.00    -0.169 F 
HETATM   27  F   UNL     1      43.577 -13.411   7.913  1.00  0.00    -0.169 F 
HETATM   28  F   UNL     1      45.038 -12.634   6.515  1.00  0.00    -0.169 F 
ENDBRANCH   4  25
BRANCH   6  29
HETATM   29  C   UNL     1      42.254 -16.701   4.506  1.00  0.00    -0.035 A 
HETATM   30  C   UNL     1      43.212 -17.537   5.117  1.00  0.00     0.012 A 
HETATM   31  C   UNL     1      43.974 -18.436   4.364  1.00  0.00     0.043 A 
HETATM   32  C   UNL     1      43.774 -18.525   2.995  1.00  0.00     0.116 A 
HETATM   33  F   UNL     1      44.502 -19.389   2.275  1.00  0.00    -0.206 F 
HETATM   34  C   UNL     1      42.824 -17.737   2.365  1.00  0.00     0.043 A 
HETATM   35  C   UNL     1      42.065 -16.834   3.116  1.00  0.00     0.012 A 
ENDBRANCH   6  29
TORSDOF 6
ENDMDL
MODEL 3
REMARK VINA RESULT:      -8.6     17.819     19.463
REMARK  6 active torsions:
REMARK  status: ('A' for Active; 'I' for Inactive)
REMARK    1  A    between atoms: C_2  and  O_3 
REMARK    2  A    between atoms: C_2  and  C_4 
REMARK    3  A    between atoms: C_7  and  N_8 
REMARK       I    between atoms: N_8  and  C_9 
REMARK    4  A    between atoms: C_9  and  C_10 
REMARK    5  A    between atoms: C_13  and  C_14 
REMARK    6  A    between atoms: C_19  and  C_20 
ROOT
HETATM    1  C   UNL     1      43.642 -30.463   0.557  1.00  0.00     0.096 A 
HETATM    2  C   UNL     1      44.417 -29.611  -0.209  1.00  0.00     0.138 A 
HETATM    3  N   UNL     1      44.473 -30.178  -1.462  1.00  0.00    -0.240 N 
HETATM    4  C   UNL     1      45.227 -29.633  -2.577  1.00  0.00     0.221 C 
HETATM    5  C   UNL     1      45.680 -28.192  -2.269  1.00  0.00     0.066 C 
HETATM    6  C   UNL     1      46.192 -28.057  -0.825  1.00  0.00     0.118 C 
HETATM    7  N   UNL     1      45.095 -28.462   0.071  1.00  0.00    -0.365 N 
HETATM    8  N   UNL     1      43.926 -31.401  -1.518  1.00  0.00    -0.181 NA
HETATM    9  C   UNL     1      43.404 -31.565  -0.298  1.00  0.00     0.160 A 
HETATM   10  H   UNL     1      45.287 -28.232   1.047  1.00  0.00     0.161 HD
ENDROOT
BRANCH   1  11
HETATM   11  C   UNL     1      43.217 -30.325   1.937  1.00  0.00     0.261 C 
HETATM   12  N   UNL     1      42.560 -31.443   2.416  1.00  0.00    -0.323 N 
HETATM   13  H   UNL     1      42.579 -32.251   1.804  1.00  0.00     0.169 HD
HETATM   14  O   UNL     1      43.485 -29.315   2.576  1.00  0.00    -0.267 OA
BRANCH  12  15
HETATM   15  C   UNL     1      42.001 -31.627   3.694  1.00  0.00     0.035 A 
HETATM   16  C   UNL     1      42.733 -32.029   4.811  1.00  0.00     0.030 A 
HETATM   17  C   UNL     1      42.106 -32.191   6.052  1.00  0.00     0.012 A 
HETATM   18  C   UNL     1      40.733 -31.954   6.199  1.00  0.00    -0.030 A 
HETATM   19  C   UNL     1      40.000 -31.555   5.074  1.00  0.00     0.012 A 
HETATM   20  C   UNL     1      40.631 -31.381   3.837  1.00  0.00     0.030 A 
BRANCH  18  21
HETATM   21  C   UNL     1      40.066 -32.171   7.540  1.00  0.00     0.147 C 
HETATM   22  C   UNL     1      40.303 -33.576   8.073  1.00  0.00     0.044 C 
BRANCH  21  23
HETATM   23  O   UNL     1      38.661 -31.944   7.442  1.00  0.00    -0.391 OA
HETATM   24  H   UNL     1      38.340 -31.778   8.346  1.00  0.00     0.210 HD
ENDBRANCH  21  23
ENDBRANCH  18  21
ENDBRANCH  12  15
ENDBRANCH   1  11
BRANCH   4  25
HETATM   25  C   UNL     1      44.412 -29.641  -3.852  1.00  0.00     0.409 C 
HETATM   26  F   UNL     1      43.137 -29.238  -3.648  1.00  0.00    -0.169 F 
HETATM   27  F   UNL     1      44.954 -28.763  -4.741  1.00  0.00    -0.169 F 
HETATM   28  F   UNL     1      44.384 -30.835  -4.475  1.00  0.00    -0.169 F 
ENDBRANCH   4  25
BRANCH   6  29
HETATM   29  C   UNL     1      47.505 -28.793  -0.555  1.00  0.00    -0.035 A 
HETATM   30  C   UNL     1      48.397 -29.038  -1.620  1.00  0.00     0.012 A 
HETATM   31  C   UNL     1      49.606 -29.708  -1.411  1.00  0.00     0.043 A 
HETATM   32  C   UNL     1      49.947 -30.124  -0.133  1.00  0.00     0.116 A 
HETATM   33  F   UNL     1      51.108 -30.764   0.066  1.00  0.00    -0.206 F 
HETATM   34  C   UNL     1      49.106 -29.879   0.940  1.00  0.00     0.043 A 
HETATM   35  C   UNL     1      47.895 -29.213   0.732  1.00  0.00     0.012 A 
ENDBRANCH   6  29
TORSDOF 6
ENDMDL
MODEL 4
REMARK VINA RESULT:      -8.1      4.380      7.122
REMARK  6 active torsions:
REMARK  status: ('A' for Active; 'I' for Inactive)
REMARK    1  A    between atoms: C_2  and  O_3 
REMARK    2  A    between atoms: C_2  and  C_4 
REMARK    3  A    between atoms: C_7  and  N_8 
REMARK       I    between atoms: N_8  and  C_9 
REMARK    4  A    between atoms: C_9  and  C_10 
REMARK    5  A    between atoms: C_13  and  C_14 
REMARK    6  A    between atoms: C_19  and  C_20 
ROOT
HETATM    1  C   UNL     1      40.217 -13.421   2.361  1.00  0.00     0.096 A 
HETATM    2  C   UNL     1      40.505 -12.653   1.249  1.00  0.00     0.138 A 
HETATM    3  N   UNL     1      40.047 -11.387   1.537  1.00  0.00    -0.240 N 
HETATM    4  C   UNL     1      40.106 -10.263   0.620  1.00  0.00     0.221 C 
HETATM    5  C   UNL     1      41.027 -10.589  -0.574  1.00  0.00     0.066 C 
HETATM    6  C   UNL     1      40.801 -12.020  -1.088  1.00  0.00     0.118 C 
HETATM    7  N   UNL     1      41.059 -12.937   0.036  1.00  0.00    -0.365 N 
HETATM    8  N   UNL     1      39.352 -11.321   2.682  1.00  0.00    -0.181 NA
HETATM    9  C   UNL     1      39.472 -12.550   3.191  1.00  0.00     0.160 A 
HETATM   10  H   UNL     1      41.108 -13.913  -0.264  1.00  0.00     0.161 HD
ENDROOT
BRANCH   1  11
HETATM   11  C   UNL     1      40.526 -14.816   2.618  1.00  0.00     0.261 C 
HETATM   12  N   UNL     1      41.833 -15.014   3.024  1.00  0.00    -0.323 N 
HETATM   13  H   UNL     1      42.359 -14.170   3.220  1.00  0.00     0.169 HD
HETATM   14  O   UNL     1      39.662 -15.677   2.516  1.00  0.00    -0.267 OA
BRANCH  12  15
HETATM   15  C   UNL     1      42.461 -16.237   3.326  1.00  0.00     0.035 A 
HETATM   16  C   UNL     1      42.852 -17.166   2.364  1.00  0.00     0.030 A 
HETATM   17  C   UNL     1      43.475 -18.363   2.740  1.00  0.00     0.012 A 
HETATM   18  C   UNL     1      43.714 -18.652   4.090  1.00  0.00    -0.030 A 
HETATM   19  C   UNL     1      43.315 -17.718   5.054  1.00  0.00     0.012 A 
HETATM   20  C   UNL     1      42.706 -16.517   4.675  1.00  0.00     0.030 A 
BRANCH  18  21
HETATM   21  C   UNL     1      44.354 -19.967   4.481  1.00  0.00     0.147 C 
HETATM   22  C   UNL     1      43.960 -21.094   3.537  1.00  0.00     0.044 C 
BRANCH  21  23
HETATM   23  O   UNL     1      43.983 -20.328   5.810  1.00  0.00    -0.391 OA
HETATM   24  H   UNL     1      43.344 -21.058   5.735  1.00  0.00     0.210 HD
ENDBRANCH  21  23
ENDBRANCH  18  21
ENDBRANCH  12  15
ENDBRANCH   1  11
BRANCH   4  25
HETATM   25  C   UNL     1      40.603  -9.011   1.310  1.00  0.00     0.409 C 
HETATM   26  F   UNL     1      41.307  -8.211   0.476  1.00  0.00    -0.169 F 
HETATM   27  F   UNL     1      39.539  -8.277   1.737  1.00  0.00    -0.169 F 
HETATM   28  F   UNL     1      41.355  -9.252   2.401  1.00  0.00    -0.169 F 
ENDBRANCH   4  25
BRANCH   6  29
HETATM   29  C   UNL     1      39.443 -12.239  -1.755  1.00  0.00    -0.035 A 
HETATM   30  C   UNL     1      39.034 -13.548  -2.088  1.00  0.00     0.012 A 
HETATM   31  C   UNL     1      37.800 -13.787  -2.699  1.00  0.00     0.043 A 
HETATM   32  C   UNL     1      36.949 -12.724  -2.966  1.00  0.00     0.116 A 
HETATM   33  F   UNL     1      35.766 -12.955  -3.549  1.00  0.00    -0.206 F 
HETATM   34  C   UNL     1      37.308 -11.429  -2.629  1.00  0.00     0.043 A 
HETATM   35  C   UNL     1      38.544 -11.188  -2.023  1.00  0.00     0.012 A 
ENDBRANCH   6  29
TORSDOF 6
ENDMDL
MODEL 5
REMARK VINA RESULT:      -8.1      3.899      5.571
REMARK  6 active torsions:
REMARK  status: ('A' for Active; 'I' for Inactive)
REMARK    1  A    between atoms: C_2  and  O_3 
REMARK    2  A    between atoms: C_2  and  C_4 
REMARK    3  A    between atoms: C_7  and  N_8 
REMARK       I    between atoms: N_8  and  C_9 
REMARK    4  A    between atoms: C_9  and  C_10 
REMARK    5  A    between atoms: C_13  and  C_14 
REMARK    6  A    between atoms: C_19  and  C_20 
ROOT
HETATM    1  C   UNL     1      42.409 -12.056   5.762  1.00  0.00     0.096 A 
HETATM    2  C   UNL     1      42.621 -10.878   6.455  1.00  0.00     0.138 A 
HETATM    3  N   UNL     1      43.693 -11.119   7.285  1.00  0.00    -0.240 N 
HETATM    4  C   UNL     1      44.231 -10.158   8.231  1.00  0.00     0.221 C 
HETATM    5  C   UNL     1      43.660  -8.752   7.956  1.00  0.00     0.066 C 
HETATM    6  C   UNL     1      42.154  -8.804   7.649  1.00  0.00     0.118 C 
HETATM    7  N   UNL     1      41.973  -9.679   6.478  1.00  0.00    -0.365 N 
HETATM    8  N   UNL     1      44.086 -12.401   7.289  1.00  0.00    -0.181 NA
HETATM    9  C   UNL     1      43.319 -12.964   6.351  1.00  0.00     0.160 A 
HETATM   10  H   UNL     1      41.027  -9.625   6.097  1.00  0.00     0.161 HD
ENDROOT
BRANCH   1  11
HETATM   11  C   UNL     1      41.439 -12.345   4.722  1.00  0.00     0.261 C 
HETATM   12  N   UNL     1      41.994 -12.980   3.626  1.00  0.00    -0.323 N 
HETATM   13  H   UNL     1      42.956 -13.281   3.741  1.00  0.00     0.169 HD
HETATM   14  O   UNL     1      40.255 -12.075   4.878  1.00  0.00    -0.267 OA
BRANCH  12  15
HETATM   15  C   UNL     1      41.343 -13.375   2.443  1.00  0.00     0.035 A 
HETATM   16  C   UNL     1      40.728 -14.615   2.273  1.00  0.00     0.030 A 
HETATM   17  C   UNL     1      40.098 -14.938   1.065  1.00  0.00     0.012 A 
HETATM   18  C   UNL     1      40.073 -14.025   0.003  1.00  0.00    -0.030 A 
HETATM   19  C   UNL     1      40.697 -12.782   0.176  1.00  0.00     0.012 A 
HETATM   20  C   UNL     1      41.314 -12.456   1.388  1.00  0.00     0.030 A 
BRANCH  18  21
HETATM   21  C   UNL     1      39.420 -14.405  -1.308  1.00  0.00     0.147 C 
HETATM   22  C   UNL     1      40.254 -13.974  -2.505  1.00  0.00     0.044 C 
BRANCH  21  23
HETATM   23  O   UNL     1      38.125 -13.815  -1.411  1.00  0.00    -0.391 OA
HETATM   24  H   UNL     1      37.483 -14.546  -1.415  1.00  0.00     0.210 HD
ENDBRANCH  21  23
ENDBRANCH  18  21
ENDBRANCH  12  15
ENDBRANCH   1  11
BRANCH   4  25
HETATM   25  C   UNL     1      45.742 -10.106   8.168  1.00  0.00     0.409 C 
HETATM   26  F   UNL     1      46.218  -8.845   8.289  1.00  0.00    -0.169 F 
HETATM   27  F   UNL     1      46.262 -10.812   9.210  1.00  0.00    -0.169 F 
HETATM   28  F   UNL     1      46.261 -10.650   7.050  1.00  0.00    -0.169 F 
ENDBRANCH   4  25
BRANCH   6  29
HETATM   29  C   UNL     1      41.284  -9.196   8.844  1.00  0.00    -0.035 A 
HETATM   30  C   UNL     1      41.847  -9.213  10.138  1.00  0.00     0.012 A 
HETATM   31  C   UNL     1      41.084  -9.567  11.254  1.00  0.00     0.043 A 
HETATM   32  C   UNL     1      39.744  -9.888  11.095  1.00  0.00     0.116 A 
HETATM   33  F   UNL     1      39.013 -10.224  12.166  1.00  0.00    -0.206 F 
HETATM   34  C   UNL     1      39.152  -9.858   9.842  1.00  0.00     0.043 A 
HETATM   35  C   UNL     1      39.916  -9.509   8.725  1.00  0.00     0.012 A 
ENDBRANCH   6  29
TORSDOF 6
ENDMDL
MODEL 6
REMARK VINA RESULT:      -7.8      3.845      8.507
REMARK  6 active torsions:
REMARK  status: ('A' for Active; 'I' for Inactive)
REMARK    1  A    between atoms: C_2  and  O_3 
REMARK    2  A    between atoms: C_2  and  C_4 
REMARK    3  A    between atoms: C_7  and  N_8 
REMARK       I    between atoms: N_8  and  C_9 
REMARK    4  A    between atoms: C_9  and  C_10 
REMARK    5  A    between atoms: C_13  and  C_14 
REMARK    6  A    between atoms: C_19  and  C_20 
ROOT
HETATM    1  C   UNL     1      41.545 -12.407   4.059  1.00  0.00     0.096 A 
HETATM    2  C   UNL     1      42.047 -13.328   3.158  1.00  0.00     0.138 A 
HETATM    3  N   UNL     1      40.950 -13.956   2.613  1.00  0.00    -0.240 N 
HETATM    4  C   UNL     1      41.018 -15.036   1.645  1.00  0.00     0.221 C 
HETATM    5  C   UNL     1      42.446 -15.160   1.075  1.00  0.00     0.066 C 
HETATM    6  C   UNL     1      43.509 -15.015   2.178  1.00  0.00     0.118 C 
HETATM    7  N   UNL     1      43.311 -13.699   2.810  1.00  0.00    -0.365 N 
HETATM    8  N   UNL     1      39.795 -13.619   3.205  1.00  0.00    -0.181 NA
HETATM    9  C   UNL     1      40.154 -12.664   4.069  1.00  0.00     0.160 A 
HETATM   10  H   UNL     1      44.084 -13.448   3.428  1.00  0.00     0.161 HD
ENDROOT
BRANCH   1  11
HETATM   11  C   UNL     1      42.257 -11.439   4.874  1.00  0.00     0.261 C 
HETATM   12  N   UNL     1      41.761 -11.346   6.161  1.00  0.00    -0.323 N 
HETATM   13  H   UNL     1      41.070 -12.044   6.410  1.00  0.00     0.169 HD
HETATM   14  O   UNL     1      43.223 -10.834   4.425  1.00  0.00    -0.267 OA
BRANCH  12  15
HETATM   15  C   UNL     1      42.202 -10.493   7.190  1.00  0.00     0.035 A 
HETATM   16  C   UNL     1      43.467 -10.569   7.772  1.00  0.00     0.030 A 
HETATM   17  C   UNL     1      43.836  -9.685   8.792  1.00  0.00     0.012 A 
HETATM   18  C   UNL     1      42.943  -8.708   9.252  1.00  0.00    -0.030 A 
HETATM   19  C   UNL     1      41.672  -8.638   8.668  1.00  0.00     0.012 A 
HETATM   20  C   UNL     1      41.310  -9.513   7.639  1.00  0.00     0.030 A 
BRANCH  18  21
HETATM   21  C   UNL     1      43.346  -7.785  10.382  1.00  0.00     0.147 C 
HETATM   22  C   UNL     1      43.582  -8.544  11.679  1.00  0.00     0.044 C 
BRANCH  21  23
HETATM   23  O   UNL     1      42.342  -6.796  10.601  1.00  0.00    -0.391 OA
HETATM   24  H   UNL     1      42.805  -5.949  10.729  1.00  0.00     0.210 HD
ENDBRANCH  21  23
ENDBRANCH  18  21
ENDBRANCH  12  15
ENDBRANCH   1  11
BRANCH   4  25
HETATM   25  C   UNL     1      40.042 -14.823   0.509  1.00  0.00     0.409 C 
HETATM   26  F   UNL     1      40.667 -14.588  -0.668  1.00  0.00    -0.169 F 
HETATM   27  F   UNL     1      39.302 -15.952   0.330  1.00  0.00    -0.169 F 
HETATM   28  F   UNL     1      39.161 -13.827   0.726  1.00  0.00    -0.169 F 
ENDBRANCH   4  25
BRANCH   6  29
HETATM   29  C   UNL     1      43.537 -16.174   3.176  1.00  0.00    -0.035 A 
HETATM   30  C   UNL     1      43.465 -15.903   4.559  1.00  0.00     0.012 A 
HETATM   31  C   UNL     1      43.489 -16.935   5.501  1.00  0.00     0.043 A 
HETATM   32  C   UNL     1      43.564 -18.252   5.073  1.00  0.00     0.116 A 
HETATM   33  F   UNL     1      43.584 -19.241   5.977  1.00  0.00    -0.206 F 
HETATM   34  C   UNL     1      43.611 -18.556   3.722  1.00  0.00     0.043 A 
HETATM   35  C   UNL     1      43.593 -17.525   2.779  1.00  0.00     0.012 A 
ENDBRANCH   6  29
TORSDOF 6
ENDMDL
MODEL 7
REMARK VINA RESULT:      -7.7      4.854      7.839
REMARK  6 active torsions:
REMARK  status: ('A' for Active; 'I' for Inactive)
REMARK    1  A    between atoms: C_2  and  O_3 
REMARK    2  A    between atoms: C_2  and  C_4 
REMARK    3  A    between atoms: C_7  and  N_8 
REMARK       I    between atoms: N_8  and  C_9 
REMARK    4  A    between atoms: C_9  and  C_10 
REMARK    5  A    between atoms: C_13  and  C_14 
REMARK    6  A    between atoms: C_19  and  C_20 
ROOT
HETATM    1  C   UNL     1      41.149 -12.181   0.927  1.00  0.00     0.096 A 
HETATM    2  C   UNL     1      41.133 -11.758  -0.389  1.00  0.00     0.138 A 
HETATM    3  N   UNL     1      41.125 -10.383  -0.342  1.00  0.00    -0.240 N 
HETATM    4  C   UNL     1      41.062  -9.521  -1.509  1.00  0.00     0.221 C 
HETATM    5  C   UNL     1      41.331 -10.331  -2.793  1.00  0.00     0.066 C 
HETATM    6  C   UNL     1      40.604 -11.686  -2.769  1.00  0.00     0.118 C 
HETATM    7  N   UNL     1      41.077 -12.418  -1.581  1.00  0.00    -0.365 N 
HETATM    8  N   UNL     1      40.979  -9.894   0.898  1.00  0.00    -0.181 NA
HETATM    9  C   UNL     1      41.014 -10.985   1.669  1.00  0.00     0.160 A 
HETATM   10  H   UNL     1      40.782 -13.396  -1.586  1.00  0.00     0.161 HD
ENDROOT
BRANCH   1  11
HETATM   11  C   UNL     1      41.215 -13.531   1.456  1.00  0.00     0.261 C 
HETATM   12  N   UNL     1      42.490 -13.900   1.843  1.00  0.00    -0.323 N 
HETATM   13  H   UNL     1      43.177 -13.154   1.837  1.00  0.00     0.169 HD
HETATM   14  O   UNL     1      40.201 -14.209   1.569  1.00  0.00    -0.267 OA
BRANCH  12  15
HETATM   15  C   UNL     1      42.903 -15.139   2.368  1.00  0.00     0.035 A 
HETATM   16  C   UNL     1      43.119 -16.276   1.591  1.00  0.00     0.030 A 
HETATM   17  C   UNL     1      43.532 -17.476   2.185  1.00  0.00     0.012 A 
HETATM   18  C   UNL     1      43.734 -17.558   3.569  1.00  0.00    -0.030 A 
HETATM   19  C   UNL     1      43.511 -16.414   4.346  1.00  0.00     0.012 A 
HETATM   20  C   UNL     1      43.112 -15.214   3.749  1.00  0.00     0.030 A 
BRANCH  18  21
HETATM   21  C   UNL     1      44.143 -18.873   4.197  1.00  0.00     0.147 C 
HETATM   22  C   UNL     1      43.737 -20.063   3.341  1.00  0.00     0.044 C 
BRANCH  21  23
HETATM   23  O   UNL     1      43.557 -19.013   5.490  1.00  0.00    -0.391 OA
HETATM   24  H   UNL     1      43.429 -18.113   5.839  1.00  0.00     0.210 HD
ENDBRANCH  21  23
ENDBRANCH  18  21
ENDBRANCH  12  15
ENDBRANCH   1  11
BRANCH   4  25
HETATM   25  C   UNL     1      42.060  -8.387  -1.413  1.00  0.00     0.409 C 
HETATM   26  F   UNL     1      43.328  -8.831  -1.263  1.00  0.00    -0.169 F 
HETATM   27  F   UNL     1      42.040  -7.669  -2.570  1.00  0.00    -0.169 F 
HETATM   28  F   UNL     1      41.797  -7.511  -0.424  1.00  0.00    -0.169 F 
ENDBRANCH   4  25
BRANCH   6  29
HETATM   29  C   UNL     1      39.080 -11.582  -2.854  1.00  0.00    -0.035 A 
HETATM   30  C   UNL     1      38.487 -10.355  -3.222  1.00  0.00     0.012 A 
HETATM   31  C   UNL     1      37.099 -10.221  -3.310  1.00  0.00     0.043 A 
HETATM   32  C   UNL     1      36.286 -11.316  -3.053  1.00  0.00     0.116 A 
HETATM   33  F   UNL     1      34.956 -11.187  -3.142  1.00  0.00    -0.206 F 
HETATM   34  C   UNL     1      36.836 -12.542  -2.715  1.00  0.00     0.043 A 
HETATM   35  C   UNL     1      38.224 -12.676  -2.621  1.00  0.00     0.012 A 
ENDBRANCH   6  29
TORSDOF 6
ENDMDL
MODEL 8
REMARK VINA RESULT:      -7.7      3.986      6.590
REMARK  6 active torsions:
REMARK  status: ('A' for Active; 'I' for Inactive)
REMARK    1  A    between atoms: C_2  and  O_3 
REMARK    2  A    between atoms: C_2  and  C_4 
REMARK    3  A    between atoms: C_7  and  N_8 
REMARK       I    between atoms: N_8  and  C_9 
REMARK    4  A    between atoms: C_9  and  C_10 
REMARK    5  A    between atoms: C_13  and  C_14 
REMARK    6  A    between atoms: C_19  and  C_20 
ROOT
HETATM    1  C   UNL     1      40.932 -12.673   2.896  1.00  0.00     0.096 A 
HETATM    2  C   UNL     1      40.709 -11.694   1.946  1.00  0.00     0.138 A 
HETATM    3  N   UNL     1      39.664 -10.936   2.425  1.00  0.00    -0.240 N 
HETATM    4  C   UNL     1      39.068  -9.817   1.717  1.00  0.00     0.221 C 
HETATM    5  C   UNL     1      39.958  -9.395   0.530  1.00  0.00     0.066 C 
HETATM    6  C   UNL     1      40.502 -10.616  -0.231  1.00  0.00     0.118 C 
HETATM    7  N   UNL     1      41.266 -11.430   0.730  1.00  0.00    -0.365 N 
HETATM    8  N   UNL     1      39.100 -11.446   3.530  1.00  0.00    -0.181 NA
HETATM    9  C   UNL     1      39.882 -12.488   3.826  1.00  0.00     0.160 A 
HETATM   10  H   UNL     1      41.810 -12.162   0.270  1.00  0.00     0.161 HD
ENDROOT
BRANCH   1  11
HETATM   11  C   UNL     1      41.948 -13.708   2.925  1.00  0.00     0.261 C 
HETATM   12  N   UNL     1      41.451 -14.946   3.289  1.00  0.00    -0.323 N 
HETATM   13  H   UNL     1      40.440 -15.004   3.353  1.00  0.00     0.169 HD
HETATM   14  O   UNL     1      43.103 -13.460   2.603  1.00  0.00    -0.267 OA
BRANCH  12  15
HETATM   15  C   UNL     1      42.167 -16.148   3.439  1.00  0.00     0.035 A 
HETATM   16  C   UNL     1      42.389 -17.053   2.401  1.00  0.00     0.030 A 
HETATM   17  C   UNL     1      43.113 -18.230   2.626  1.00  0.00     0.012 A 
HETATM   18  C   UNL     1      43.627 -18.525   3.895  1.00  0.00    -0.030 A 
HETATM   19  C   UNL     1      43.397 -17.616   4.936  1.00  0.00     0.012 A 
HETATM   20  C   UNL     1      42.685 -16.434   4.706  1.00  0.00     0.030 A 
BRANCH  18  21
HETATM   21  C   UNL     1      44.374 -19.820   4.128  1.00  0.00     0.147 C 
HETATM   22  C   UNL     1      43.871 -20.937   3.225  1.00  0.00     0.044 C 
BRANCH  21  23
HETATM   23  O   UNL     1      44.248 -20.233   5.488  1.00  0.00    -0.391 OA
HETATM   24  H   UNL     1      43.658 -19.592   5.921  1.00  0.00     0.210 HD
ENDBRANCH  21  23
ENDBRANCH  18  21
ENDBRANCH  12  15
ENDBRANCH   1  11
BRANCH   4  25
HETATM   25  C   UNL     1      38.858  -8.631   2.633  1.00  0.00     0.409 C 
HETATM   26  F   UNL     1      39.879  -8.470   3.505  1.00  0.00    -0.169 F 
HETATM   27  F   UNL     1      38.805  -7.491   1.891  1.00  0.00    -0.169 F 
HETATM   28  F   UNL     1      37.707  -8.678   3.330  1.00  0.00    -0.169 F 
ENDBRANCH   4  25
BRANCH   6  29
HETATM   29  C   UNL     1      39.435 -11.408  -0.989  1.00  0.00    -0.035 A 
HETATM   30  C   UNL     1      38.405 -10.718  -1.663  1.00  0.00     0.012 A 
HETATM   31  C   UNL     1      37.412 -11.407  -2.366  1.00  0.00     0.043 A 
HETATM   32  C   UNL     1      37.448 -12.793  -2.422  1.00  0.00     0.116 A 
HETATM   33  F   UNL     1      36.498 -13.452  -3.098  1.00  0.00    -0.206 F 
HETATM   34  C   UNL     1      38.459 -13.501  -1.793  1.00  0.00     0.043 A 
HETATM   35  C   UNL     1      39.449 -12.813  -1.085  1.00  0.00     0.012 A 
ENDBRANCH   6  29
TORSDOF 6
ENDMDL
MODEL 9
REMARK VINA RESULT:      -7.7      4.398      9.188
REMARK  6 active torsions:
REMARK  status: ('A' for Active; 'I' for Inactive)
REMARK    1  A    between atoms: C_2  and  O_3 
REMARK    2  A    between atoms: C_2  and  C_4 
REMARK    3  A    between atoms: C_7  and  N_8 
REMARK       I    between atoms: N_8  and  C_9 
REMARK    4  A    between atoms: C_9  and  C_10 
REMARK    5  A    between atoms: C_13  and  C_14 
REMARK    6  A    between atoms: C_19  and  C_20 
ROOT
HETATM    1  C   UNL     1      42.859 -10.983   6.496  1.00  0.00     0.096 A 
HETATM    2  C   UNL     1      41.914 -11.901   6.075  1.00  0.00     0.138 A 
HETATM    3  N   UNL     1      42.534 -12.662   5.110  1.00  0.00    -0.240 N 
HETATM    4  C   UNL     1      41.886 -13.725   4.362  1.00  0.00     0.221 C 
HETATM    5  C   UNL     1      40.537 -14.096   5.010  1.00  0.00     0.066 C 
HETATM    6  C   UNL     1      39.756 -12.845   5.446  1.00  0.00     0.118 C 
HETATM    7  N   UNL     1      40.605 -12.105   6.395  1.00  0.00    -0.365 N 
HETATM    8  N   UNL     1      43.748 -12.206   4.770  1.00  0.00    -0.181 NA
HETATM    9  C   UNL     1      43.953 -11.200   5.625  1.00  0.00     0.160 A 
HETATM   10  H   UNL     1      40.094 -11.359   6.871  1.00  0.00     0.161 HD
ENDROOT
BRANCH   1  11
HETATM   11  C   UNL     1      42.759  -9.973   7.533  1.00  0.00     0.261 C 
HETATM   12  N   UNL     1      42.931 -10.484   8.805  1.00  0.00    -0.323 N 
HETATM   13  H   UNL     1      43.235 -11.451   8.846  1.00  0.00     0.169 HD
HETATM   14  O   UNL     1      42.587  -8.795   7.244  1.00  0.00    -0.267 OA
BRANCH  12  15
HETATM   15  C   UNL     1      42.870  -9.787  10.026  1.00  0.00     0.035 A 
HETATM   16  C   UNL     1      41.679  -9.456  10.671  1.00  0.00     0.030 A 
HETATM   17  C   UNL     1      41.696  -8.761  11.886  1.00  0.00     0.012 A 
HETATM   18  C   UNL     1      42.908  -8.381  12.478  1.00  0.00    -0.030 A 
HETATM   19  C   UNL     1      44.103  -8.711  11.824  1.00  0.00     0.012 A 
HETATM   20  C   UNL     1      44.083  -9.418  10.617  1.00  0.00     0.030 A 
BRANCH  18  21
HETATM   21  C   UNL     1      42.906  -7.597  13.773  1.00  0.00     0.147 C 
HETATM   22  C   UNL     1      41.923  -8.170  14.783  1.00  0.00     0.044 C 
BRANCH  21  23
HETATM   23  O   UNL     1      42.575  -6.231  13.529  1.00  0.00    -0.391 OA
HETATM   24  H   UNL     1      41.621  -6.204  13.338  1.00  0.00     0.210 HD
ENDBRANCH  21  23
ENDBRANCH  18  21
ENDBRANCH  12  15
ENDBRANCH   1  11
BRANCH   4  25
HETATM   25  C   UNL     1      42.761 -14.958   4.283  1.00  0.00     0.409 C 
HETATM   26  F   UNL     1      42.036 -16.095   4.172  1.00  0.00    -0.169 F 
HETATM   27  F   UNL     1      43.539 -14.890   3.168  1.00  0.00    -0.169 F 
HETATM   28  F   UNL     1      43.606 -15.094   5.323  1.00  0.00    -0.169 F 
ENDBRANCH   4  25
BRANCH   6  29
HETATM   29  C   UNL     1      39.248 -11.988   4.286  1.00  0.00    -0.035 A 
HETATM   30  C   UNL     1      38.972 -12.595   3.042  1.00  0.00     0.012 A 
HETATM   31  C   UNL     1      38.506 -11.845   1.958  1.00  0.00     0.043 A 
HETATM   32  C   UNL     1      38.291 -10.482   2.110  1.00  0.00     0.116 A 
HETATM   33  F   UNL     1      37.842  -9.765   1.071  1.00  0.00    -0.206 F 
HETATM   34  C   UNL     1      38.527  -9.859   3.324  1.00  0.00     0.043 A 
HETATM   35  C   UNL     1      38.998 -10.607   4.407  1.00  0.00     0.012 A 
ENDBRANCH   6  29
TORSDOF 6
ENDMDL
MODEL 10
REMARK VINA RESULT:      -7.6      4.247      8.865
REMARK  6 active torsions:
REMARK  status: ('A' for Active; 'I' for Inactive)
REMARK    1  A    between atoms: C_2  and  O_3 
REMARK    2  A    between atoms: C_2  and  C_4 
REMARK    3  A    between atoms: C_7  and  N_8 
REMARK       I    between atoms: N_8  and  C_9 
REMARK    4  A    between atoms: C_9  and  C_10 
REMARK    5  A    between atoms: C_13  and  C_14 
REMARK    6  A    between atoms: C_19  and  C_20 
ROOT
HETATM    1  C   UNL     1      41.224 -10.376   6.830  1.00  0.00     0.096 A 
HETATM    2  C   UNL     1      41.730 -11.139   5.793  1.00  0.00     0.138 A 
HETATM    3  N   UNL     1      40.636 -11.605   5.100  1.00  0.00    -0.240 N 
HETATM    4  C   UNL     1      40.706 -12.490   3.952  1.00  0.00     0.221 C 
HETATM    5  C   UNL     1      42.153 -12.574   3.424  1.00  0.00     0.066 C 
HETATM    6  C   UNL     1      43.169 -12.684   4.573  1.00  0.00     0.118 C 
HETATM    7  N   UNL     1      42.994 -11.499   5.430  1.00  0.00    -0.365 N 
HETATM    8  N   UNL     1      39.469 -11.328   5.701  1.00  0.00    -0.181 NA
HETATM    9  C   UNL     1      39.825 -10.566   6.739  1.00  0.00     0.160 A 
HETATM   10  H   UNL     1      43.747 -11.401   6.113  1.00  0.00     0.161 HD
ENDROOT
BRANCH   1  11
HETATM   11  C   UNL     1      41.935  -9.609   7.836  1.00  0.00     0.261 C 
HETATM   12  N   UNL     1      41.291  -9.591   9.059  1.00  0.00    -0.323 N 
HETATM   13  H   UNL     1      40.494 -10.213   9.137  1.00  0.00     0.169 HD
HETATM   14  O   UNL     1      43.017  -9.095   7.581  1.00  0.00    -0.267 OA
BRANCH  12  15
HETATM   15  C   UNL     1      41.693  -8.924  10.231  1.00  0.00     0.035 A 
HETATM   16  C   UNL     1      41.579  -7.547  10.417  1.00  0.00     0.030 A 
HETATM   17  C   UNL     1      41.999  -6.953  11.614  1.00  0.00     0.012 A 
HETATM   18  C   UNL     1      42.545  -7.728  12.645  1.00  0.00    -0.030 A 
HETATM   19  C   UNL     1      42.663  -9.110  12.452  1.00  0.00     0.012 A 
HETATM   20  C   UNL     1      42.229  -9.703  11.262  1.00  0.00     0.030 A 
BRANCH  18  21
HETATM   21  C   UNL     1      43.030  -7.063  13.916  1.00  0.00     0.147 C 
HETATM   22  C   UNL     1      42.317  -7.604  15.147  1.00  0.00     0.044 C 
BRANCH  21  23
HETATM   23  O   UNL     1      42.831  -5.652  13.850  1.00  0.00    -0.391 OA
HETATM   24  H   UNL     1      41.935  -5.512  13.498  1.00  0.00     0.210 HD
ENDBRANCH  21  23
ENDBRANCH  18  21
ENDBRANCH  12  15
ENDBRANCH   1  11
BRANCH   4  25
HETATM   25  C   UNL     1      39.792 -12.027   2.839  1.00  0.00     0.409 C 
HETATM   26  F   UNL     1      40.273 -12.343   1.615  1.00  0.00    -0.169 F 
HETATM   27  F   UNL     1      38.589 -12.654   2.951  1.00  0.00    -0.169 F 
HETATM   28  F   UNL     1      39.530 -10.706   2.863  1.00  0.00    -0.169 F 
ENDBRANCH   4  25
BRANCH   6  29
HETATM   29  C   UNL     1      43.107 -14.006   5.339  1.00  0.00    -0.035 A 
HETATM   30  C   UNL     1      43.005 -15.219   4.627  1.00  0.00     0.012 A 
HETATM   31  C   UNL     1      42.945 -16.447   5.292  1.00  0.00     0.043 A 
HETATM   32  C   UNL     1      43.008 -16.479   6.677  1.00  0.00     0.116 A 
HETATM   33  F   UNL     1      42.954 -17.657   7.314  1.00  0.00    -0.206 F 
HETATM   34  C   UNL     1      43.134 -15.309   7.408  1.00  0.00     0.043 A 
HETATM   35  C   UNL     1      43.188 -14.081   6.744  1.00  0.00     0.012 A 
ENDBRANCH   6  29
TORSDOF 6
ENDMDL
