MODEL 1
REMARK VINA RESULT:      -8.3      0.000      0.000
REMARK  11 active torsions:
REMARK  status: ('A' for Active; 'I' for Inactive)
REMARK    1  A    between atoms: C_4  and  C_5 
REMARK    2  A    between atoms: C_7  and  O_8 
REMARK    3  A    between atoms: C_10  and  O_11 
REMARK    4  A    between atoms: C_16  and  C_17 
REMARK    5  A    between atoms: C_20  and  C_21 
REMARK    6  A    between atoms: C_21  and  N_22 
REMARK    7  A    between atoms: N_22  and  C_23 
REMARK    8  A    between atoms: C_23  and  N_24 
REMARK    9  A    between atoms: N_24  and  C_25 
REMARK   10  A    between atoms: C_27  and  O_28 
REMARK   11  A    between atoms: C_31  and  O_32 
ROOT
HETATM    1  C   UNL     1      40.988 -11.568   6.233  1.00  0.00     0.067 C 
HETATM    2  C   UNL     1      39.553 -11.673   5.681  1.00  0.00     0.001 C 
HETATM    3  C   UNL     1      39.499 -11.243   4.197  1.00  0.00     0.040 C 
HETATM    4  C   UNL     1      39.845  -9.753   4.037  1.00  0.00     0.206 C 
HETATM    5  N   UNL     1      40.419  -9.284   5.377  1.00  0.00    -0.065 N 
HETATM    6  H   UNL     1      40.770  -8.321   5.265  1.00  0.00     0.280 HD
HETATM    7  C   UNL     1      41.559 -10.173   5.857  1.00  0.00     0.246 C 
HETATM    8  C   UNL     1      38.689 -10.657   6.474  1.00  0.00     0.033 C 
HETATM    9  C   UNL     1      39.308  -9.256   6.413  1.00  0.00     0.236 C 
ENDROOT
BRANCH   4  10
HETATM   10  C   UNL     1      40.815  -9.463   2.869  1.00  0.00     0.155 C 
BRANCH  10  11
HETATM   11  N   UNL     1      40.533 -10.233   1.664  1.00  0.00    -0.365 N 
HETATM   12  H   UNL     1      39.752 -10.881   1.693  1.00  0.00     0.161 HD
BRANCH  11  13
HETATM   13  C   UNL     1      41.173 -10.150   0.460  1.00  0.00     0.172 C 
HETATM   14  S   UNL     1      41.389  -8.736  -0.404  1.00  0.00    -0.041 SA
BRANCH  13  15
HETATM   15  N   UNL     1      41.594 -11.322  -0.100  1.00  0.00    -0.333 N 
HETATM   16  H   UNL     1      42.607 -11.414  -0.127  1.00  0.00     0.168 HD
BRANCH  15  17
HETATM   17  C   UNL     1      40.879 -12.479  -0.487  1.00  0.00     0.039 A 
HETATM   18  C   UNL     1      40.746 -13.612   0.319  1.00  0.00     0.066 A 
HETATM   19  C   UNL     1      40.026 -14.728  -0.117  1.00  0.00     0.073 A 
HETATM   20  C   UNL     1      39.459 -14.720  -1.388  1.00  0.00     0.073 A 
HETATM   21  C   UNL     1      39.628 -13.617  -2.231  1.00  0.00     0.073 A 
HETATM   22  C   UNL     1      40.337 -12.501  -1.779  1.00  0.00     0.066 A 
BRANCH  19  23
HETATM   23  O   UNL     1      39.957 -15.748   0.792  1.00  0.00    -0.356 OA
HETATM   24  C   UNL     1      39.605 -15.395   2.126  1.00  0.00     0.210 C 
ENDBRANCH  19  23
BRANCH  21  25
HETATM   25  O   UNL     1      39.040 -13.751  -3.459  1.00  0.00    -0.356 OA
HETATM   26  C   UNL     1      38.108 -14.812  -3.623  1.00  0.00     0.210 C 
ENDBRANCH  21  25
ENDBRANCH  15  17
ENDBRANCH  13  15
ENDBRANCH  11  13
ENDBRANCH  10  11
ENDBRANCH   4  10
BRANCH   1  27
HETATM   27  C   UNL     1      42.006 -12.650   5.970  1.00  0.00     0.038 C 
HETATM   28  N   UNL     1      43.287 -12.843   6.444  1.00  0.00    -0.277 N 
HETATM   29  C   UNL     1      44.166 -12.004   7.223  1.00  0.00     0.179 C 
HETATM   30  N   UNL     1      43.794 -14.039   6.102  1.00  0.00    -0.172 NA
HETATM   31  C   UNL     1      42.954 -14.547   5.196  1.00  0.00     0.089 C 
HETATM   32  C   UNL     1      41.816 -13.716   5.096  1.00  0.00     0.061 C 
BRANCH  31  33
HETATM   33  C   UNL     1      43.236 -15.794   4.487  1.00  0.00    -0.003 A 
HETATM   34  C   UNL     1      43.686 -16.924   5.188  1.00  0.00     0.053 A 
HETATM   35  C   UNL     1      43.958 -18.124   4.521  1.00  0.00     0.102 A 
HETATM   36  C   UNL     1      43.794 -18.198   3.123  1.00  0.00     0.101 A 
HETATM   37  C   UNL     1      43.352 -17.072   2.422  1.00  0.00     0.040 A 
HETATM   38  C   UNL     1      43.074 -15.881   3.099  1.00  0.00     0.017 A 
BRANCH  35  39
HETATM   39  O   UNL     1      44.387 -19.274   5.136  1.00  0.00    -0.353 OA
HETATM   40  C   UNL     1      43.498 -19.912   6.043  1.00  0.00     0.210 C 
ENDBRANCH  35  39
BRANCH  36  41
HETATM   41  O   UNL     1      44.081 -19.407   2.543  1.00  0.00    -0.353 OA
HETATM   42  C   UNL     1      43.024 -20.094   1.889  1.00  0.00     0.210 C 
ENDBRANCH  36  41
ENDBRANCH  31  33
ENDBRANCH   1  27
TORSDOF 11
ENDMDL
MODEL 2
REMARK VINA RESULT:      -8.1      4.087      7.858
REMARK  11 active torsions:
REMARK  status: ('A' for Active; 'I' for Inactive)
REMARK    1  A    between atoms: C_4  and  C_5 
REMARK    2  A    between atoms: C_7  and  O_8 
REMARK    3  A    between atoms: C_10  and  O_11 
REMARK    4  A    between atoms: C_16  and  C_17 
REMARK    5  A    between atoms: C_20  and  C_21 
REMARK    6  A    between atoms: C_21  and  N_22 
REMARK    7  A    between atoms: N_22  and  C_23 
REMARK    8  A    between atoms: C_23  and  N_24 
REMARK    9  A    between atoms: N_24  and  C_25 
REMARK   10  A    between atoms: C_27  and  O_28 
REMARK   11  A    between atoms: C_31  and  O_32 
ROOT
HETATM    1  C   UNL     1      40.823 -11.976   2.362  1.00  0.00     0.067 C 
HETATM    2  C   UNL     1      41.865 -10.839   2.367  1.00  0.00     0.001 C 
HETATM    3  C   UNL     1      42.571 -10.744   3.739  1.00  0.00     0.040 C 
HETATM    4  C   UNL     1      41.582 -10.339   4.845  1.00  0.00     0.206 C 
HETATM    5  N   UNL     1      40.176 -10.466   4.254  1.00  0.00    -0.065 N 
HETATM    6  H   UNL     1      39.488 -10.316   5.006  1.00  0.00     0.280 HD
HETATM    7  C   UNL     1      39.937 -11.836   3.630  1.00  0.00     0.246 C 
HETATM    8  C   UNL     1      41.086  -9.512   2.169  1.00  0.00     0.033 C 
HETATM    9  C   UNL     1      39.972  -9.377   3.214  1.00  0.00     0.236 C 
ENDROOT
BRANCH   4  10
HETATM   10  C   UNL     1      41.731 -11.165   6.143  1.00  0.00     0.155 C 
BRANCH  10  11
HETATM   11  N   UNL     1      43.011 -11.853   6.261  1.00  0.00    -0.365 N 
HETATM   12  H   UNL     1      43.154 -12.679   5.688  1.00  0.00     0.161 HD
BRANCH  11  13
HETATM   13  C   UNL     1      44.082 -11.485   7.024  1.00  0.00     0.172 C 
HETATM   14  S   UNL     1      45.652 -11.370   6.464  1.00  0.00    -0.041 SA
BRANCH  13  15
HETATM   15  N   UNL     1      43.851 -11.272   8.353  1.00  0.00    -0.333 N 
HETATM   16  H   UNL     1      44.051 -12.085   8.932  1.00  0.00     0.168 HD
BRANCH  15  17
HETATM   17  C   UNL     1      43.549 -10.090   9.069  1.00  0.00     0.039 A 
HETATM   18  C   UNL     1      43.457  -8.829   8.475  1.00  0.00     0.066 A 
HETATM   19  C   UNL     1      43.154  -7.695   9.233  1.00  0.00     0.073 A 
HETATM   20  C   UNL     1      42.971  -7.821  10.607  1.00  0.00     0.073 A 
HETATM   21  C   UNL     1      43.113  -9.066  11.227  1.00  0.00     0.073 A 
HETATM   22  C   UNL     1      43.402 -10.196  10.458  1.00  0.00     0.066 A 
BRANCH  19  23
HETATM   23  O   UNL     1      43.070  -6.536   8.509  1.00  0.00    -0.356 OA
HETATM   24  C   UNL     1      42.093  -6.497   7.475  1.00  0.00     0.210 C 
ENDBRANCH  19  23
BRANCH  21  25
HETATM   25  O   UNL     1      42.931  -9.044  12.583  1.00  0.00    -0.356 OA
HETATM   26  C   UNL     1      43.259  -7.839  13.265  1.00  0.00     0.210 C 
ENDBRANCH  21  25
ENDBRANCH  15  17
ENDBRANCH  13  15
ENDBRANCH  11  13
ENDBRANCH  10  11
ENDBRANCH   4  10
BRANCH   1  27
HETATM   27  C   UNL     1      41.236 -13.411   2.156  1.00  0.00     0.038 C 
HETATM   28  N   UNL     1      41.108 -14.260   1.076  1.00  0.00    -0.277 N 
HETATM   29  C   UNL     1      40.393 -14.135  -0.172  1.00  0.00     0.179 C 
HETATM   30  N   UNL     1      41.777 -15.413   1.238  1.00  0.00    -0.172 NA
HETATM   31  C   UNL     1      42.150 -15.444   2.519  1.00  0.00     0.089 C 
HETATM   32  C   UNL     1      41.844 -14.204   3.125  1.00  0.00     0.061 C 
BRANCH  31  33
HETATM   33  C   UNL     1      42.798 -16.613   3.114  1.00  0.00    -0.003 A 
HETATM   34  C   UNL     1      43.037 -16.665   4.495  1.00  0.00     0.053 A 
HETATM   35  C   UNL     1      43.654 -17.779   5.077  1.00  0.00     0.102 A 
HETATM   36  C   UNL     1      44.056 -18.858   4.263  1.00  0.00     0.101 A 
HETATM   37  C   UNL     1      43.824 -18.805   2.886  1.00  0.00     0.040 A 
HETATM   38  C   UNL     1      43.198 -17.691   2.316  1.00  0.00     0.017 A 
BRANCH  35  39
HETATM   39  O   UNL     1      43.910 -17.913   6.419  1.00  0.00    -0.353 OA
HETATM   40  C   UNL     1      43.582 -16.822   7.268  1.00  0.00     0.210 C 
ENDBRANCH  35  39
BRANCH  36  41
HETATM   41  O   UNL     1      44.654 -19.912   4.907  1.00  0.00    -0.353 OA
HETATM   42  C   UNL     1      43.895 -21.100   5.075  1.00  0.00     0.210 C 
ENDBRANCH  36  41
ENDBRANCH  31  33
ENDBRANCH   1  27
TORSDOF 11
ENDMDL
MODEL 3
REMARK VINA RESULT:      -8.0      3.684      7.617
REMARK  11 active torsions:
REMARK  status: ('A' for Active; 'I' for Inactive)
REMARK    1  A    between atoms: C_4  and  C_5 
REMARK    2  A    between atoms: C_7  and  O_8 
REMARK    3  A    between atoms: C_10  and  O_11 
REMARK    4  A    between atoms: C_16  and  C_17 
REMARK    5  A    between atoms: C_20  and  C_21 
REMARK    6  A    between atoms: C_21  and  N_22 
REMARK    7  A    between atoms: N_22  and  C_23 
REMARK    8  A    between atoms: C_23  and  N_24 
REMARK    9  A    between atoms: N_24  and  C_25 
REMARK   10  A    between atoms: C_27  and  O_28 
REMARK   11  A    between atoms: C_31  and  O_32 
ROOT
HETATM    1  C   UNL     1      39.896 -12.153   2.175  1.00  0.00     0.067 C 
HETATM    2  C   UNL     1      40.692 -10.835   2.082  1.00  0.00     0.001 C 
HETATM    3  C   UNL     1      41.474 -10.569   3.388  1.00  0.00     0.040 C 
HETATM    4  C   UNL     1      40.517 -10.336   4.570  1.00  0.00     0.206 C 
HETATM    5  N   UNL     1      39.120 -10.750   4.100  1.00  0.00    -0.065 N 
HETATM    6  H   UNL     1      38.479 -10.718   4.906  1.00  0.00     0.280 HD
HETATM    7  C   UNL     1      39.104 -12.156   3.511  1.00  0.00     0.246 C 
HETATM    8  C   UNL     1      39.654  -9.691   1.937  1.00  0.00     0.033 C 
HETATM    9  C   UNL     1      38.623  -9.749   3.070  1.00  0.00     0.236 C 
ENDROOT
BRANCH   4  10
HETATM   10  C   UNL     1      40.929 -11.084   5.858  1.00  0.00     0.155 C 
BRANCH  10  11
HETATM   11  N   UNL     1      40.378 -10.505   7.078  1.00  0.00    -0.365 N 
HETATM   12  H   UNL     1      40.003 -11.144   7.772  1.00  0.00     0.161 HD
BRANCH  11  13
HETATM   13  C   UNL     1      40.352  -9.186   7.430  1.00  0.00     0.172 C 
HETATM   14  S   UNL     1      39.127  -8.122   7.031  1.00  0.00    -0.041 SA
BRANCH  13  15
HETATM   15  N   UNL     1      41.444  -8.699   8.089  1.00  0.00    -0.333 N 
HETATM   16  H   UNL     1      41.600  -7.706   7.931  1.00  0.00     0.168 HD
BRANCH  15  17
HETATM   17  C   UNL     1      42.282  -9.286   9.066  1.00  0.00     0.039 A 
HETATM   18  C   UNL     1      43.535  -9.835   8.782  1.00  0.00     0.066 A 
HETATM   19  C   UNL     1      44.319 -10.402   9.789  1.00  0.00     0.073 A 
HETATM   20  C   UNL     1      43.829 -10.449  11.092  1.00  0.00     0.073 A 
HETATM   21  C   UNL     1      42.555  -9.955  11.385  1.00  0.00     0.073 A 
HETATM   22  C   UNL     1      41.785  -9.376  10.373  1.00  0.00     0.066 A 
BRANCH  19  23
HETATM   23  O   UNL     1      45.533 -10.872   9.365  1.00  0.00    -0.356 OA
HETATM   24  C   UNL     1      45.895 -10.585   8.018  1.00  0.00     0.210 C 
ENDBRANCH  19  23
BRANCH  21  25
HETATM   25  O   UNL     1      42.189 -10.085  12.697  1.00  0.00    -0.356 OA
HETATM   26  C   UNL     1      40.801  -9.999  12.997  1.00  0.00     0.210 C 
ENDBRANCH  21  25
ENDBRANCH  15  17
ENDBRANCH  13  15
ENDBRANCH  11  13
ENDBRANCH  10  11
ENDBRANCH   4  10
BRANCH   1  27
HETATM   27  C   UNL     1      40.565 -13.486   1.948  1.00  0.00     0.038 C 
HETATM   28  N   UNL     1      40.689 -14.273   0.823  1.00  0.00    -0.277 N 
HETATM   29  C   UNL     1      40.091 -14.188  -0.488  1.00  0.00     0.179 C 
HETATM   30  N   UNL     1      41.525 -15.310   1.002  1.00  0.00    -0.172 NA
HETATM   31  C   UNL     1      41.770 -15.360   2.314  1.00  0.00     0.089 C 
HETATM   32  C   UNL     1      41.199 -14.228   2.940  1.00  0.00     0.061 C 
BRANCH  31  33
HETATM   33  C   UNL     1      42.544 -16.442   2.920  1.00  0.00    -0.003 A 
HETATM   34  C   UNL     1      43.100 -16.287   4.199  1.00  0.00     0.053 A 
HETATM   35  C   UNL     1      43.841 -17.317   4.791  1.00  0.00     0.102 A 
HETATM   36  C   UNL     1      44.047 -18.521   4.089  1.00  0.00     0.101 A 
HETATM   37  C   UNL     1      43.499 -18.675   2.812  1.00  0.00     0.040 A 
HETATM   38  C   UNL     1      42.752 -17.645   2.233  1.00  0.00     0.017 A 
BRANCH  35  39
HETATM   39  O   UNL     1      44.404 -17.248   6.041  1.00  0.00    -0.353 OA
HETATM   40  C   UNL     1      43.531 -17.161   7.158  1.00  0.00     0.210 C 
ENDBRANCH  35  39
BRANCH  36  41
HETATM   41  O   UNL     1      44.784 -19.481   4.735  1.00  0.00    -0.353 OA
HETATM   42  C   UNL     1      44.107 -20.650   5.174  1.00  0.00     0.210 C 
ENDBRANCH  36  41
ENDBRANCH  31  33
ENDBRANCH   1  27
TORSDOF 11
ENDMDL
MODEL 4
REMARK VINA RESULT:      -8.0      2.467      5.730
REMARK  11 active torsions:
REMARK  status: ('A' for Active; 'I' for Inactive)
REMARK    1  A    between atoms: C_4  and  C_5 
REMARK    2  A    between atoms: C_7  and  O_8 
REMARK    3  A    between atoms: C_10  and  O_11 
REMARK    4  A    between atoms: C_16  and  C_17 
REMARK    5  A    between atoms: C_20  and  C_21 
REMARK    6  A    between atoms: C_21  and  N_22 
REMARK    7  A    between atoms: N_22  and  C_23 
REMARK    8  A    between atoms: C_23  and  N_24 
REMARK    9  A    between atoms: N_24  and  C_25 
REMARK   10  A    between atoms: C_27  and  O_28 
REMARK   11  A    between atoms: C_31  and  O_32 
ROOT
HETATM    1  C   UNL     1      39.832 -13.728  -0.226  1.00  0.00     0.067 C 
HETATM    2  C   UNL     1      40.227 -13.343  -1.666  1.00  0.00     0.001 C 
HETATM    3  C   UNL     1      40.716 -11.879  -1.732  1.00  0.00     0.040 C 
HETATM    4  C   UNL     1      39.581 -10.898  -1.389  1.00  0.00     0.206 C 
HETATM    5  N   UNL     1      38.437 -11.730  -0.804  1.00  0.00    -0.065 N 
HETATM    6  H   UNL     1      37.709 -11.088  -0.456  1.00  0.00     0.280 HD
HETATM    7  C   UNL     1      38.900 -12.622   0.340  1.00  0.00     0.246 C 
HETATM    8  C   UNL     1      38.936 -13.425  -2.525  1.00  0.00     0.033 C 
HETATM    9  C   UNL     1      37.821 -12.575  -1.907  1.00  0.00     0.236 C 
ENDROOT
BRANCH   4  10
HETATM   10  C   UNL     1      40.010  -9.765  -0.429  1.00  0.00     0.155 C 
BRANCH  10  11
HETATM   11  N   UNL     1      38.997  -9.415   0.559  1.00  0.00    -0.365 N 
HETATM   12  H   UNL     1      38.030  -9.391   0.252  1.00  0.00     0.161 HD
BRANCH  11  13
HETATM   13  C   UNL     1      39.190  -9.160   1.887  1.00  0.00     0.172 C 
HETATM   14  S   UNL     1      40.350  -8.122   2.496  1.00  0.00    -0.041 SA
BRANCH  13  15
HETATM   15  N   UNL     1      38.425  -9.866   2.771  1.00  0.00    -0.333 N 
HETATM   16  H   UNL     1      37.471 -10.013   2.450  1.00  0.00     0.168 HD
BRANCH  15  17
HETATM   17  C   UNL     1      38.770 -10.558   3.956  1.00  0.00     0.039 A 
HETATM   18  C   UNL     1      38.641 -10.012   5.235  1.00  0.00     0.066 A 
HETATM   19  C   UNL     1      38.998 -10.745   6.371  1.00  0.00     0.073 A 
HETATM   20  C   UNL     1      39.518 -12.027   6.221  1.00  0.00     0.073 A 
HETATM   21  C   UNL     1      39.705 -12.569   4.946  1.00  0.00     0.073 A 
HETATM   22  C   UNL     1      39.331 -11.834   3.818  1.00  0.00     0.066 A 
BRANCH  19  23
HETATM   23  O   UNL     1      38.789 -10.090   7.555  1.00  0.00    -0.356 OA
HETATM   24  C   UNL     1      39.465  -8.849   7.728  1.00  0.00     0.210 C 
ENDBRANCH  19  23
BRANCH  21  25
HETATM   25  O   UNL     1      40.246 -13.826   4.942  1.00  0.00    -0.356 OA
HETATM   26  C   UNL     1      40.709 -14.339   6.185  1.00  0.00     0.210 C 
ENDBRANCH  21  25
ENDBRANCH  15  17
ENDBRANCH  13  15
ENDBRANCH  11  13
ENDBRANCH  10  11
ENDBRANCH   4  10
BRANCH   1  27
HETATM   27  C   UNL     1      40.876 -14.119   0.790  1.00  0.00     0.038 C 
HETATM   28  N   UNL     1      41.728 -13.365   1.569  1.00  0.00    -0.277 N 
HETATM   29  C   UNL     1      42.042 -11.956   1.575  1.00  0.00     0.179 C 
HETATM   30  N   UNL     1      42.381 -14.098   2.486  1.00  0.00    -0.172 NA
HETATM   31  C   UNL     1      42.155 -15.374   2.163  1.00  0.00     0.089 C 
HETATM   32  C   UNL     1      41.207 -15.430   1.117  1.00  0.00     0.061 C 
BRANCH  31  33
HETATM   33  C   UNL     1      42.810 -16.481   2.859  1.00  0.00    -0.003 A 
HETATM   34  C   UNL     1      43.281 -16.314   4.171  1.00  0.00     0.053 A 
HETATM   35  C   UNL     1      43.908 -17.367   4.848  1.00  0.00     0.102 A 
HETATM   36  C   UNL     1      44.084 -18.607   4.202  1.00  0.00     0.101 A 
HETATM   37  C   UNL     1      43.621 -18.773   2.894  1.00  0.00     0.040 A 
HETATM   38  C   UNL     1      42.987 -17.718   2.229  1.00  0.00     0.017 A 
BRANCH  35  39
HETATM   39  O   UNL     1      44.383 -17.288   6.134  1.00  0.00    -0.353 OA
HETATM   40  C   UNL     1      43.438 -17.121   7.181  1.00  0.00     0.210 C 
ENDBRANCH  35  39
BRANCH  36  41
HETATM   41  O   UNL     1      44.707 -19.587   4.932  1.00  0.00    -0.353 OA
HETATM   42  C   UNL     1      44.035 -20.830   5.080  1.00  0.00     0.210 C 
ENDBRANCH  36  41
ENDBRANCH  31  33
ENDBRANCH   1  27
TORSDOF 11
ENDMDL
MODEL 5
REMARK VINA RESULT:      -8.0      2.911      7.443
REMARK  11 active torsions:
REMARK  status: ('A' for Active; 'I' for Inactive)
REMARK    1  A    between atoms: C_4  and  C_5 
REMARK    2  A    between atoms: C_7  and  O_8 
REMARK    3  A    between atoms: C_10  and  O_11 
REMARK    4  A    between atoms: C_16  and  C_17 
REMARK    5  A    between atoms: C_20  and  C_21 
REMARK    6  A    between atoms: C_21  and  N_22 
REMARK    7  A    between atoms: N_22  and  C_23 
REMARK    8  A    between atoms: C_23  and  N_24 
REMARK    9  A    between atoms: N_24  and  C_25 
REMARK   10  A    between atoms: C_27  and  O_28 
REMARK   11  A    between atoms: C_31  and  O_32 
ROOT
HETATM    1  C   UNL     1      40.588 -10.809  -0.538  1.00  0.00     0.067 C 
HETATM    2  C   UNL     1      39.144 -11.101  -0.993  1.00  0.00     0.001 C 
HETATM    3  C   UNL     1      38.669 -12.477  -0.473  1.00  0.00     0.040 C 
HETATM    4  C   UNL     1      39.488 -13.620  -1.098  1.00  0.00     0.206 C 
HETATM    5  N   UNL     1      40.693 -12.977  -1.789  1.00  0.00    -0.065 N 
HETATM    6  H   UNL     1      41.323 -13.725  -2.115  1.00  0.00     0.280 HD
HETATM    7  C   UNL     1      41.465 -12.051  -0.857  1.00  0.00     0.246 C 
HETATM    8  C   UNL     1      39.168 -11.190  -2.542  1.00  0.00     0.033 C 
HETATM    9  C   UNL     1      40.215 -12.207  -3.009  1.00  0.00     0.236 C 
ENDROOT
BRANCH   4  10
HETATM   10  C   UNL     1      39.924 -14.698  -0.081  1.00  0.00     0.155 C 
BRANCH  10  11
HETATM   11  N   UNL     1      39.548 -14.398   1.295  1.00  0.00    -0.365 N 
HETATM   12  H   UNL     1      38.557 -14.324   1.505  1.00  0.00     0.161 HD
BRANCH  11  13
HETATM   13  C   UNL     1      40.380 -14.251   2.368  1.00  0.00     0.172 C 
HETATM   14  S   UNL     1      39.951 -13.522   3.809  1.00  0.00    -0.041 SA
BRANCH  13  15
HETATM   15  N   UNL     1      41.671 -14.667   2.212  1.00  0.00    -0.333 N 
HETATM   16  H   UNL     1      42.257 -13.988   1.731  1.00  0.00     0.168 HD
BRANCH  15  17
HETATM   17  C   UNL     1      42.361 -15.783   2.740  1.00  0.00     0.039 A 
HETATM   18  C   UNL     1      42.341 -17.052   2.156  1.00  0.00     0.066 A 
HETATM   19  C   UNL     1      43.044 -18.118   2.723  1.00  0.00     0.073 A 
HETATM   20  C   UNL     1      43.749 -17.919   3.907  1.00  0.00     0.073 A 
HETATM   21  C   UNL     1      43.736 -16.670   4.535  1.00  0.00     0.073 A 
HETATM   22  C   UNL     1      43.042 -15.606   3.952  1.00  0.00     0.066 A 
BRANCH  19  23
HETATM   23  O   UNL     1      42.954 -19.291   2.023  1.00  0.00    -0.356 OA
HETATM   24  C   UNL     1      43.690 -20.399   2.532  1.00  0.00     0.210 C 
ENDBRANCH  19  23
BRANCH  21  25
HETATM   25  O   UNL     1      44.449 -16.619   5.702  1.00  0.00    -0.356 OA
HETATM   26  C   UNL     1      43.793 -17.057   6.885  1.00  0.00     0.210 C 
ENDBRANCH  21  25
ENDBRANCH  15  17
ENDBRANCH  13  15
ENDBRANCH  11  13
ENDBRANCH  10  11
ENDBRANCH   4  10
BRANCH   1  27
HETATM   27  C   UNL     1      40.879 -10.292   0.849  1.00  0.00     0.038 C 
HETATM   28  N   UNL     1      40.471  -9.153   1.510  1.00  0.00    -0.277 N 
HETATM   29  C   UNL     1      39.761  -7.978   1.065  1.00  0.00     0.179 C 
HETATM   30  N   UNL     1      40.810  -9.157   2.810  1.00  0.00    -0.172 NA
HETATM   31  C   UNL     1      41.656 -10.179   2.966  1.00  0.00     0.089 C 
HETATM   32  C   UNL     1      41.715 -10.923   1.766  1.00  0.00     0.061 C 
BRANCH  31  33
HETATM   33  C   UNL     1      42.348 -10.430   4.229  1.00  0.00    -0.003 A 
HETATM   34  C   UNL     1      41.994  -9.720   5.386  1.00  0.00     0.053 A 
HETATM   35  C   UNL     1      42.649  -9.953   6.602  1.00  0.00     0.102 A 
HETATM   36  C   UNL     1      43.687 -10.903   6.664  1.00  0.00     0.101 A 
HETATM   37  C   UNL     1      44.045 -11.608   5.511  1.00  0.00     0.040 A 
HETATM   38  C   UNL     1      43.379 -11.374   4.303  1.00  0.00     0.017 A 
BRANCH  35  39
HETATM   39  O   UNL     1      42.353  -9.310   7.778  1.00  0.00    -0.353 OA
HETATM   40  C   UNL     1      41.018  -9.390   8.260  1.00  0.00     0.210 C 
ENDBRANCH  35  39
BRANCH  36  41
HETATM   41  O   UNL     1      44.279 -11.074   7.890  1.00  0.00    -0.353 OA
HETATM   42  C   UNL     1      45.594 -10.567   8.067  1.00  0.00     0.210 C 
ENDBRANCH  36  41
ENDBRANCH  31  33
ENDBRANCH   1  27
TORSDOF 11
ENDMDL
MODEL 6
REMARK VINA RESULT:      -8.0      4.236      7.710
REMARK  11 active torsions:
REMARK  status: ('A' for Active; 'I' for Inactive)
REMARK    1  A    between atoms: C_4  and  C_5 
REMARK    2  A    between atoms: C_7  and  O_8 
REMARK    3  A    between atoms: C_10  and  O_11 
REMARK    4  A    between atoms: C_16  and  C_17 
REMARK    5  A    between atoms: C_20  and  C_21 
REMARK    6  A    between atoms: C_21  and  N_22 
REMARK    7  A    between atoms: N_22  and  C_23 
REMARK    8  A    between atoms: C_23  and  N_24 
REMARK    9  A    between atoms: N_24  and  C_25 
REMARK   10  A    between atoms: C_27  and  O_28 
REMARK   11  A    between atoms: C_31  and  O_32 
ROOT
HETATM    1  C   UNL     1      40.676 -12.035   2.378  1.00  0.00     0.067 C 
HETATM    2  C   UNL     1      41.694 -10.880   2.284  1.00  0.00     0.001 C 
HETATM    3  C   UNL     1      42.488 -10.736   3.602  1.00  0.00     0.040 C 
HETATM    4  C   UNL     1      41.568 -10.318   4.762  1.00  0.00     0.206 C 
HETATM    5  N   UNL     1      40.128 -10.486   4.269  1.00  0.00    -0.065 N 
HETATM    6  H   UNL     1      39.489 -10.328   5.063  1.00  0.00     0.280 HD
HETATM    7  C   UNL     1      39.874 -11.876   3.699  1.00  0.00     0.246 C 
HETATM    8  C   UNL     1      40.878  -9.573   2.104  1.00  0.00     0.033 C 
HETATM    9  C   UNL     1      39.834  -9.430   3.218  1.00  0.00     0.236 C 
ENDROOT
BRANCH   4  10
HETATM   10  C   UNL     1      41.819 -11.106   6.067  1.00  0.00     0.155 C 
BRANCH  10  11
HETATM   11  N   UNL     1      43.218 -11.451   6.288  1.00  0.00    -0.365 N 
HETATM   12  H   UNL     1      43.682 -12.005   5.575  1.00  0.00     0.161 HD
BRANCH  11  13
HETATM   13  C   UNL     1      44.010 -11.069   7.333  1.00  0.00     0.172 C 
HETATM   14  S   UNL     1      45.680 -11.016   7.288  1.00  0.00    -0.041 SA
BRANCH  13  15
HETATM   15  N   UNL     1      43.385 -10.787   8.514  1.00  0.00    -0.333 N 
HETATM   16  H   UNL     1      43.074 -11.617   9.013  1.00  0.00     0.168 HD
BRANCH  15  17
HETATM   17  C   UNL     1      43.246  -9.573   9.227  1.00  0.00     0.039 A 
HETATM   18  C   UNL     1      43.397  -9.469  10.613  1.00  0.00     0.066 A 
HETATM   19  C   UNL     1      43.249  -8.242  11.264  1.00  0.00     0.073 A 
HETATM   20  C   UNL     1      42.915  -7.112  10.524  1.00  0.00     0.073 A 
HETATM   21  C   UNL     1      42.706  -7.207   9.145  1.00  0.00     0.073 A 
HETATM   22  C   UNL     1      42.871  -8.437   8.501  1.00  0.00     0.066 A 
BRANCH  19  23
HETATM   23  O   UNL     1      43.456  -8.291  12.616  1.00  0.00    -0.356 OA
HETATM   24  C   UNL     1      42.474  -8.973  13.390  1.00  0.00     0.210 C 
ENDBRANCH  19  23
BRANCH  21  25
HETATM   25  O   UNL     1      42.359  -6.027   8.545  1.00  0.00    -0.356 OA
HETATM   26  C   UNL     1      41.802  -6.100   7.238  1.00  0.00     0.210 C 
ENDBRANCH  21  25
ENDBRANCH  15  17
ENDBRANCH  13  15
ENDBRANCH  11  13
ENDBRANCH  10  11
ENDBRANCH   4  10
BRANCH   1  27
HETATM   27  C   UNL     1      41.102 -13.468   2.182  1.00  0.00     0.038 C 
HETATM   28  N   UNL     1      40.960 -14.333   1.117  1.00  0.00    -0.277 N 
HETATM   29  C   UNL     1      40.216 -14.234  -0.116  1.00  0.00     0.179 C 
HETATM   30  N   UNL     1      41.646 -15.476   1.279  1.00  0.00    -0.172 NA
HETATM   31  C   UNL     1      42.049 -15.484   2.552  1.00  0.00     0.089 C 
HETATM   32  C   UNL     1      41.741 -14.240   3.148  1.00  0.00     0.061 C 
BRANCH  31  33
HETATM   33  C   UNL     1      42.724 -16.637   3.147  1.00  0.00    -0.003 A 
HETATM   34  C   UNL     1      42.918 -16.707   4.535  1.00  0.00     0.053 A 
HETATM   35  C   UNL     1      43.561 -17.806   5.117  1.00  0.00     0.102 A 
HETATM   36  C   UNL     1      44.036 -18.850   4.299  1.00  0.00     0.101 A 
HETATM   37  C   UNL     1      43.849 -18.780   2.916  1.00  0.00     0.040 A 
HETATM   38  C   UNL     1      43.197 -17.682   2.345  1.00  0.00     0.017 A 
BRANCH  35  39
HETATM   39  O   UNL     1      43.776 -17.955   6.465  1.00  0.00    -0.353 OA
HETATM   40  C   UNL     1      43.680 -16.799   7.284  1.00  0.00     0.210 C 
ENDBRANCH  35  39
BRANCH  36  41
HETATM   41  O   UNL     1      44.654 -19.891   4.943  1.00  0.00    -0.353 OA
HETATM   42  C   UNL     1      43.886 -21.056   5.209  1.00  0.00     0.210 C 
ENDBRANCH  36  41
ENDBRANCH  31  33
ENDBRANCH   1  27
TORSDOF 11
ENDMDL
MODEL 7
REMARK VINA RESULT:      -7.9      5.064      8.223
REMARK  11 active torsions:
REMARK  status: ('A' for Active; 'I' for Inactive)
REMARK    1  A    between atoms: C_4  and  C_5 
REMARK    2  A    between atoms: C_7  and  O_8 
REMARK    3  A    between atoms: C_10  and  O_11 
REMARK    4  A    between atoms: C_16  and  C_17 
REMARK    5  A    between atoms: C_20  and  C_21 
REMARK    6  A    between atoms: C_21  and  N_22 
REMARK    7  A    between atoms: N_22  and  C_23 
REMARK    8  A    between atoms: C_23  and  N_24 
REMARK    9  A    between atoms: N_24  and  C_25 
REMARK   10  A    between atoms: C_27  and  O_28 
REMARK   11  A    between atoms: C_31  and  O_32 
ROOT
HETATM    1  C   UNL     1      42.715 -10.247   5.972  1.00  0.00     0.067 C 
HETATM    2  C   UNL     1      41.340  -9.699   5.540  1.00  0.00     0.001 C 
HETATM    3  C   UNL     1      40.210 -10.684   5.915  1.00  0.00     0.040 C 
HETATM    4  C   UNL     1      40.341 -12.002   5.132  1.00  0.00     0.206 C 
HETATM    5  N   UNL     1      41.724 -11.994   4.476  1.00  0.00    -0.065 N 
HETATM    6  H   UNL     1      41.887 -12.915   4.042  1.00  0.00     0.280 HD
HETATM    7  C   UNL     1      42.835 -11.715   5.480  1.00  0.00     0.246 C 
HETATM    8  C   UNL     1      41.359  -9.603   3.992  1.00  0.00     0.033 C 
HETATM    9  C   UNL     1      41.745 -10.950   3.371  1.00  0.00     0.236 C 
ENDROOT
BRANCH   4  10
HETATM   10  C   UNL     1      40.130 -13.263   6.000  1.00  0.00     0.155 C 
BRANCH  10  11
HETATM   11  N   UNL     1      41.341 -13.732   6.663  1.00  0.00    -0.365 N 
HETATM   12  H   UNL     1      41.892 -13.048   7.171  1.00  0.00     0.161 HD
BRANCH  11  13
HETATM   13  C   UNL     1      41.805 -15.014   6.729  1.00  0.00     0.172 C 
HETATM   14  S   UNL     1      42.951 -15.554   7.819  1.00  0.00    -0.041 SA
BRANCH  13  15
HETATM   15  N   UNL     1      41.349 -15.888   5.783  1.00  0.00    -0.333 N 
HETATM   16  H   UNL     1      40.398 -16.206   5.955  1.00  0.00     0.168 HD
BRANCH  15  17
HETATM   17  C   UNL     1      41.898 -16.288   4.543  1.00  0.00     0.039 A 
HETATM   18  C   UNL     1      42.892 -17.262   4.415  1.00  0.00     0.066 A 
HETATM   19  C   UNL     1      43.397 -17.617   3.161  1.00  0.00     0.073 A 
HETATM   20  C   UNL     1      42.922 -16.967   2.025  1.00  0.00     0.073 A 
HETATM   21  C   UNL     1      41.968 -15.952   2.138  1.00  0.00     0.073 A 
HETATM   22  C   UNL     1      41.459 -15.614   3.396  1.00  0.00     0.066 A 
BRANCH  19  23
HETATM   23  O   UNL     1      44.343 -18.605   3.191  1.00  0.00    -0.356 OA
HETATM   24  C   UNL     1      44.379 -19.422   4.358  1.00  0.00     0.210 C 
ENDBRANCH  19  23
BRANCH  21  25
HETATM   25  O   UNL     1      41.609 -15.381   0.948  1.00  0.00    -0.356 OA
HETATM   26  C   UNL     1      40.392 -14.645   0.920  1.00  0.00     0.210 C 
ENDBRANCH  21  25
ENDBRANCH  15  17
ENDBRANCH  13  15
ENDBRANCH  11  13
ENDBRANCH  10  11
ENDBRANCH   4  10
BRANCH   1  27
HETATM   27  C   UNL     1      43.191 -10.122   7.398  1.00  0.00     0.038 C 
HETATM   28  N   UNL     1      44.419 -10.353   7.981  1.00  0.00    -0.277 N 
HETATM   29  C   UNL     1      45.633 -10.949   7.476  1.00  0.00     0.179 C 
HETATM   30  N   UNL     1      44.474  -9.944   9.260  1.00  0.00    -0.172 NA
HETATM   31  C   UNL     1      43.216  -9.664   9.609  1.00  0.00     0.089 C 
HETATM   32  C   UNL     1      42.384  -9.749   8.469  1.00  0.00     0.061 C 
BRANCH  31  33
HETATM   33  C   UNL     1      42.850  -9.306  10.979  1.00  0.00    -0.003 A 
HETATM   34  C   UNL     1      41.638  -9.751  11.529  1.00  0.00     0.053 A 
HETATM   35  C   UNL     1      41.277  -9.417  12.840  1.00  0.00     0.102 A 
HETATM   36  C   UNL     1      42.133  -8.609  13.614  1.00  0.00     0.101 A 
HETATM   37  C   UNL     1      43.338  -8.159  13.066  1.00  0.00     0.040 A 
HETATM   38  C   UNL     1      43.694  -8.507  11.759  1.00  0.00     0.017 A 
BRANCH  35  39
HETATM   39  O   UNL     1      40.119  -9.823  13.454  1.00  0.00    -0.353 OA
HETATM   40  C   UNL     1      39.441 -10.948  12.912  1.00  0.00     0.210 C 
ENDBRANCH  35  39
BRANCH  36  41
HETATM   41  O   UNL     1      41.710  -8.325  14.888  1.00  0.00    -0.353 OA
HETATM   42  C   UNL     1      42.132  -7.099  15.468  1.00  0.00     0.210 C 
ENDBRANCH  36  41
ENDBRANCH  31  33
ENDBRANCH   1  27
TORSDOF 11
ENDMDL
MODEL 8
REMARK VINA RESULT:      -7.8      3.930      7.733
REMARK  11 active torsions:
REMARK  status: ('A' for Active; 'I' for Inactive)
REMARK    1  A    between atoms: C_4  and  C_5 
REMARK    2  A    between atoms: C_7  and  O_8 
REMARK    3  A    between atoms: C_10  and  O_11 
REMARK    4  A    between atoms: C_16  and  C_17 
REMARK    5  A    between atoms: C_20  and  C_21 
REMARK    6  A    between atoms: C_21  and  N_22 
REMARK    7  A    between atoms: N_22  and  C_23 
REMARK    8  A    between atoms: C_23  and  N_24 
REMARK    9  A    between atoms: N_24  and  C_25 
REMARK   10  A    between atoms: C_27  and  O_28 
REMARK   11  A    between atoms: C_31  and  O_32 
ROOT
HETATM    1  C   UNL     1      40.170 -11.907   2.169  1.00  0.00     0.067 C 
HETATM    2  C   UNL     1      41.072 -10.656   2.178  1.00  0.00     0.001 C 
HETATM    3  C   UNL     1      41.755 -10.478   3.553  1.00  0.00     0.040 C 
HETATM    4  C   UNL     1      40.719 -10.190   4.654  1.00  0.00     0.206 C 
HETATM    5  N   UNL     1      39.341 -10.482   4.055  1.00  0.00    -0.065 N 
HETATM    6  H   UNL     1      38.636 -10.413   4.804  1.00  0.00     0.280 HD
HETATM    7  C   UNL     1      39.267 -11.870   3.431  1.00  0.00     0.246 C 
HETATM    8  C   UNL     1      40.144  -9.429   1.974  1.00  0.00     0.033 C 
HETATM    9  C   UNL     1      39.017  -9.425   3.012  1.00  0.00     0.236 C 
ENDROOT
BRANCH   4  10
HETATM   10  C   UNL     1      40.957 -10.993   5.953  1.00  0.00     0.155 C 
BRANCH  10  11
HETATM   11  N   UNL     1      40.109 -10.580   7.065  1.00  0.00    -0.365 N 
HETATM   12  H   UNL     1      39.338 -11.190   7.318  1.00  0.00     0.161 HD
BRANCH  11  13
HETATM   13  C   UNL     1      40.259  -9.477   7.856  1.00  0.00     0.172 C 
HETATM   14  S   UNL     1      39.981  -7.906   7.356  1.00  0.00    -0.041 SA
BRANCH  13  15
HETATM   15  N   UNL     1      40.741  -9.680   9.117  1.00  0.00    -0.333 N 
HETATM   16  H   UNL     1      40.070 -10.129   9.737  1.00  0.00     0.168 HD
BRANCH  15  17
HETATM   17  C   UNL     1      42.041  -9.529   9.652  1.00  0.00     0.039 A 
HETATM   18  C   UNL     1      42.308  -8.898  10.871  1.00  0.00     0.066 A 
HETATM   19  C   UNL     1      43.615  -8.778  11.350  1.00  0.00     0.073 A 
HETATM   20  C   UNL     1      44.670  -9.269  10.586  1.00  0.00     0.073 A 
HETATM   21  C   UNL     1      44.428  -9.853   9.340  1.00  0.00     0.073 A 
HETATM   22  C   UNL     1      43.116  -9.981   8.876  1.00  0.00     0.066 A 
BRANCH  19  23
HETATM   23  O   UNL     1      43.716  -8.164  12.569  1.00  0.00    -0.356 OA
HETATM   24  C   UNL     1      42.664  -8.407  13.498  1.00  0.00     0.210 C 
ENDBRANCH  19  23
BRANCH  21  25
HETATM   25  O   UNL     1      45.554 -10.269   8.684  1.00  0.00    -0.356 OA
HETATM   26  C   UNL     1      46.367  -9.267   8.086  1.00  0.00     0.210 C 
ENDBRANCH  21  25
ENDBRANCH  15  17
ENDBRANCH  13  15
ENDBRANCH  11  13
ENDBRANCH  10  11
ENDBRANCH   4  10
BRANCH   1  27
HETATM   27  C   UNL     1      40.750 -13.284   1.966  1.00  0.00     0.038 C 
HETATM   28  N   UNL     1      40.773 -14.121   0.870  1.00  0.00    -0.277 N 
HETATM   29  C   UNL     1      40.116 -14.051  -0.413  1.00  0.00     0.179 C 
HETATM   30  N   UNL     1      41.555 -15.197   1.053  1.00  0.00    -0.172 NA
HETATM   31  C   UNL     1      41.862 -15.211   2.353  1.00  0.00     0.089 C 
HETATM   32  C   UNL     1      41.389 -14.024   2.957  1.00  0.00     0.061 C 
BRANCH  31  33
HETATM   33  C   UNL     1      42.602 -16.313   2.966  1.00  0.00    -0.003 A 
HETATM   34  C   UNL     1      43.149 -16.172   4.251  1.00  0.00     0.053 A 
HETATM   35  C   UNL     1      43.858 -17.221   4.849  1.00  0.00     0.102 A 
HETATM   36  C   UNL     1      44.040 -18.430   4.149  1.00  0.00     0.101 A 
HETATM   37  C   UNL     1      43.501 -18.570   2.867  1.00  0.00     0.040 A 
HETATM   38  C   UNL     1      42.786 -17.520   2.281  1.00  0.00     0.017 A 
BRANCH  35  39
HETATM   39  O   UNL     1      44.411 -17.166   6.105  1.00  0.00    -0.353 OA
HETATM   40  C   UNL     1      43.530 -17.029   7.212  1.00  0.00     0.210 C 
ENDBRANCH  35  39
BRANCH  36  41
HETATM   41  O   UNL     1      44.745 -19.408   4.802  1.00  0.00    -0.353 OA
HETATM   42  C   UNL     1      44.206 -20.722   4.806  1.00  0.00     0.210 C 
ENDBRANCH  36  41
ENDBRANCH  31  33
ENDBRANCH   1  27
TORSDOF 11
ENDMDL
MODEL 9
REMARK VINA RESULT:      -7.8      2.947      6.186
REMARK  11 active torsions:
REMARK  status: ('A' for Active; 'I' for Inactive)
REMARK    1  A    between atoms: C_4  and  C_5 
REMARK    2  A    between atoms: C_7  and  O_8 
REMARK    3  A    between atoms: C_10  and  O_11 
REMARK    4  A    between atoms: C_16  and  C_17 
REMARK    5  A    between atoms: C_20  and  C_21 
REMARK    6  A    between atoms: C_21  and  N_22 
REMARK    7  A    between atoms: N_22  and  C_23 
REMARK    8  A    between atoms: C_23  and  N_24 
REMARK    9  A    between atoms: N_24  and  C_25 
REMARK   10  A    between atoms: C_27  and  O_28 
REMARK   11  A    between atoms: C_31  and  O_32 
ROOT
HETATM    1  C   UNL     1      40.537 -13.333  -0.433  1.00  0.00     0.067 C 
HETATM    2  C   UNL     1      41.264 -12.000  -0.703  1.00  0.00     0.001 C 
HETATM    3  C   UNL     1      40.573 -10.834   0.040  1.00  0.00     0.040 C 
HETATM    4  C   UNL     1      39.154 -10.594  -0.503  1.00  0.00     0.206 C 
HETATM    5  N   UNL     1      38.806 -11.794  -1.387  1.00  0.00    -0.065 N 
HETATM    6  H   UNL     1      37.818 -11.719  -1.669  1.00  0.00     0.280 HD
HETATM    7  C   UNL     1      39.017 -13.120  -0.666  1.00  0.00     0.246 C 
HETATM    8  C   UNL     1      41.126 -11.711  -2.221  1.00  0.00     0.033 C 
HETATM    9  C   UNL     1      39.654 -11.747  -2.647  1.00  0.00     0.236 C 
ENDROOT
BRANCH   4  10
HETATM   10  C   UNL     1      38.096 -10.376   0.603  1.00  0.00     0.155 C 
BRANCH  10  11
HETATM   11  N   UNL     1      38.174  -9.069   1.244  1.00  0.00    -0.365 N 
HETATM   12  H   UNL     1      38.476  -8.284   0.675  1.00  0.00     0.161 HD
BRANCH  11  13
HETATM   13  C   UNL     1      37.834  -8.756   2.530  1.00  0.00     0.172 C 
HETATM   14  S   UNL     1      37.446  -7.220   3.061  1.00  0.00    -0.041 SA
BRANCH  13  15
HETATM   15  N   UNL     1      37.893  -9.764   3.449  1.00  0.00    -0.333 N 
HETATM   16  H   UNL     1      37.229 -10.514   3.268  1.00  0.00     0.168 HD
BRANCH  15  17
HETATM   17  C   UNL     1      38.812 -10.019   4.493  1.00  0.00     0.039 A 
HETATM   18  C   UNL     1      40.193 -10.113   4.302  1.00  0.00     0.066 A 
HETATM   19  C   UNL     1      41.054 -10.368   5.373  1.00  0.00     0.073 A 
HETATM   20  C   UNL     1      40.522 -10.561   6.645  1.00  0.00     0.073 A 
HETATM   21  C   UNL     1      39.139 -10.526   6.846  1.00  0.00     0.073 A 
HETATM   22  C   UNL     1      38.288 -10.256   5.771  1.00  0.00     0.066 A 
BRANCH  19  23
HETATM   23  O   UNL     1      42.380 -10.402   5.037  1.00  0.00    -0.356 OA
HETATM   24  C   UNL     1      42.698 -10.877   3.733  1.00  0.00     0.210 C 
ENDBRANCH  19  23
BRANCH  21  25
HETATM   25  O   UNL     1      38.752 -10.756   8.138  1.00  0.00    -0.356 OA
HETATM   26  C   UNL     1      39.153  -9.806   9.117  1.00  0.00     0.210 C 
ENDBRANCH  21  25
ENDBRANCH  15  17
ENDBRANCH  13  15
ENDBRANCH  11  13
ENDBRANCH  10  11
ENDBRANCH   4  10
BRANCH   1  27
HETATM   27  C   UNL     1      40.779 -14.109   0.838  1.00  0.00     0.038 C 
HETATM   28  N   UNL     1      40.169 -14.063   2.074  1.00  0.00    -0.277 N 
HETATM   29  C   UNL     1      39.202 -13.153   2.642  1.00  0.00     0.179 C 
HETATM   30  N   UNL     1      40.564 -15.056   2.887  1.00  0.00    -0.172 NA
HETATM   31  C   UNL     1      41.616 -15.622   2.290  1.00  0.00     0.089 C 
HETATM   32  C   UNL     1      41.775 -15.068   1.000  1.00  0.00     0.061 C 
BRANCH  31  33
HETATM   33  C   UNL     1      42.408 -16.668   2.936  1.00  0.00    -0.003 A 
HETATM   34  C   UNL     1      42.811 -16.529   4.272  1.00  0.00     0.053 A 
HETATM   35  C   UNL     1      43.568 -17.525   4.902  1.00  0.00     0.102 A 
HETATM   36  C   UNL     1      43.944 -18.676   4.181  1.00  0.00     0.101 A 
HETATM   37  C   UNL     1      43.549 -18.813   2.848  1.00  0.00     0.040 A 
HETATM   38  C   UNL     1      42.785 -17.818   2.231  1.00  0.00     0.017 A 
BRANCH  35  39
HETATM   39  O   UNL     1      43.989 -17.471   6.208  1.00  0.00    -0.353 OA
HETATM   40  C   UNL     1      43.246 -16.664   7.111  1.00  0.00     0.210 C 
ENDBRANCH  35  39
BRANCH  36  41
HETATM   41  O   UNL     1      44.685 -19.605   4.868  1.00  0.00    -0.353 OA
HETATM   42  C   UNL     1      44.102 -20.880   5.093  1.00  0.00     0.210 C 
ENDBRANCH  36  41
ENDBRANCH  31  33
ENDBRANCH   1  27
TORSDOF 11
ENDMDL
MODEL 10
REMARK VINA RESULT:      -7.7      2.650      5.913
REMARK  11 active torsions:
REMARK  status: ('A' for Active; 'I' for Inactive)
REMARK    1  A    between atoms: C_4  and  C_5 
REMARK    2  A    between atoms: C_7  and  O_8 
REMARK    3  A    between atoms: C_10  and  O_11 
REMARK    4  A    between atoms: C_16  and  C_17 
REMARK    5  A    between atoms: C_20  and  C_21 
REMARK    6  A    between atoms: C_21  and  N_22 
REMARK    7  A    between atoms: N_22  and  C_23 
REMARK    8  A    between atoms: C_23  and  N_24 
REMARK    9  A    between atoms: N_24  and  C_25 
REMARK   10  A    between atoms: C_27  and  O_28 
REMARK   11  A    between atoms: C_31  and  O_32 
ROOT
HETATM    1  C   UNL     1      40.001 -13.325  -0.518  1.00  0.00     0.067 C 
HETATM    2  C   UNL     1      41.072 -12.540  -1.301  1.00  0.00     0.001 C 
HETATM    3  C   UNL     1      41.281 -11.134  -0.695  1.00  0.00     0.040 C 
HETATM    4  C   UNL     1      40.015 -10.273  -0.842  1.00  0.00     0.206 C 
HETATM    5  N   UNL     1      38.885 -11.213  -1.270  1.00  0.00    -0.065 N 
HETATM    6  H   UNL     1      37.998 -10.686  -1.262  1.00  0.00     0.280 HD
HETATM    7  C   UNL     1      38.754 -12.415  -0.343  1.00  0.00     0.246 C 
HETATM    8  C   UNL     1      40.520 -12.334  -2.737  1.00  0.00     0.033 C 
HETATM    9  C   UNL     1      39.136 -11.678  -2.694  1.00  0.00     0.236 C 
ENDROOT
BRANCH   4  10
HETATM   10  C   UNL     1      39.648  -9.485   0.436  1.00  0.00     0.155 C 
BRANCH  10  11
HETATM   11  N   UNL     1      40.725  -9.416   1.415  1.00  0.00    -0.365 N 
HETATM   12  H   UNL     1      41.677  -9.477   1.070  1.00  0.00     0.161 HD
BRANCH  11  13
HETATM   13  C   UNL     1      40.608  -9.223   2.762  1.00  0.00     0.172 C 
HETATM   14  S   UNL     1      40.705  -7.736   3.520  1.00  0.00    -0.041 SA
BRANCH  13  15
HETATM   15  N   UNL     1      40.478 -10.338   3.539  1.00  0.00    -0.333 N 
HETATM   16  H   UNL     1      39.566 -10.782   3.457  1.00  0.00     0.168 HD
BRANCH  15  17
HETATM   17  C   UNL     1      41.429 -11.063   4.295  1.00  0.00     0.039 A 
HETATM   18  C   UNL     1      42.798 -10.785   4.286  1.00  0.00     0.066 A 
HETATM   19  C   UNL     1      43.692 -11.536   5.054  1.00  0.00     0.073 A 
HETATM   20  C   UNL     1      43.212 -12.597   5.817  1.00  0.00     0.073 A 
HETATM   21  C   UNL     1      41.853 -12.924   5.796  1.00  0.00     0.073 A 
HETATM   22  C   UNL     1      40.966 -12.158   5.035  1.00  0.00     0.066 A 
BRANCH  19  23
HETATM   23  O   UNL     1      44.995 -11.128   4.965  1.00  0.00    -0.356 OA
HETATM   24  C   UNL     1      45.815 -11.351   6.108  1.00  0.00     0.210 C 
ENDBRANCH  19  23
BRANCH  21  25
HETATM   25  O   UNL     1      41.522 -14.002   6.571  1.00  0.00    -0.356 OA
HETATM   26  C   UNL     1      40.193 -14.499   6.460  1.00  0.00     0.210 C 
ENDBRANCH  21  25
ENDBRANCH  15  17
ENDBRANCH  13  15
ENDBRANCH  11  13
ENDBRANCH  10  11
ENDBRANCH   4  10
BRANCH   1  27
HETATM   27  C   UNL     1      40.337 -14.024   0.776  1.00  0.00     0.038 C 
HETATM   28  N   UNL     1      39.768 -13.959   2.031  1.00  0.00    -0.277 N 
HETATM   29  C   UNL     1      38.764 -13.088   2.594  1.00  0.00     0.179 C 
HETATM   30  N   UNL     1      40.256 -14.886   2.872  1.00  0.00    -0.172 NA
HETATM   31  C   UNL     1      41.321 -15.411   2.261  1.00  0.00     0.089 C 
HETATM   32  C   UNL     1      41.398 -14.909   0.942  1.00  0.00     0.061 C 
BRANCH  31  33
HETATM   33  C   UNL     1      42.202 -16.373   2.922  1.00  0.00    -0.003 A 
HETATM   34  C   UNL     1      42.708 -17.474   2.214  1.00  0.00     0.053 A 
HETATM   35  C   UNL     1      43.553 -18.402   2.835  1.00  0.00     0.102 A 
HETATM   36  C   UNL     1      43.890 -18.239   4.194  1.00  0.00     0.101 A 
HETATM   37  C   UNL     1      43.382 -17.146   4.902  1.00  0.00     0.040 A 
HETATM   38  C   UNL     1      42.545 -16.220   4.270  1.00  0.00     0.017 A 
BRANCH  35  39
HETATM   39  O   UNL     1      44.100 -19.494   2.209  1.00  0.00    -0.353 OA
HETATM   40  C   UNL     1      43.214 -20.417   1.592  1.00  0.00     0.210 C 
ENDBRANCH  35  39
BRANCH  36  41
HETATM   41  O   UNL     1      44.722 -19.188   4.730  1.00  0.00    -0.353 OA
HETATM   42  C   UNL     1      44.129 -20.366   5.258  1.00  0.00     0.210 C 
ENDBRANCH  36  41
ENDBRANCH  31  33
ENDBRANCH   1  27
TORSDOF 11
ENDMDL
