MODEL 1
REMARK VINA RESULT:     -10.9      0.000      0.000
REMARK  4 active torsions:
REMARK  status: ('A' for Active; 'I' for Inactive)
REMARK    1  A    between atoms: C_2  and  N_3 
REMARK    2  A    between atoms: C_7  and  N_8 
REMARK       I    between atoms: N_8  and  C_9 
REMARK    3  A    between atoms: C_9  and  C_10 
REMARK    4  A    between atoms: C_10  and  N_11 
ROOT
HETATM    1  N   UNL     1      43.888 -12.336   7.158  1.00  0.00    -0.326 N 
HETATM    2  C   UNL     1      44.809 -11.322   6.986  1.00  0.00     0.242 C 
HETATM    3  O   UNL     1      45.250 -10.924   5.909  1.00  0.00    -0.271 OA
HETATM    4  H   UNL     1      43.661 -12.537   8.131  1.00  0.00     0.169 HD
ENDROOT
BRANCH   2   5
HETATM    5  C   UNL     1      45.400 -10.778   8.288  1.00  0.00     0.257 C 
BRANCH   5   6
HETATM    6  N   UNL     1      44.470 -10.276   9.301  1.00  0.00    -0.224 N 
HETATM    7  N   UNL     1      44.176 -11.140  10.381  1.00  0.00    -0.180 NA
HETATM    8  C   UNL     1      43.579 -10.669  11.441  1.00  0.00     0.153 A 
HETATM    9  C   UNL     1      43.227  -9.282  11.538  1.00  0.00     0.028 A 
HETATM   10  C   UNL     1      43.486  -8.462  10.471  1.00  0.00     0.116 A 
HETATM   11  C   UNL     1      42.675  -8.489  12.577  1.00  0.00     0.005 A 
HETATM   12  N   UNL     1      43.089  -7.197  10.793  1.00  0.00    -0.350 N 
HETATM   13  C   UNL     1      44.127  -8.906   9.268  1.00  0.00     0.291 A 
HETATM   14  H   UNL     1      43.184  -6.389  10.189  1.00  0.00     0.166 HD
HETATM   15  C   UNL     1      42.615  -7.178  12.089  1.00  0.00     0.044 A 
HETATM   16  C   UNL     1      42.156  -6.107  12.862  1.00  0.00     0.031 A 
HETATM   17  C   UNL     1      41.751  -6.379  14.173  1.00  0.00     0.009 A 
HETATM   18  C   UNL     1      41.781  -7.677  14.693  1.00  0.00    -0.061 A 
HETATM   19  C   UNL     1      41.379  -7.931  16.118  1.00  0.00     0.048 C 
HETATM   20  C   UNL     1      42.251  -8.736  13.899  1.00  0.00     0.021 A 
HETATM   21  O   UNL     1      44.380  -8.143   8.343  1.00  0.00    -0.264 OA
ENDBRANCH   5   6
ENDBRANCH   2   5
BRANCH   1  22
HETATM   22  C   UNL     1      43.288 -13.140   6.166  1.00  0.00     0.035 A 
HETATM   23  C   UNL     1      43.782 -14.391   5.784  1.00  0.00     0.044 A 
HETATM   24  C   UNL     1      43.110 -15.160   4.804  1.00  0.00     0.005 A 
HETATM   25  C   UNL     1      41.957 -14.645   4.214  1.00  0.00     0.046 A 
HETATM   26  C   UNL     1      43.351 -16.449   4.237  1.00  0.00     0.003 A 
HETATM   27  N   UNL     1      41.519 -15.586   3.301  1.00  0.00    -0.346 N 
HETATM   28  C   UNL     1      41.448 -13.386   4.574  1.00  0.00     0.033 A 
HETATM   29  C   UNL     1      42.346 -16.695   3.300  1.00  0.00     0.046 A 
HETATM   30  C   UNL     1      42.303 -17.886   2.556  1.00  0.00     0.030 A 
HETATM   31  C   UNL     1      43.296 -18.844   2.782  1.00  0.00     0.002 A 
HETATM   32  C   UNL     1      44.303 -18.623   3.715  1.00  0.00     0.001 A 
HETATM   33  C   UNL     1      44.343 -17.432   4.445  1.00  0.00     0.014 A 
HETATM   34  C   UNL     1      42.127 -12.655   5.560  1.00  0.00     0.032 A 
BRANCH  27  35
HETATM   35  C   UNL     1      40.340 -15.442   2.460  1.00  0.00     0.125 C 
HETATM   36  C   UNL     1      40.679 -14.872   1.093  1.00  0.00     0.027 C 
ENDBRANCH  27  35
ENDBRANCH   1  22
TORSDOF 4
ENDMDL
MODEL 2
REMARK VINA RESULT:     -10.8      7.339     10.351
REMARK  4 active torsions:
REMARK  status: ('A' for Active; 'I' for Inactive)
REMARK    1  A    between atoms: C_2  and  N_3 
REMARK    2  A    between atoms: C_7  and  N_8 
REMARK       I    between atoms: N_8  and  C_9 
REMARK    3  A    between atoms: C_9  and  C_10 
REMARK    4  A    between atoms: C_10  and  N_11 
ROOT
HETATM    1  N   UNL     1      41.749 -14.262   0.594  1.00  0.00    -0.326 N 
HETATM    2  C   UNL     1      40.439 -14.214   0.162  1.00  0.00     0.242 C 
HETATM    3  O   UNL     1      39.485 -14.787   0.687  1.00  0.00    -0.271 OA
HETATM    4  H   UNL     1      42.403 -13.738   0.014  1.00  0.00     0.169 HD
ENDROOT
BRANCH   2   5
HETATM    5  C   UNL     1      40.239 -13.485  -1.168  1.00  0.00     0.257 C 
BRANCH   5   6
HETATM    6  N   UNL     1      40.526 -12.050  -1.209  1.00  0.00    -0.224 N 
HETATM    7  N   UNL     1      41.131 -11.489  -0.061  1.00  0.00    -0.180 NA
HETATM    8  C   UNL     1      41.654 -10.295  -0.125  1.00  0.00     0.153 A 
HETATM    9  C   UNL     1      41.638  -9.544  -1.347  1.00  0.00     0.028 A 
HETATM   10  C   UNL     1      41.017 -10.085  -2.443  1.00  0.00     0.116 A 
HETATM   11  C   UNL     1      42.198  -8.298  -1.731  1.00  0.00     0.005 A 
HETATM   12  N   UNL     1      41.143  -9.212  -3.484  1.00  0.00    -0.350 N 
HETATM   13  C   UNL     1      40.411 -11.383  -2.450  1.00  0.00     0.291 A 
HETATM   14  H   UNL     1      40.791  -9.372  -4.420  1.00  0.00     0.166 HD
HETATM   15  C   UNL     1      41.887  -8.121  -3.084  1.00  0.00     0.044 A 
HETATM   16  C   UNL     1      42.317  -7.009  -3.816  1.00  0.00     0.031 A 
HETATM   17  C   UNL     1      43.090  -6.052  -3.150  1.00  0.00     0.009 A 
HETATM   18  C   UNL     1      43.408  -6.184  -1.794  1.00  0.00    -0.061 A 
HETATM   19  C   UNL     1      44.275  -5.161  -1.117  1.00  0.00     0.048 C 
HETATM   20  C   UNL     1      42.970  -7.312  -1.081  1.00  0.00     0.021 A 
HETATM   21  O   UNL     1      39.895 -11.859  -3.454  1.00  0.00    -0.264 OA
ENDBRANCH   5   6
ENDBRANCH   2   5
BRANCH   1  22
HETATM   22  C   UNL     1      42.276 -14.984   1.685  1.00  0.00     0.035 A 
HETATM   23  C   UNL     1      42.483 -16.367   1.669  1.00  0.00     0.044 A 
HETATM   24  C   UNL     1      43.048 -17.022   2.789  1.00  0.00     0.005 A 
HETATM   25  C   UNL     1      43.380 -16.272   3.915  1.00  0.00     0.046 A 
HETATM   26  C   UNL     1      43.393 -18.384   3.055  1.00  0.00     0.003 A 
HETATM   27  N   UNL     1      43.896 -17.153   4.847  1.00  0.00    -0.346 N 
HETATM   28  C   UNL     1      43.171 -14.883   3.959  1.00  0.00     0.033 A 
HETATM   29  C   UNL     1      43.919 -18.443   4.346  1.00  0.00     0.046 A 
HETATM   30  C   UNL     1      44.351 -19.653   4.914  1.00  0.00     0.030 A 
HETATM   31  C   UNL     1      44.252 -20.818   4.146  1.00  0.00     0.002 A 
HETATM   32  C   UNL     1      43.736 -20.781   2.856  1.00  0.00     0.001 A 
HETATM   33  C   UNL     1      43.302 -19.574   2.301  1.00  0.00     0.014 A 
HETATM   34  C   UNL     1      42.625 -14.260   2.827  1.00  0.00     0.032 A 
BRANCH  27  35
HETATM   35  C   UNL     1      44.364 -16.781   6.173  1.00  0.00     0.125 C 
HETATM   36  C   UNL     1      43.255 -16.841   7.209  1.00  0.00     0.027 C 
ENDBRANCH  27  35
ENDBRANCH   1  22
TORSDOF 4
ENDMDL
MODEL 3
REMARK VINA RESULT:     -10.4      7.208     11.883
REMARK  4 active torsions:
REMARK  status: ('A' for Active; 'I' for Inactive)
REMARK    1  A    between atoms: C_2  and  N_3 
REMARK    2  A    between atoms: C_7  and  N_8 
REMARK       I    between atoms: N_8  and  C_9 
REMARK    3  A    between atoms: C_9  and  C_10 
REMARK    4  A    between atoms: C_10  and  N_11 
ROOT
HETATM    1  N   UNL     1      41.913 -13.940   0.716  1.00  0.00    -0.326 N 
HETATM    2  C   UNL     1      40.635 -13.462   0.504  1.00  0.00     0.242 C 
HETATM    3  O   UNL     1      39.668 -13.636   1.244  1.00  0.00    -0.271 OA
HETATM    4  H   UNL     1      42.576 -13.710  -0.024  1.00  0.00     0.169 HD
ENDROOT
BRANCH   2   5
HETATM    5  C   UNL     1      40.431 -12.787  -0.855  1.00  0.00     0.257 C 
BRANCH   5   6
HETATM    6  N   UNL     1      39.085 -12.318  -1.187  1.00  0.00    -0.224 N 
HETATM    7  N   UNL     1      38.769 -10.985  -0.835  1.00  0.00    -0.180 NA
HETATM    8  C   UNL     1      37.703 -10.421  -1.332  1.00  0.00     0.153 A 
HETATM    9  C   UNL     1      36.848 -11.127  -2.242  1.00  0.00     0.028 A 
HETATM   10  C   UNL     1      37.145 -12.429  -2.548  1.00  0.00     0.116 A 
HETATM   11  C   UNL     1      35.706 -10.749  -2.996  1.00  0.00     0.005 A 
HETATM   12  N   UNL     1      36.217 -12.886  -3.438  1.00  0.00    -0.350 N 
HETATM   13  C   UNL     1      38.290 -13.122  -2.035  1.00  0.00     0.291 A 
HETATM   14  H   UNL     1      36.212 -13.813  -3.844  1.00  0.00     0.166 HD
HETATM   15  C   UNL     1      35.340 -11.868  -3.752  1.00  0.00     0.044 A 
HETATM   16  C   UNL     1      34.270 -11.850  -4.653  1.00  0.00     0.031 A 
HETATM   17  C   UNL     1      33.555 -10.656  -4.789  1.00  0.00     0.009 A 
HETATM   18  C   UNL     1      33.880  -9.520  -4.040  1.00  0.00    -0.061 A 
HETATM   19  C   UNL     1      33.120  -8.239  -4.239  1.00  0.00     0.048 C 
HETATM   20  C   UNL     1      34.962  -9.560  -3.145  1.00  0.00     0.021 A 
HETATM   21  O   UNL     1      38.554 -14.275  -2.354  1.00  0.00    -0.264 OA
ENDBRANCH   5   6
ENDBRANCH   2   5
BRANCH   1  22
HETATM   22  C   UNL     1      42.375 -14.735   1.785  1.00  0.00     0.035 A 
HETATM   23  C   UNL     1      42.550 -16.120   1.696  1.00  0.00     0.044 A 
HETATM   24  C   UNL     1      43.050 -16.853   2.799  1.00  0.00     0.005 A 
HETATM   25  C   UNL     1      43.349 -16.177   3.981  1.00  0.00     0.046 A 
HETATM   26  C   UNL     1      43.351 -18.236   3.000  1.00  0.00     0.003 A 
HETATM   27  N   UNL     1      43.803 -17.123   4.880  1.00  0.00    -0.346 N 
HETATM   28  C   UNL     1      43.170 -14.788   4.097  1.00  0.00     0.033 A 
HETATM   29  C   UNL     1      43.819 -18.382   4.306  1.00  0.00     0.046 A 
HETATM   30  C   UNL     1      44.198 -19.634   4.821  1.00  0.00     0.030 A 
HETATM   31  C   UNL     1      44.106 -20.750   3.983  1.00  0.00     0.002 A 
HETATM   32  C   UNL     1      43.648 -20.626   2.676  1.00  0.00     0.001 A 
HETATM   33  C   UNL     1      43.267 -19.378   2.174  1.00  0.00     0.014 A 
HETATM   34  C   UNL     1      42.689 -14.087   2.981  1.00  0.00     0.032 A 
BRANCH  27  35
HETATM   35  C   UNL     1      44.220 -16.839   6.245  1.00  0.00     0.125 C 
HETATM   36  C   UNL     1      43.041 -16.757   7.199  1.00  0.00     0.027 C 
ENDBRANCH  27  35
ENDBRANCH   1  22
TORSDOF 4
ENDMDL
MODEL 4
REMARK VINA RESULT:      -9.9      1.832     11.237
REMARK  4 active torsions:
REMARK  status: ('A' for Active; 'I' for Inactive)
REMARK    1  A    between atoms: C_2  and  N_3 
REMARK    2  A    between atoms: C_7  and  N_8 
REMARK       I    between atoms: N_8  and  C_9 
REMARK    3  A    between atoms: C_9  and  C_10 
REMARK    4  A    between atoms: C_10  and  N_11 
ROOT
HETATM    1  N   UNL     1      43.811 -10.126   7.486  1.00  0.00    -0.326 N 
HETATM    2  C   UNL     1      42.918 -10.657   6.576  1.00  0.00     0.242 C 
HETATM    3  O   UNL     1      41.701 -10.748   6.729  1.00  0.00    -0.271 OA
HETATM    4  H   UNL     1      44.785 -10.158   7.187  1.00  0.00     0.169 HD
ENDROOT
BRANCH   2   5
HETATM    5  C   UNL     1      43.573 -11.298   5.350  1.00  0.00     0.257 C 
BRANCH   5   6
HETATM    6  N   UNL     1      43.256 -12.698   5.063  1.00  0.00    -0.224 N 
HETATM    7  N   UNL     1      42.844 -13.000   3.744  1.00  0.00    -0.180 NA
HETATM    8  C   UNL     1      42.806 -14.243   3.348  1.00  0.00     0.153 A 
HETATM    9  C   UNL     1      43.188 -15.311   4.226  1.00  0.00     0.028 A 
HETATM   10  C   UNL     1      43.551 -15.008   5.512  1.00  0.00     0.116 A 
HETATM   11  C   UNL     1      43.336 -16.712   4.046  1.00  0.00     0.005 A 
HETATM   12  N   UNL     1      43.890 -16.167   6.149  1.00  0.00    -0.350 N 
HETATM   13  C   UNL     1      43.607 -13.671   6.025  1.00  0.00     0.291 A 
HETATM   14  H   UNL     1      44.215 -16.227   7.106  1.00  0.00     0.166 HD
HETATM   15  C   UNL     1      43.794 -17.223   5.266  1.00  0.00     0.044 A 
HETATM   16  C   UNL     1      44.092 -18.577   5.450  1.00  0.00     0.031 A 
HETATM   17  C   UNL     1      43.922 -19.434   4.358  1.00  0.00     0.009 A 
HETATM   18  C   UNL     1      43.450 -18.965   3.127  1.00  0.00    -0.061 A 
HETATM   19  C   UNL     1      43.317 -19.902   1.960  1.00  0.00     0.048 C 
HETATM   20  C   UNL     1      43.162 -17.599   2.965  1.00  0.00     0.021 A 
HETATM   21  O   UNL     1      43.972 -13.425   7.168  1.00  0.00    -0.264 OA
ENDBRANCH   5   6
ENDBRANCH   2   5
BRANCH   1  22
HETATM   22  C   UNL     1      43.537  -9.613   8.771  1.00  0.00     0.035 A 
HETATM   23  C   UNL     1      43.317  -8.255   9.028  1.00  0.00     0.044 A 
HETATM   24  C   UNL     1      43.013  -7.813  10.338  1.00  0.00     0.005 A 
HETATM   25  C   UNL     1      42.953  -8.747  11.370  1.00  0.00     0.046 A 
HETATM   26  C   UNL     1      42.723  -6.529  10.894  1.00  0.00     0.003 A 
HETATM   27  N   UNL     1      42.651  -8.049  12.525  1.00  0.00    -0.346 N 
HETATM   28  C   UNL     1      43.181 -10.113  11.137  1.00  0.00     0.033 A 
HETATM   29  C   UNL     1      42.502  -6.699  12.261  1.00  0.00     0.046 A 
HETATM   30  C   UNL     1      42.196  -5.616  13.102  1.00  0.00     0.030 A 
HETATM   31  C   UNL     1      42.107  -4.341  12.534  1.00  0.00     0.002 A 
HETATM   32  C   UNL     1      42.318  -4.149  11.174  1.00  0.00     0.001 A 
HETATM   33  C   UNL     1      42.629  -5.231  10.345  1.00  0.00     0.014 A 
HETATM   34  C   UNL     1      43.463 -10.523   9.826  1.00  0.00     0.032 A 
BRANCH  27  35
HETATM   35  C   UNL     1      42.499  -8.649  13.842  1.00  0.00     0.125 C 
HETATM   36  C   UNL     1      41.058  -9.025  14.138  1.00  0.00     0.027 C 
ENDBRANCH  27  35
ENDBRANCH   1  22
TORSDOF 4
ENDMDL
MODEL 5
REMARK VINA RESULT:      -9.7      1.963     10.752
REMARK  4 active torsions:
REMARK  status: ('A' for Active; 'I' for Inactive)
REMARK    1  A    between atoms: C_2  and  N_3 
REMARK    2  A    between atoms: C_7  and  N_8 
REMARK       I    between atoms: N_8  and  C_9 
REMARK    3  A    between atoms: C_9  and  C_10 
REMARK    4  A    between atoms: C_10  and  N_11 
ROOT
HETATM    1  N   UNL     1      44.330 -10.013   8.305  1.00  0.00    -0.326 N 
HETATM    2  C   UNL     1      45.593 -10.055   7.749  1.00  0.00     0.242 C 
HETATM    3  O   UNL     1      46.471  -9.206   7.889  1.00  0.00    -0.271 OA
HETATM    4  H   UNL     1      43.734 -10.802   8.055  1.00  0.00     0.169 HD
ENDROOT
BRANCH   2   5
HETATM    5  C   UNL     1      45.813 -11.211   6.769  1.00  0.00     0.257 C 
BRANCH   5   6
HETATM    6  N   UNL     1      44.671 -11.650   5.966  1.00  0.00    -0.224 N 
HETATM    7  N   UNL     1      44.609 -11.177   4.635  1.00  0.00    -0.180 NA
HETATM    8  C   UNL     1      43.782 -11.730   3.791  1.00  0.00     0.153 A 
HETATM    9  C   UNL     1      42.940 -12.822   4.187  1.00  0.00     0.028 A 
HETATM   10  C   UNL     1      42.984 -13.248   5.489  1.00  0.00     0.116 A 
HETATM   11  C   UNL     1      42.039 -13.662   3.481  1.00  0.00     0.005 A 
HETATM   12  N   UNL     1      42.124 -14.299   5.628  1.00  0.00    -0.350 N 
HETATM   13  C   UNL     1      43.856 -12.685   6.477  1.00  0.00     0.291 A 
HETATM   14  H   UNL     1      41.976 -14.814   6.487  1.00  0.00     0.166 HD
HETATM   15  C   UNL     1      41.552 -14.592   4.407  1.00  0.00     0.044 A 
HETATM   16  C   UNL     1      40.662 -15.611   4.053  1.00  0.00     0.031 A 
HETATM   17  C   UNL     1      40.259 -15.687   2.716  1.00  0.00     0.009 A 
HETATM   18  C   UNL     1      40.710 -14.767   1.764  1.00  0.00    -0.061 A 
HETATM   19  C   UNL     1      40.293 -14.899   0.326  1.00  0.00     0.048 C 
HETATM   20  C   UNL     1      41.608 -13.754   2.141  1.00  0.00     0.021 A 
HETATM   21  O   UNL     1      43.902 -13.109   7.626  1.00  0.00    -0.264 OA
ENDBRANCH   5   6
ENDBRANCH   2   5
BRANCH   1  22
HETATM   22  C   UNL     1      43.772  -9.000   9.112  1.00  0.00     0.035 A 
HETATM   23  C   UNL     1      43.419  -9.188  10.453  1.00  0.00     0.044 A 
HETATM   24  C   UNL     1      42.894  -8.116  11.214  1.00  0.00     0.005 A 
HETATM   25  C   UNL     1      42.718  -6.876  10.604  1.00  0.00     0.046 A 
HETATM   26  C   UNL     1      42.475  -7.996  12.575  1.00  0.00     0.003 A 
HETATM   27  N   UNL     1      42.191  -6.029  11.561  1.00  0.00    -0.346 N 
HETATM   28  C   UNL     1      43.055  -6.667   9.256  1.00  0.00     0.033 A 
HETATM   29  C   UNL     1      42.038  -6.686  12.770  1.00  0.00     0.046 A 
HETATM   30  C   UNL     1      41.552  -6.244  14.012  1.00  0.00     0.030 A 
HETATM   31  C   UNL     1      41.521  -7.155  15.072  1.00  0.00     0.002 A 
HETATM   32  C   UNL     1      41.956  -8.464  14.902  1.00  0.00     0.001 A 
HETATM   33  C   UNL     1      42.432  -8.897  13.661  1.00  0.00     0.014 A 
HETATM   34  C   UNL     1      43.589  -7.743   8.532  1.00  0.00     0.032 A 
BRANCH  27  35
HETATM   35  C   UNL     1      41.850  -4.632  11.338  1.00  0.00     0.125 C 
HETATM   36  C   UNL     1      42.730  -3.692  12.143  1.00  0.00     0.027 C 
ENDBRANCH  27  35
ENDBRANCH   1  22
TORSDOF 4
ENDMDL
MODEL 6
REMARK VINA RESULT:      -9.6      2.212     11.050
REMARK  4 active torsions:
REMARK  status: ('A' for Active; 'I' for Inactive)
REMARK    1  A    between atoms: C_2  and  N_3 
REMARK    2  A    between atoms: C_7  and  N_8 
REMARK       I    between atoms: N_8  and  C_9 
REMARK    3  A    between atoms: C_9  and  C_10 
REMARK    4  A    between atoms: C_10  and  N_11 
ROOT
HETATM    1  N   UNL     1      42.801 -10.059   6.887  1.00  0.00    -0.326 N 
HETATM    2  C   UNL     1      42.294 -11.117   6.159  1.00  0.00     0.242 C 
HETATM    3  O   UNL     1      41.159 -11.581   6.255  1.00  0.00    -0.271 OA
HETATM    4  H   UNL     1      43.773  -9.834   6.681  1.00  0.00     0.169 HD
ENDROOT
BRANCH   2   5
HETATM    5  C   UNL     1      43.323 -11.823   5.273  1.00  0.00     0.257 C 
BRANCH   5   6
HETATM    6  N   UNL     1      43.077 -13.223   4.925  1.00  0.00    -0.224 N 
HETATM    7  N   UNL     1      42.807 -13.504   3.565  1.00  0.00    -0.180 NA
HETATM    8  C   UNL     1      42.844 -14.737   3.141  1.00  0.00     0.153 A 
HETATM    9  C   UNL     1      43.168 -15.816   4.029  1.00  0.00     0.028 A 
HETATM   10  C   UNL     1      43.392 -15.535   5.351  1.00  0.00     0.116 A 
HETATM   11  C   UNL     1      43.372 -17.207   3.835  1.00  0.00     0.005 A 
HETATM   12  N   UNL     1      43.700 -16.700   5.993  1.00  0.00    -0.350 N 
HETATM   13  C   UNL     1      43.359 -14.210   5.896  1.00  0.00     0.291 A 
HETATM   14  H   UNL     1      43.930 -16.775   6.976  1.00  0.00     0.166 HD
HETATM   15  C   UNL     1      43.723 -17.736   5.082  1.00  0.00     0.044 A 
HETATM   16  C   UNL     1      44.040 -19.086   5.266  1.00  0.00     0.031 A 
HETATM   17  C   UNL     1      44.003 -19.920   4.144  1.00  0.00     0.009 A 
HETATM   18  C   UNL     1      43.642 -19.434   2.883  1.00  0.00    -0.061 A 
HETATM   19  C   UNL     1      43.652 -20.345   1.688  1.00  0.00     0.048 C 
HETATM   20  C   UNL     1      43.333 -18.072   2.722  1.00  0.00     0.021 A 
HETATM   21  O   UNL     1      43.601 -13.982   7.075  1.00  0.00    -0.264 OA
ENDBRANCH   5   6
ENDBRANCH   2   5
BRANCH   1  22
HETATM   22  C   UNL     1      42.156  -9.315   7.897  1.00  0.00     0.035 A 
HETATM   23  C   UNL     1      42.377  -9.515   9.264  1.00  0.00     0.044 A 
HETATM   24  C   UNL     1      41.720  -8.708  10.223  1.00  0.00     0.005 A 
HETATM   25  C   UNL     1      40.837  -7.722   9.787  1.00  0.00     0.046 A 
HETATM   26  C   UNL     1      41.759  -8.658  11.651  1.00  0.00     0.003 A 
HETATM   27  N   UNL     1      40.339  -7.101  10.917  1.00  0.00    -0.346 N 
HETATM   28  C   UNL     1      40.590  -7.511   8.420  1.00  0.00     0.033 A 
HETATM   29  C   UNL     1      40.888  -7.648  12.063  1.00  0.00     0.046 A 
HETATM   30  C   UNL     1      40.693  -7.349  13.422  1.00  0.00     0.030 A 
HETATM   31  C   UNL     1      41.407  -8.086  14.372  1.00  0.00     0.002 A 
HETATM   32  C   UNL     1      42.284  -9.092  13.984  1.00  0.00     0.001 A 
HETATM   33  C   UNL     1      42.467  -9.389  12.630  1.00  0.00     0.014 A 
HETATM   34  C   UNL     1      41.269  -8.315   7.493  1.00  0.00     0.032 A 
BRANCH  27  35
HETATM   35  C   UNL     1      39.375  -6.011  10.910  1.00  0.00     0.125 C 
HETATM   36  C   UNL     1      40.049  -4.651  10.849  1.00  0.00     0.027 C 
ENDBRANCH  27  35
ENDBRANCH   1  22
TORSDOF 4
ENDMDL
MODEL 7
REMARK VINA RESULT:      -9.5      2.635     10.798
REMARK  4 active torsions:
REMARK  status: ('A' for Active; 'I' for Inactive)
REMARK    1  A    between atoms: C_2  and  N_3 
REMARK    2  A    between atoms: C_7  and  N_8 
REMARK       I    between atoms: N_8  and  C_9 
REMARK    3  A    between atoms: C_9  and  C_10 
REMARK    4  A    between atoms: C_10  and  N_11 
ROOT
HETATM    1  N   UNL     1      40.960 -11.140   5.580  1.00  0.00    -0.326 N 
HETATM    2  C   UNL     1      41.864 -11.068   4.539  1.00  0.00     0.242 C 
HETATM    3  O   UNL     1      42.718 -10.197   4.384  1.00  0.00    -0.271 OA
HETATM    4  H   UNL     1      40.314 -11.926   5.523  1.00  0.00     0.169 HD
ENDROOT
BRANCH   2   5
HETATM    5  C   UNL     1      41.643 -12.109   3.439  1.00  0.00     0.257 C 
BRANCH   5   6
HETATM    6  N   UNL     1      42.360 -13.380   3.550  1.00  0.00    -0.224 N 
HETATM    7  N   UNL     1      42.717 -13.799   4.853  1.00  0.00    -0.180 NA
HETATM    8  C   UNL     1      43.111 -15.027   5.051  1.00  0.00     0.153 A 
HETATM    9  C   UNL     1      43.177 -15.967   3.970  1.00  0.00     0.028 A 
HETATM   10  C   UNL     1      42.864 -15.539   2.706  1.00  0.00     0.116 A 
HETATM   11  C   UNL     1      43.468 -17.355   3.903  1.00  0.00     0.005 A 
HETATM   12  N   UNL     1      42.976 -16.597   1.852  1.00  0.00    -0.350 N 
HETATM   13  C   UNL     1      42.434 -14.205   2.405  1.00  0.00     0.291 A 
HETATM   14  H   UNL     1      42.783 -16.562   0.858  1.00  0.00     0.166 HD
HETATM   15  C   UNL     1      43.318 -17.730   2.563  1.00  0.00     0.044 A 
HETATM   16  C   UNL     1      43.487 -19.048   2.126  1.00  0.00     0.031 A 
HETATM   17  C   UNL     1      43.815 -20.012   3.084  1.00  0.00     0.009 A 
HETATM   18  C   UNL     1      43.990 -19.675   4.431  1.00  0.00    -0.061 A 
HETATM   19  C   UNL     1      44.301 -20.741   5.444  1.00  0.00     0.048 C 
HETATM   20  C   UNL     1      43.809 -18.345   4.847  1.00  0.00     0.021 A 
HETATM   21  O   UNL     1      42.123 -13.858   1.272  1.00  0.00    -0.264 OA
ENDBRANCH   5   6
ENDBRANCH   2   5
BRANCH   1  22
HETATM   22  C   UNL     1      40.801 -10.238   6.653  1.00  0.00     0.035 A 
HETATM   23  C   UNL     1      41.678 -10.171   7.741  1.00  0.00     0.044 A 
HETATM   24  C   UNL     1      41.477  -9.218   8.768  1.00  0.00     0.005 A 
HETATM   25  C   UNL     1      40.383  -8.358   8.688  1.00  0.00     0.046 A 
HETATM   26  C   UNL     1      42.196  -8.898   9.961  1.00  0.00     0.003 A 
HETATM   27  N   UNL     1      40.425  -7.551   9.809  1.00  0.00    -0.346 N 
HETATM   28  C   UNL     1      39.483  -8.415   7.611  1.00  0.00     0.033 A 
HETATM   29  C   UNL     1      41.521  -7.856  10.597  1.00  0.00     0.046 A 
HETATM   30  C   UNL     1      41.974  -7.312  11.810  1.00  0.00     0.030 A 
HETATM   31  C   UNL     1      43.140  -7.836  12.377  1.00  0.00     0.002 A 
HETATM   32  C   UNL     1      43.832  -8.871  11.758  1.00  0.00     0.001 A 
HETATM   33  C   UNL     1      43.371  -9.411  10.554  1.00  0.00     0.014 A 
HETATM   34  C   UNL     1      39.718  -9.359   6.601  1.00  0.00     0.032 A 
BRANCH  27  35
HETATM   35  C   UNL     1      39.456  -6.510  10.120  1.00  0.00     0.125 C 
HETATM   36  C   UNL     1      39.863  -5.161   9.555  1.00  0.00     0.027 C 
ENDBRANCH  27  35
ENDBRANCH   1  22
TORSDOF 4
ENDMDL
MODEL 8
REMARK VINA RESULT:      -9.3      2.525     11.083
REMARK  4 active torsions:
REMARK  status: ('A' for Active; 'I' for Inactive)
REMARK    1  A    between atoms: C_2  and  N_3 
REMARK    2  A    between atoms: C_7  and  N_8 
REMARK       I    between atoms: N_8  and  C_9 
REMARK    3  A    between atoms: C_9  and  C_10 
REMARK    4  A    between atoms: C_10  and  N_11 
ROOT
HETATM    1  N   UNL     1      41.844  -9.691   7.038  1.00  0.00    -0.326 N 
HETATM    2  C   UNL     1      40.928 -10.422   6.309  1.00  0.00     0.242 C 
HETATM    3  O   UNL     1      39.870 -10.882   6.736  1.00  0.00    -0.271 OA
HETATM    4  H   UNL     1      42.674  -9.414   6.513  1.00  0.00     0.169 HD
ENDROOT
BRANCH   2   5
HETATM    5  C   UNL     1      41.388 -10.780   4.894  1.00  0.00     0.257 C 
BRANCH   5   6
HETATM    6  N   UNL     1      42.120 -12.033   4.712  1.00  0.00    -0.224 N 
HETATM    7  N   UNL     1      42.490 -12.732   5.885  1.00  0.00    -0.180 NA
HETATM    8  C   UNL     1      42.900 -13.967   5.798  1.00  0.00     0.153 A 
HETATM    9  C   UNL     1      42.969 -14.638   4.532  1.00  0.00     0.028 A 
HETATM   10  C   UNL     1      42.642 -13.939   3.399  1.00  0.00     0.116 A 
HETATM   11  C   UNL     1      43.275 -15.971   4.153  1.00  0.00     0.005 A 
HETATM   12  N   UNL     1      42.761 -14.776   2.328  1.00  0.00    -0.350 N 
HETATM   13  C   UNL     1      42.195 -12.578   3.410  1.00  0.00     0.291 A 
HETATM   14  H   UNL     1      42.561 -14.520   1.369  1.00  0.00     0.166 HD
HETATM   15  C   UNL     1      43.120 -16.035   2.763  1.00  0.00     0.044 A 
HETATM   16  C   UNL     1      43.301 -17.218   2.039  1.00  0.00     0.031 A 
HETATM   17  C   UNL     1      43.646 -18.370   2.753  1.00  0.00     0.009 A 
HETATM   18  C   UNL     1      43.827 -18.344   4.140  1.00  0.00    -0.061 A 
HETATM   19  C   UNL     1      44.157 -19.606   4.885  1.00  0.00     0.048 C 
HETATM   20  C   UNL     1      43.634 -17.145   4.847  1.00  0.00     0.021 A 
HETATM   21  O   UNL     1      41.873 -11.987   2.386  1.00  0.00    -0.264 OA
ENDBRANCH   5   6
ENDBRANCH   2   5
BRANCH   1  22
HETATM   22  C   UNL     1      41.787  -9.343   8.403  1.00  0.00     0.035 A 
HETATM   23  C   UNL     1      40.704  -8.676   8.985  1.00  0.00     0.044 A 
HETATM   24  C   UNL     1      40.698  -8.388  10.371  1.00  0.00     0.005 A 
HETATM   25  C   UNL     1      41.795  -8.764  11.144  1.00  0.00     0.046 A 
HETATM   26  C   UNL     1      39.750  -7.758  11.235  1.00  0.00     0.003 A 
HETATM   27  N   UNL     1      41.530  -8.359  12.439  1.00  0.00    -0.346 N 
HETATM   28  C   UNL     1      42.898  -9.424  10.580  1.00  0.00     0.033 A 
HETATM   29  C   UNL     1      40.291  -7.748  12.521  1.00  0.00     0.046 A 
HETATM   30  C   UNL     1      39.601  -7.187  13.610  1.00  0.00     0.030 A 
HETATM   31  C   UNL     1      38.337  -6.636  13.380  1.00  0.00     0.002 A 
HETATM   32  C   UNL     1      37.777  -6.639  12.107  1.00  0.00     0.001 A 
HETATM   33  C   UNL     1      38.472  -7.194  11.029  1.00  0.00     0.014 A 
HETATM   34  C   UNL     1      42.868  -9.711   9.207  1.00  0.00     0.032 A 
BRANCH  27  35
HETATM   35  C   UNL     1      42.424  -8.553  13.570  1.00  0.00     0.125 C 
HETATM   36  C   UNL     1      43.210  -7.297  13.902  1.00  0.00     0.027 C 
ENDBRANCH  27  35
ENDBRANCH   1  22
TORSDOF 4
ENDMDL
MODEL 9
REMARK VINA RESULT:      -9.2      6.828     11.167
REMARK  4 active torsions:
REMARK  status: ('A' for Active; 'I' for Inactive)
REMARK    1  A    between atoms: C_2  and  N_3 
REMARK    2  A    between atoms: C_7  and  N_8 
REMARK       I    between atoms: N_8  and  C_9 
REMARK    3  A    between atoms: C_9  and  C_10 
REMARK    4  A    between atoms: C_10  and  N_11 
ROOT
HETATM    1  N   UNL     1      39.994 -11.447   1.409  1.00  0.00    -0.326 N 
HETATM    2  C   UNL     1      41.228 -10.832   1.491  1.00  0.00     0.242 C 
HETATM    3  O   UNL     1      41.632  -9.926   0.764  1.00  0.00    -0.271 OA
HETATM    4  H   UNL     1      39.851 -12.194   2.088  1.00  0.00     0.169 HD
ENDROOT
BRANCH   2   5
HETATM    5  C   UNL     1      42.184 -11.469   2.502  1.00  0.00     0.257 C 
BRANCH   5   6
HETATM    6  N   UNL     1      42.150 -12.925   2.649  1.00  0.00    -0.224 N 
HETATM    7  N   UNL     1      41.861 -13.676   1.486  1.00  0.00    -0.180 NA
HETATM    8  C   UNL     1      42.075 -14.963   1.479  1.00  0.00     0.153 A 
HETATM    9  C   UNL     1      42.612 -15.630   2.629  1.00  0.00     0.028 A 
HETATM   10  C   UNL     1      42.855 -14.897   3.761  1.00  0.00     0.116 A 
HETATM   11  C   UNL     1      43.029 -16.965   2.873  1.00  0.00     0.005 A 
HETATM   12  N   UNL     1      43.377 -15.729   4.709  1.00  0.00    -0.350 N 
HETATM   13  C   UNL     1      42.635 -13.484   3.852  1.00  0.00     0.291 A 
HETATM   14  H   UNL     1      43.665 -15.441   5.636  1.00  0.00     0.166 HD
HETATM   15  C   UNL     1      43.521 -16.996   4.182  1.00  0.00     0.044 A 
HETATM   16  C   UNL     1      44.061 -18.152   4.757  1.00  0.00     0.031 A 
HETATM   17  C   UNL     1      44.103 -19.308   3.972  1.00  0.00     0.009 A 
HETATM   18  C   UNL     1      43.606 -19.323   2.665  1.00  0.00    -0.061 A 
HETATM   19  C   UNL     1      43.703 -20.570   1.832  1.00  0.00     0.048 C 
HETATM   20  C   UNL     1      43.073 -18.149   2.107  1.00  0.00     0.021 A 
HETATM   21  O   UNL     1      42.896 -12.846   4.865  1.00  0.00    -0.264 OA
ENDBRANCH   5   6
ENDBRANCH   2   5
BRANCH   1  22
HETATM   22  C   UNL     1      38.963 -11.200   0.479  1.00  0.00     0.035 A 
HETATM   23  C   UNL     1      37.785 -10.516   0.796  1.00  0.00     0.044 A 
HETATM   24  C   UNL     1      36.806 -10.274  -0.197  1.00  0.00     0.005 A 
HETATM   25  C   UNL     1      37.025 -10.742  -1.491  1.00  0.00     0.046 A 
HETATM   26  C   UNL     1      35.545  -9.601  -0.184  1.00  0.00     0.003 A 
HETATM   27  N   UNL     1      35.921 -10.379  -2.241  1.00  0.00    -0.346 N 
HETATM   28  C   UNL     1      38.195 -11.442  -1.830  1.00  0.00     0.033 A 
HETATM   29  C   UNL     1      35.010  -9.680  -1.470  1.00  0.00     0.046 A 
HETATM   30  C   UNL     1      33.763  -9.115  -1.789  1.00  0.00     0.030 A 
HETATM   31  C   UNL     1      33.059  -8.452  -0.778  1.00  0.00     0.002 A 
HETATM   32  C   UNL     1      33.576  -8.356   0.508  1.00  0.00     0.001 A 
HETATM   33  C   UNL     1      34.814  -8.927   0.819  1.00  0.00     0.014 A 
HETATM   34  C   UNL     1      39.154 -11.651  -0.829  1.00  0.00     0.032 A 
BRANCH  27  35
HETATM   35  C   UNL     1      35.741 -10.680  -3.653  1.00  0.00     0.125 C 
HETATM   36  C   UNL     1      34.762 -11.819  -3.876  1.00  0.00     0.027 C 
ENDBRANCH  27  35
ENDBRANCH   1  22
TORSDOF 4
ENDMDL
MODEL 10
REMARK VINA RESULT:      -9.2      2.628      3.285
REMARK  4 active torsions:
REMARK  status: ('A' for Active; 'I' for Inactive)
REMARK    1  A    between atoms: C_2  and  N_3 
REMARK    2  A    between atoms: C_7  and  N_8 
REMARK       I    between atoms: N_8  and  C_9 
REMARK    3  A    between atoms: C_9  and  C_10 
REMARK    4  A    between atoms: C_10  and  N_11 
ROOT
HETATM    1  N   UNL     1      40.553 -10.766   5.787  1.00  0.00    -0.326 N 
HETATM    2  C   UNL     1      39.466 -10.527   6.604  1.00  0.00     0.242 C 
HETATM    3  O   UNL     1      38.667 -11.371   7.006  1.00  0.00    -0.271 OA
HETATM    4  H   UNL     1      41.088  -9.933   5.543  1.00  0.00     0.169 HD
ENDROOT
BRANCH   2   5
HETATM    5  C   UNL     1      39.203  -9.046   6.886  1.00  0.00     0.257 C 
BRANCH   5   6
HETATM    6  N   UNL     1      39.606  -8.519   8.191  1.00  0.00    -0.224 N 
HETATM    7  N   UNL     1      38.606  -8.453   9.188  1.00  0.00    -0.180 NA
HETATM    8  C   UNL     1      38.947  -8.251  10.432  1.00  0.00     0.153 A 
HETATM    9  C   UNL     1      40.323  -8.109  10.808  1.00  0.00     0.028 A 
HETATM   10  C   UNL     1      41.280  -8.139   9.828  1.00  0.00     0.116 A 
HETATM   11  C   UNL     1      40.981  -7.981  12.060  1.00  0.00     0.005 A 
HETATM   12  N   UNL     1      42.505  -8.006  10.416  1.00  0.00    -0.350 N 
HETATM   13  C   UNL     1      40.986  -8.344   8.440  1.00  0.00     0.291 A 
HETATM   14  H   UNL     1      43.388  -8.014   9.921  1.00  0.00     0.166 HD
HETATM   15  C   UNL     1      42.353  -7.935  11.786  1.00  0.00     0.044 A 
HETATM   16  C   UNL     1      43.320  -7.852  12.793  1.00  0.00     0.031 A 
HETATM   17  C   UNL     1      42.875  -7.818  14.119  1.00  0.00     0.009 A 
HETATM   18  C   UNL     1      41.512  -7.845  14.434  1.00  0.00    -0.061 A 
HETATM   19  C   UNL     1      41.066  -7.850  15.868  1.00  0.00     0.048 C 
HETATM   20  C   UNL     1      40.560  -7.934  13.404  1.00  0.00     0.021 A 
HETATM   21  O   UNL     1      41.864  -8.405   7.588  1.00  0.00    -0.264 OA
ENDBRANCH   5   6
ENDBRANCH   2   5
BRANCH   1  22
HETATM   22  C   UNL     1      40.960 -11.993   5.223  1.00  0.00     0.035 A 
HETATM   23  C   UNL     1      41.586 -13.009   5.954  1.00  0.00     0.044 A 
HETATM   24  C   UNL     1      41.938 -14.230   5.330  1.00  0.00     0.005 A 
HETATM   25  C   UNL     1      41.667 -14.399   3.974  1.00  0.00     0.046 A 
HETATM   26  C   UNL     1      42.549 -15.431   5.806  1.00  0.00     0.003 A 
HETATM   27  N   UNL     1      42.116 -15.661   3.630  1.00  0.00    -0.346 N 
HETATM   28  C   UNL     1      41.050 -13.389   3.217  1.00  0.00     0.033 A 
HETATM   29  C   UNL     1      42.652 -16.310   4.728  1.00  0.00     0.046 A 
HETATM   30  C   UNL     1      43.220 -17.588   4.866  1.00  0.00     0.030 A 
HETATM   31  C   UNL     1      43.681 -17.974   6.128  1.00  0.00     0.002 A 
HETATM   32  C   UNL     1      43.584 -17.117   7.218  1.00  0.00     0.001 A 
HETATM   33  C   UNL     1      43.023 -15.844   7.070  1.00  0.00     0.014 A 
HETATM   34  C   UNL     1      40.698 -12.197   3.867  1.00  0.00     0.032 A 
BRANCH  27  35
HETATM   35  C   UNL     1      42.030 -16.238   2.297  1.00  0.00     0.125 C 
HETATM   36  C   UNL     1      43.283 -15.979   1.479  1.00  0.00     0.027 C 
ENDBRANCH  27  35
ENDBRANCH   1  22
TORSDOF 4
ENDMDL
