MODEL 1
REMARK VINA RESULT:      -8.2      0.000      0.000
REMARK  10 active torsions:
REMARK  status: ('A' for Active; 'I' for Inactive)
REMARK    1  A    between atoms: C_2  and  O_3 
REMARK    2  A    between atoms: O_3  and  C_4 
REMARK    3  A    between atoms: C_7  and  N_8 
REMARK    4  A    between atoms: C_9  and  S_10 
REMARK    5  A    between atoms: S_10  and  C_11 
REMARK    6  A    between atoms: C_11  and  C_12 
REMARK       I    between atoms: C_12  and  N_13 
REMARK    7  A    between atoms: N_13  and  C_14 
REMARK    8  A    between atoms: C_15  and  O_16 
REMARK    9  A    between atoms: C_19  and  O_20 
REMARK   10  A    between atoms: C_29  and  N_30 
ROOT
HETATM    1  N   UNL     1      40.669 -13.706   0.755  1.00  0.00    -0.276 N 
HETATM    2  C   UNL     1      40.952 -12.386   0.958  1.00  0.00     0.177 A 
HETATM    3  N   UNL     1      40.463 -11.387   0.214  1.00  0.00    -0.204 NA
HETATM    4  C   UNL     1      39.703 -11.800  -0.790  1.00  0.00     0.162 A 
HETATM    5  C   UNL     1      39.361 -13.102  -1.078  1.00  0.00     0.081 A 
HETATM    6  C   UNL     1      39.833 -14.128  -0.244  1.00  0.00     0.124 A 
HETATM    7  N   UNL     1      39.119 -11.006  -1.731  1.00  0.00    -0.260 N 
HETATM    8  H   UNL     1      39.179  -9.994  -1.814  1.00  0.00     0.191 HD
HETATM    9  N   UNL     1      38.403 -11.704  -2.627  1.00  0.00    -0.177 NA
HETATM   10  C   UNL     1      38.550 -12.980  -2.247  1.00  0.00     0.068 A 
HETATM   11  C   UNL     1      37.898 -14.051  -3.045  1.00  0.00     0.073 C 
ENDROOT
BRANCH   2  12
HETATM   12  S   UNL     1      42.038 -11.821   2.283  1.00  0.00    -0.082 SA
BRANCH  12  13
HETATM   13  C   UNL     1      40.865 -10.919   3.378  1.00  0.00     0.185 C 
BRANCH  13  14
HETATM   14  C   UNL     1      41.556 -10.178   4.515  1.00  0.00     0.232 C 
HETATM   15  N   UNL     1      41.871 -10.790   5.690  1.00  0.00    -0.324 N 
HETATM   16  H   UNL     1      42.018 -10.129   6.451  1.00  0.00     0.169 HD
HETATM   17  O   UNL     1      41.765  -8.962   4.422  1.00  0.00    -0.272 OA
BRANCH  15  18
HETATM   18  C   UNL     1      42.113 -12.128   6.054  1.00  0.00     0.070 A 
HETATM   19  C   UNL     1      43.462 -12.518   6.192  1.00  0.00     0.097 A 
HETATM   20  C   UNL     1      43.786 -13.852   6.475  1.00  0.00     0.077 A 
HETATM   21  C   UNL     1      42.779 -14.814   6.599  1.00  0.00     0.092 A 
HETATM   22  C   UNL     1      41.442 -14.417   6.438  1.00  0.00     0.069 A 
HETATM   23 CL   UNL     1      40.146 -15.560   6.536  1.00  0.00    -0.081 Cl
HETATM   24  C   UNL     1      41.110 -13.086   6.166  1.00  0.00     0.059 A 
BRANCH  19  25
HETATM   25  O   UNL     1      44.380 -11.501   6.048  1.00  0.00    -0.354 OA
HETATM   26  C   UNL     1      45.392 -11.382   7.042  1.00  0.00     0.210 C 
ENDBRANCH  19  25
BRANCH  21  27
HETATM   27  O   UNL     1      42.997 -16.140   6.861  1.00  0.00    -0.354 OA
HETATM   28  C   UNL     1      44.277 -16.682   6.568  1.00  0.00     0.210 C 
ENDBRANCH  21  27
ENDBRANCH  15  18
ENDBRANCH  13  14
ENDBRANCH  12  13
ENDBRANCH   2  12
BRANCH   1  29
HETATM   29  C   UNL     1      41.296 -14.709   1.573  1.00  0.00     0.043 A 
HETATM   30  C   UNL     1      40.593 -15.263   2.644  1.00  0.00     0.033 A 
HETATM   31  C   UNL     1      41.161 -16.333   3.345  1.00  0.00     0.039 A 
HETATM   32  C   UNL     1      42.403 -16.849   2.959  1.00  0.00     0.068 A 
HETATM   33  C   UNL     1      43.088 -16.274   1.881  1.00  0.00     0.039 A 
HETATM   34  C   UNL     1      42.541 -15.201   1.179  1.00  0.00     0.033 A 
BRANCH  32  35
HETATM   35  O   UNL     1      43.046 -17.912   3.523  1.00  0.00    -0.352 OA
BRANCH  35  36
HETATM   36  C   UNL     1      43.960 -18.649   2.714  1.00  0.00     0.171 C 
HETATM   37  C   UNL     1      43.237 -19.881   2.199  1.00  0.00     0.034 C 
ENDBRANCH  35  36
ENDBRANCH  32  35
ENDBRANCH   1  29
BRANCH   6  38
HETATM   38  N   UNL     1      39.481 -15.462  -0.431  1.00  0.00    -0.384 N 
HETATM   39  H   UNL     1      38.922 -15.916   0.284  1.00  0.00     0.157 HD
HETATM   40  H   UNL     1      40.073 -16.095  -0.958  1.00  0.00     0.157 HD
ENDBRANCH   6  38
TORSDOF 10
ENDMDL
MODEL 2
REMARK VINA RESULT:      -8.0      1.835      2.757
REMARK  10 active torsions:
REMARK  status: ('A' for Active; 'I' for Inactive)
REMARK    1  A    between atoms: C_2  and  O_3 
REMARK    2  A    between atoms: O_3  and  C_4 
REMARK    3  A    between atoms: C_7  and  N_8 
REMARK    4  A    between atoms: C_9  and  S_10 
REMARK    5  A    between atoms: S_10  and  C_11 
REMARK    6  A    between atoms: C_11  and  C_12 
REMARK       I    between atoms: C_12  and  N_13 
REMARK    7  A    between atoms: N_13  and  C_14 
REMARK    8  A    between atoms: C_15  and  O_16 
REMARK    9  A    between atoms: C_19  and  O_20 
REMARK   10  A    between atoms: C_29  and  N_30 
ROOT
HETATM    1  N   UNL     1      40.782 -13.646   0.885  1.00  0.00    -0.276 N 
HETATM    2  C   UNL     1      41.106 -12.332   1.067  1.00  0.00     0.177 A 
HETATM    3  N   UNL     1      40.634 -11.329   0.317  1.00  0.00    -0.204 NA
HETATM    4  C   UNL     1      39.849 -11.732  -0.671  1.00  0.00     0.162 A 
HETATM    5  C   UNL     1      39.466 -13.027  -0.937  1.00  0.00     0.081 A 
HETATM    6  C   UNL     1      39.921 -14.056  -0.097  1.00  0.00     0.124 A 
HETATM    7  N   UNL     1      39.274 -10.933  -1.614  1.00  0.00    -0.260 N 
HETATM    8  H   UNL     1      39.362  -9.925  -1.710  1.00  0.00     0.191 HD
HETATM    9  N   UNL     1      38.526 -11.622  -2.491  1.00  0.00    -0.177 NA
HETATM   10  C   UNL     1      38.642 -12.896  -2.095  1.00  0.00     0.068 A 
HETATM   11  C   UNL     1      37.948 -13.958  -2.871  1.00  0.00     0.073 C 
ENDROOT
BRANCH   2  12
HETATM   12  S   UNL     1      42.226 -11.781   2.370  1.00  0.00    -0.082 SA
BRANCH  12  13
HETATM   13  C   UNL     1      41.091 -10.850   3.480  1.00  0.00     0.185 C 
BRANCH  13  14
HETATM   14  C   UNL     1      40.475 -11.718   4.569  1.00  0.00     0.232 C 
HETATM   15  N   UNL     1      41.175 -12.098   5.674  1.00  0.00    -0.324 N 
HETATM   16  H   UNL     1      40.772 -12.912   6.134  1.00  0.00     0.169 HD
HETATM   17  O   UNL     1      39.334 -12.175   4.422  1.00  0.00    -0.272 OA
BRANCH  15  18
HETATM   18  C   UNL     1      42.283 -11.559   6.354  1.00  0.00     0.070 A 
HETATM   19  C   UNL     1      43.458 -12.342   6.381  1.00  0.00     0.097 A 
HETATM   20  C   UNL     1      44.578 -11.909   7.104  1.00  0.00     0.077 A 
HETATM   21  C   UNL     1      44.534 -10.712   7.826  1.00  0.00     0.092 A 
HETATM   22  C   UNL     1      43.353  -9.954   7.809  1.00  0.00     0.069 A 
HETATM   23 CL   UNL     1      43.213  -8.484   8.712  1.00  0.00    -0.081 Cl
HETATM   24  C   UNL     1      42.235 -10.374   7.081  1.00  0.00     0.059 A 
BRANCH  19  25
HETATM   25  O   UNL     1      43.401 -13.503   5.644  1.00  0.00    -0.354 OA
HETATM   26  C   UNL     1      43.571 -14.734   6.340  1.00  0.00     0.210 C 
ENDBRANCH  19  25
BRANCH  21  27
HETATM   27  O   UNL     1      45.571 -10.214   8.571  1.00  0.00    -0.354 OA
HETATM   28  C   UNL     1      46.526  -9.384   7.923  1.00  0.00     0.210 C 
ENDBRANCH  21  27
ENDBRANCH  15  18
ENDBRANCH  13  14
ENDBRANCH  12  13
ENDBRANCH   2  12
BRANCH   1  29
HETATM   29  C   UNL     1      41.392 -14.656   1.707  1.00  0.00     0.043 A 
HETATM   30  C   UNL     1      40.689 -15.177   2.795  1.00  0.00     0.033 A 
HETATM   31  C   UNL     1      41.237 -16.254   3.502  1.00  0.00     0.039 A 
HETATM   32  C   UNL     1      42.458 -16.809   3.105  1.00  0.00     0.068 A 
HETATM   33  C   UNL     1      43.143 -16.267   2.011  1.00  0.00     0.039 A 
HETATM   34  C   UNL     1      42.617 -15.188   1.303  1.00  0.00     0.033 A 
BRANCH  32  35
HETATM   35  O   UNL     1      43.078 -17.883   3.674  1.00  0.00    -0.352 OA
BRANCH  35  36
HETATM   36  C   UNL     1      44.031 -18.600   2.890  1.00  0.00     0.171 C 
HETATM   37  C   UNL     1      43.352 -19.850   2.361  1.00  0.00     0.034 C 
ENDBRANCH  35  36
ENDBRANCH  32  35
ENDBRANCH   1  29
BRANCH   6  38
HETATM   38  N   UNL     1      39.528 -15.381  -0.262  1.00  0.00    -0.384 N 
HETATM   39  H   UNL     1      40.205 -16.039  -0.638  1.00  0.00     0.157 HD
HETATM   40  H   UNL     1      38.563 -15.627  -0.451  1.00  0.00     0.157 HD
ENDBRANCH   6  38
TORSDOF 10
ENDMDL
MODEL 3
REMARK VINA RESULT:      -7.8      3.205      6.122
REMARK  10 active torsions:
REMARK  status: ('A' for Active; 'I' for Inactive)
REMARK    1  A    between atoms: C_2  and  O_3 
REMARK    2  A    between atoms: O_3  and  C_4 
REMARK    3  A    between atoms: C_7  and  N_8 
REMARK    4  A    between atoms: C_9  and  S_10 
REMARK    5  A    between atoms: S_10  and  C_11 
REMARK    6  A    between atoms: C_11  and  C_12 
REMARK       I    between atoms: C_12  and  N_13 
REMARK    7  A    between atoms: N_13  and  C_14 
REMARK    8  A    between atoms: C_15  and  O_16 
REMARK    9  A    between atoms: C_19  and  O_20 
REMARK   10  A    between atoms: C_29  and  N_30 
ROOT
HETATM    1  N   UNL     1      40.979 -11.030   4.211  1.00  0.00    -0.276 N 
HETATM    2  C   UNL     1      40.154 -12.100   4.013  1.00  0.00     0.177 A 
HETATM    3  N   UNL     1      39.024 -12.057   3.297  1.00  0.00    -0.204 NA
HETATM    4  C   UNL     1      38.741 -10.851   2.827  1.00  0.00     0.162 A 
HETATM    5  C   UNL     1      39.504  -9.716   2.973  1.00  0.00     0.081 A 
HETATM    6  C   UNL     1      40.718  -9.798   3.672  1.00  0.00     0.124 A 
HETATM    7  N   UNL     1      37.632 -10.512   2.112  1.00  0.00    -0.260 N 
HETATM    8  H   UNL     1      36.860 -11.115   1.838  1.00  0.00     0.191 HD
HETATM    9  N   UNL     1      37.615  -9.214   1.768  1.00  0.00    -0.177 NA
HETATM   10  C   UNL     1      38.743  -8.717   2.293  1.00  0.00     0.068 A 
HETATM   11  C   UNL     1      39.043  -7.271   2.123  1.00  0.00     0.073 C 
ENDROOT
BRANCH   2  12
HETATM   12  S   UNL     1      40.499 -13.730   4.704  1.00  0.00    -0.082 SA
BRANCH  12  13
HETATM   13  C   UNL     1      40.602 -14.771   3.190  1.00  0.00     0.185 C 
BRANCH  13  14
HETATM   14  C   UNL     1      41.855 -14.508   2.366  1.00  0.00     0.232 C 
HETATM   15  N   UNL     1      42.996 -15.231   2.534  1.00  0.00    -0.324 N 
HETATM   16  H   UNL     1      43.821 -14.755   2.173  1.00  0.00     0.169 HD
HETATM   17  O   UNL     1      41.886 -13.553   1.578  1.00  0.00    -0.272 OA
BRANCH  15  18
HETATM   18  C   UNL     1      43.263 -16.523   3.023  1.00  0.00     0.070 A 
HETATM   19  C   UNL     1      43.659 -16.625   4.374  1.00  0.00     0.097 A 
HETATM   20  C   UNL     1      44.018 -17.868   4.913  1.00  0.00     0.077 A 
HETATM   21  C   UNL     1      44.012 -19.015   4.112  1.00  0.00     0.092 A 
HETATM   22  C   UNL     1      43.637 -18.897   2.765  1.00  0.00     0.069 A 
HETATM   23 CL   UNL     1      43.647 -20.265   1.704  1.00  0.00    -0.081 Cl
HETATM   24  C   UNL     1      43.268 -17.662   2.223  1.00  0.00     0.059 A 
BRANCH  19  25
HETATM   25  O   UNL     1      43.637 -15.442   5.078  1.00  0.00    -0.354 OA
HETATM   26  C   UNL     1      43.956 -15.495   6.465  1.00  0.00     0.210 C 
ENDBRANCH  19  25
BRANCH  21  27
HETATM   27  O   UNL     1      44.357 -20.268   4.544  1.00  0.00    -0.354 OA
HETATM   28  C   UNL     1      43.802 -20.735   5.766  1.00  0.00     0.210 C 
ENDBRANCH  21  27
ENDBRANCH  15  18
ENDBRANCH  13  14
ENDBRANCH  12  13
ENDBRANCH   2  12
BRANCH   1  29
HETATM   29  C   UNL     1      42.139 -11.163   5.049  1.00  0.00     0.043 A 
HETATM   30  C   UNL     1      43.370 -11.491   4.476  1.00  0.00     0.033 A 
HETATM   31  C   UNL     1      44.514 -11.483   5.282  1.00  0.00     0.039 A 
HETATM   32  C   UNL     1      44.424 -11.128   6.632  1.00  0.00     0.068 A 
HETATM   33  C   UNL     1      43.178 -10.804   7.182  1.00  0.00     0.039 A 
HETATM   34  C   UNL     1      42.026 -10.818   6.397  1.00  0.00     0.033 A 
BRANCH  32  35
HETATM   35  O   UNL     1      45.462 -11.035   7.513  1.00  0.00    -0.352 OA
BRANCH  35  36
HETATM   36  C   UNL     1      45.880  -9.733   7.922  1.00  0.00     0.171 C 
HETATM   37  C   UNL     1      45.572  -9.590   9.402  1.00  0.00     0.034 C 
ENDBRANCH  35  36
ENDBRANCH  32  35
ENDBRANCH   1  29
BRANCH   6  38
HETATM   38  N   UNL     1      41.576  -8.710   3.808  1.00  0.00    -0.384 N 
HETATM   39  H   UNL     1      41.324  -7.840   3.349  1.00  0.00     0.157 HD
HETATM   40  H   UNL     1      42.573  -8.836   3.937  1.00  0.00     0.157 HD
ENDBRANCH   6  38
TORSDOF 10
ENDMDL
MODEL 4
REMARK VINA RESULT:      -7.7      3.021      7.460
REMARK  10 active torsions:
REMARK  status: ('A' for Active; 'I' for Inactive)
REMARK    1  A    between atoms: C_2  and  O_3 
REMARK    2  A    between atoms: O_3  and  C_4 
REMARK    3  A    between atoms: C_7  and  N_8 
REMARK    4  A    between atoms: C_9  and  S_10 
REMARK    5  A    between atoms: S_10  and  C_11 
REMARK    6  A    between atoms: C_11  and  C_12 
REMARK       I    between atoms: C_12  and  N_13 
REMARK    7  A    between atoms: N_13  and  C_14 
REMARK    8  A    between atoms: C_15  and  O_16 
REMARK    9  A    between atoms: C_19  and  O_20 
REMARK   10  A    between atoms: C_29  and  N_30 
ROOT
HETATM    1  N   UNL     1      42.372 -12.618   5.591  1.00  0.00    -0.276 N 
HETATM    2  C   UNL     1      41.330 -11.794   5.274  1.00  0.00     0.177 A 
HETATM    3  N   UNL     1      41.175 -10.556   5.758  1.00  0.00    -0.204 NA
HETATM    4  C   UNL     1      42.112 -10.207   6.628  1.00  0.00     0.162 A 
HETATM    5  C   UNL     1      43.196 -10.963   7.012  1.00  0.00     0.081 A 
HETATM    6  C   UNL     1      43.374 -12.234   6.442  1.00  0.00     0.124 A 
HETATM    7  N   UNL     1      42.172  -9.029   7.310  1.00  0.00    -0.260 N 
HETATM    8  H   UNL     1      41.519  -8.251   7.266  1.00  0.00     0.191 HD
HETATM    9  N   UNL     1      43.238  -8.955   8.123  1.00  0.00    -0.177 NA
HETATM   10  C   UNL     1      43.863 -10.128   7.958  1.00  0.00     0.068 A 
HETATM   11  C   UNL     1      45.096 -10.406   8.740  1.00  0.00     0.073 C 
ENDROOT
BRANCH   2  12
HETATM   12  S   UNL     1      40.016 -12.286   4.141  1.00  0.00    -0.082 SA
BRANCH  12  13
HETATM   13  C   UNL     1      40.270 -11.123   2.737  1.00  0.00     0.185 C 
BRANCH  13  14
HETATM   14  C   UNL     1      41.532 -11.417   1.937  1.00  0.00     0.232 C 
HETATM   15  N   UNL     1      41.518 -12.205   0.826  1.00  0.00    -0.324 N 
HETATM   16  H   UNL     1      42.438 -12.573   0.593  1.00  0.00     0.169 HD
HETATM   17  O   UNL     1      42.628 -11.011   2.344  1.00  0.00    -0.272 OA
BRANCH  15  18
HETATM   18  C   UNL     1      40.522 -12.548  -0.107  1.00  0.00     0.070 A 
HETATM   19  C   UNL     1      40.221 -13.921  -0.243  1.00  0.00     0.097 A 
HETATM   20  C   UNL     1      39.297 -14.349  -1.207  1.00  0.00     0.077 A 
HETATM   21  C   UNL     1      38.685 -13.424  -2.060  1.00  0.00     0.092 A 
HETATM   22  C   UNL     1      39.010 -12.065  -1.929  1.00  0.00     0.069 A 
HETATM   23 CL   UNL     1      38.323 -10.870  -2.977  1.00  0.00    -0.081 Cl
HETATM   24  C   UNL     1      39.922 -11.629  -0.963  1.00  0.00     0.059 A 
BRANCH  19  25
HETATM   25  O   UNL     1      40.877 -14.751   0.637  1.00  0.00    -0.354 OA
HETATM   26  C   UNL     1      40.084 -15.621   1.438  1.00  0.00     0.210 C 
ENDBRANCH  19  25
BRANCH  21  27
HETATM   27  O   UNL     1      37.782 -13.747  -3.038  1.00  0.00    -0.354 OA
HETATM   28  C   UNL     1      38.045 -14.885  -3.847  1.00  0.00     0.210 C 
ENDBRANCH  21  27
ENDBRANCH  15  18
ENDBRANCH  13  14
ENDBRANCH  12  13
ENDBRANCH   2  12
BRANCH   1  29
HETATM   29  C   UNL     1      42.414 -13.956   5.066  1.00  0.00     0.043 A 
HETATM   30  C   UNL     1      43.038 -14.196   3.840  1.00  0.00     0.033 A 
HETATM   31  C   UNL     1      43.194 -15.517   3.407  1.00  0.00     0.039 A 
HETATM   32  C   UNL     1      42.750 -16.577   4.204  1.00  0.00     0.068 A 
HETATM   33  C   UNL     1      42.125 -16.310   5.429  1.00  0.00     0.039 A 
HETATM   34  C   UNL     1      41.953 -14.999   5.871  1.00  0.00     0.033 A 
BRANCH  32  35
HETATM   35  O   UNL     1      42.878 -17.906   3.925  1.00  0.00    -0.352 OA
BRANCH  35  36
HETATM   36  C   UNL     1      43.824 -18.294   2.929  1.00  0.00     0.171 C 
HETATM   37  C   UNL     1      43.242 -19.474   2.171  1.00  0.00     0.034 C 
ENDBRANCH  35  36
ENDBRANCH  32  35
ENDBRANCH   1  29
BRANCH   6  38
HETATM   38  N   UNL     1      44.476 -13.033   6.730  1.00  0.00    -0.384 N 
HETATM   39  H   UNL     1      44.311 -13.984   7.048  1.00  0.00     0.157 HD
HETATM   40  H   UNL     1      45.347 -12.632   7.060  1.00  0.00     0.157 HD
ENDBRANCH   6  38
TORSDOF 10
ENDMDL
MODEL 5
REMARK VINA RESULT:      -7.7      3.621      6.331
REMARK  10 active torsions:
REMARK  status: ('A' for Active; 'I' for Inactive)
REMARK    1  A    between atoms: C_2  and  O_3 
REMARK    2  A    between atoms: O_3  and  C_4 
REMARK    3  A    between atoms: C_7  and  N_8 
REMARK    4  A    between atoms: C_9  and  S_10 
REMARK    5  A    between atoms: S_10  and  C_11 
REMARK    6  A    between atoms: C_11  and  C_12 
REMARK       I    between atoms: C_12  and  N_13 
REMARK    7  A    between atoms: N_13  and  C_14 
REMARK    8  A    between atoms: C_15  and  O_16 
REMARK    9  A    between atoms: C_19  and  O_20 
REMARK   10  A    between atoms: C_29  and  N_30 
ROOT
HETATM    1  N   UNL     1      41.600 -15.386   3.751  1.00  0.00    -0.276 N 
HETATM    2  C   UNL     1      41.217 -14.722   4.882  1.00  0.00     0.177 A 
HETATM    3  N   UNL     1      41.564 -15.086   6.122  1.00  0.00    -0.204 NA
HETATM    4  C   UNL     1      42.285 -16.197   6.165  1.00  0.00     0.162 A 
HETATM    5  C   UNL     1      42.717 -16.936   5.088  1.00  0.00     0.081 A 
HETATM    6  C   UNL     1      42.397 -16.499   3.793  1.00  0.00     0.124 A 
HETATM    7  N   UNL     1      42.729 -16.819   7.294  1.00  0.00    -0.260 N 
HETATM    8  H   UNL     1      42.576 -16.539   8.259  1.00  0.00     0.191 HD
HETATM    9  N   UNL     1      43.438 -17.928   7.028  1.00  0.00    -0.177 NA
HETATM   10  C   UNL     1      43.430 -18.015   5.692  1.00  0.00     0.068 A 
HETATM   11  C   UNL     1      44.116 -19.161   5.039  1.00  0.00     0.073 C 
ENDROOT
BRANCH   2  12
HETATM   12  S   UNL     1      40.182 -13.246   4.835  1.00  0.00    -0.082 SA
BRANCH  12  13
HETATM   13  C   UNL     1      41.010 -12.162   6.071  1.00  0.00     0.185 C 
BRANCH  13  14
HETATM   14  C   UNL     1      42.209 -11.414   5.503  1.00  0.00     0.232 C 
HETATM   15  N   UNL     1      42.806 -10.390   6.174  1.00  0.00    -0.324 N 
HETATM   16  H   UNL     1      43.357  -9.788   5.565  1.00  0.00     0.169 HD
HETATM   17  O   UNL     1      42.611 -11.669   4.361  1.00  0.00    -0.272 OA
BRANCH  15  18
HETATM   18  C   UNL     1      42.889 -10.038   7.535  1.00  0.00     0.070 A 
HETATM   19  C   UNL     1      43.942 -10.613   8.280  1.00  0.00     0.097 A 
HETATM   20  C   UNL     1      44.044 -10.373   9.657  1.00  0.00     0.077 A 
HETATM   21  C   UNL     1      43.092  -9.585  10.311  1.00  0.00     0.092 A 
HETATM   22  C   UNL     1      42.038  -9.037   9.563  1.00  0.00     0.069 A 
HETATM   23 CL   UNL     1      40.801  -8.087  10.312  1.00  0.00    -0.081 Cl
HETATM   24  C   UNL     1      41.934  -9.264   8.186  1.00  0.00     0.059 A 
BRANCH  19  25
HETATM   25  O   UNL     1      44.824 -11.375   7.549  1.00  0.00    -0.354 OA
HETATM   26  C   UNL     1      46.127 -10.845   7.327  1.00  0.00     0.210 C 
ENDBRANCH  19  25
BRANCH  21  27
HETATM   27  O   UNL     1      43.101  -9.305  11.652  1.00  0.00    -0.354 OA
HETATM   28  C   UNL     1      42.604 -10.290  12.548  1.00  0.00     0.210 C 
ENDBRANCH  21  27
ENDBRANCH  15  18
ENDBRANCH  13  14
ENDBRANCH  12  13
ENDBRANCH   2  12
BRANCH   1  29
HETATM   29  C   UNL     1      41.121 -14.951   2.467  1.00  0.00     0.043 A 
HETATM   30  C   UNL     1      41.765 -13.899   1.813  1.00  0.00     0.033 A 
HETATM   31  C   UNL     1      41.378 -13.577   0.507  1.00  0.00     0.039 A 
HETATM   32  C   UNL     1      40.378 -14.315  -0.135  1.00  0.00     0.068 A 
HETATM   33  C   UNL     1      39.748 -15.366   0.545  1.00  0.00     0.039 A 
HETATM   34  C   UNL     1      40.114 -15.693   1.849  1.00  0.00     0.033 A 
BRANCH  32  35
HETATM   35  O   UNL     1      39.939 -14.138  -1.414  1.00  0.00    -0.352 OA
BRANCH  35  36
HETATM   36  C   UNL     1      39.074 -15.128  -1.970  1.00  0.00     0.171 C 
HETATM   37  C   UNL     1      38.503 -14.574  -3.263  1.00  0.00     0.034 C 
ENDBRANCH  35  36
ENDBRANCH  32  35
ENDBRANCH   1  29
BRANCH   6  38
HETATM   38  N   UNL     1      42.849 -17.155   2.651  1.00  0.00    -0.384 N 
HETATM   39  H   UNL     1      43.689 -17.721   2.724  1.00  0.00     0.157 HD
HETATM   40  H   UNL     1      42.683 -16.778   1.725  1.00  0.00     0.157 HD
ENDBRANCH   6  38
TORSDOF 10
ENDMDL
MODEL 6
REMARK VINA RESULT:      -7.6      2.524      3.713
REMARK  10 active torsions:
REMARK  status: ('A' for Active; 'I' for Inactive)
REMARK    1  A    between atoms: C_2  and  O_3 
REMARK    2  A    between atoms: O_3  and  C_4 
REMARK    3  A    between atoms: C_7  and  N_8 
REMARK    4  A    between atoms: C_9  and  S_10 
REMARK    5  A    between atoms: S_10  and  C_11 
REMARK    6  A    between atoms: C_11  and  C_12 
REMARK       I    between atoms: C_12  and  N_13 
REMARK    7  A    between atoms: N_13  and  C_14 
REMARK    8  A    between atoms: C_15  and  O_16 
REMARK    9  A    between atoms: C_19  and  O_20 
REMARK   10  A    between atoms: C_29  and  N_30 
ROOT
HETATM    1  N   UNL     1      41.115 -13.703   1.488  1.00  0.00    -0.276 N 
HETATM    2  C   UNL     1      41.535 -12.446   1.821  1.00  0.00     0.177 A 
HETATM    3  N   UNL     1      41.092 -11.326   1.238  1.00  0.00    -0.204 NA
HETATM    4  C   UNL     1      40.230 -11.545   0.256  1.00  0.00     0.162 A 
HETATM    5  C   UNL     1      39.749 -12.767  -0.154  1.00  0.00     0.081 A 
HETATM    6  C   UNL     1      40.178 -13.925   0.515  1.00  0.00     0.124 A 
HETATM    7  N   UNL     1      39.662 -10.594  -0.537  1.00  0.00    -0.260 N 
HETATM    8  H   UNL     1      39.811  -9.589  -0.506  1.00  0.00     0.191 HD
HETATM    9  N   UNL     1      38.824 -11.113  -1.450  1.00  0.00    -0.177 NA
HETATM   10  C   UNL     1      38.876 -12.434  -1.233  1.00  0.00     0.068 A 
HETATM   11  C   UNL     1      38.073 -13.339  -2.097  1.00  0.00     0.073 C 
ENDROOT
BRANCH   2  12
HETATM   12  S   UNL     1      42.756 -12.143   3.113  1.00  0.00    -0.082 SA
BRANCH  12  13
HETATM   13  C   UNL     1      41.690 -11.738   4.557  1.00  0.00     0.185 C 
BRANCH  13  14
HETATM   14  C   UNL     1      42.110 -12.457   5.832  1.00  0.00     0.232 C 
HETATM   15  N   UNL     1      42.804 -11.829   6.821  1.00  0.00    -0.324 N 
HETATM   16  H   UNL     1      43.288 -12.479   7.437  1.00  0.00     0.169 HD
HETATM   17  O   UNL     1      41.903 -13.671   5.953  1.00  0.00    -0.272 OA
BRANCH  15  18
HETATM   18  C   UNL     1      42.926 -10.484   7.218  1.00  0.00     0.070 A 
HETATM   19  C   UNL     1      44.108 -10.125   7.902  1.00  0.00     0.097 A 
HETATM   20  C   UNL     1      44.268  -8.824   8.398  1.00  0.00     0.077 A 
HETATM   21  C   UNL     1      43.251  -7.877   8.243  1.00  0.00     0.092 A 
HETATM   22  C   UNL     1      42.072  -8.252   7.581  1.00  0.00     0.069 A 
HETATM   23 CL   UNL     1      40.755  -7.146   7.389  1.00  0.00    -0.081 Cl
HETATM   24  C   UNL     1      41.908  -9.546   7.074  1.00  0.00     0.059 A 
BRANCH  19  25
HETATM   25  O   UNL     1      45.047 -11.126   8.007  1.00  0.00    -0.354 OA
HETATM   26  C   UNL     1      46.134 -11.109   7.088  1.00  0.00     0.210 C 
ENDBRANCH  19  25
BRANCH  21  27
HETATM   27  O   UNL     1      43.311  -6.588   8.703  1.00  0.00    -0.354 OA
HETATM   28  C   UNL     1      42.907  -6.332  10.041  1.00  0.00     0.210 C 
ENDBRANCH  21  27
ENDBRANCH  15  18
ENDBRANCH  13  14
ENDBRANCH  12  13
ENDBRANCH   2  12
BRANCH   1  29
HETATM   29  C   UNL     1      41.700 -14.848   2.131  1.00  0.00     0.043 A 
HETATM   30  C   UNL     1      41.024 -15.466   3.185  1.00  0.00     0.033 A 
HETATM   31  C   UNL     1      41.535 -16.658   3.710  1.00  0.00     0.039 A 
HETATM   32  C   UNL     1      42.691 -17.229   3.168  1.00  0.00     0.068 A 
HETATM   33  C   UNL     1      43.350 -16.589   2.111  1.00  0.00     0.039 A 
HETATM   34  C   UNL     1      42.861 -15.395   1.584  1.00  0.00     0.033 A 
BRANCH  32  35
HETATM   35  O   UNL     1      43.267 -18.404   3.552  1.00  0.00    -0.352 OA
BRANCH  35  36
HETATM   36  C   UNL     1      44.138 -19.058   2.629  1.00  0.00     0.171 C 
HETATM   37  C   UNL     1      43.407 -20.270   2.080  1.00  0.00     0.034 C 
ENDBRANCH  35  36
ENDBRANCH  32  35
ENDBRANCH   1  29
BRANCH   6  38
HETATM   38  N   UNL     1      39.690 -15.191   0.202  1.00  0.00    -0.384 N 
HETATM   39  H   UNL     1      38.732 -15.269  -0.124  1.00  0.00     0.157 HD
HETATM   40  H   UNL     1      40.038 -16.021   0.669  1.00  0.00     0.157 HD
ENDBRANCH   6  38
TORSDOF 10
ENDMDL
MODEL 7
REMARK VINA RESULT:      -7.5      3.778      6.584
REMARK  10 active torsions:
REMARK  status: ('A' for Active; 'I' for Inactive)
REMARK    1  A    between atoms: C_2  and  O_3 
REMARK    2  A    between atoms: O_3  and  C_4 
REMARK    3  A    between atoms: C_7  and  N_8 
REMARK    4  A    between atoms: C_9  and  S_10 
REMARK    5  A    between atoms: S_10  and  C_11 
REMARK    6  A    between atoms: C_11  and  C_12 
REMARK       I    between atoms: C_12  and  N_13 
REMARK    7  A    between atoms: N_13  and  C_14 
REMARK    8  A    between atoms: C_15  and  O_16 
REMARK    9  A    between atoms: C_19  and  O_20 
REMARK   10  A    between atoms: C_29  and  N_30 
ROOT
HETATM    1  N   UNL     1      41.859 -15.642   3.615  1.00  0.00    -0.276 N 
HETATM    2  C   UNL     1      41.450 -14.997   4.748  1.00  0.00     0.177 A 
HETATM    3  N   UNL     1      41.757 -15.390   5.990  1.00  0.00    -0.204 NA
HETATM    4  C   UNL     1      42.464 -16.510   6.031  1.00  0.00     0.162 A 
HETATM    5  C   UNL     1      42.920 -17.231   4.951  1.00  0.00     0.081 A 
HETATM    6  C   UNL     1      42.642 -16.764   3.656  1.00  0.00     0.124 A 
HETATM    7  N   UNL     1      42.869 -17.160   7.158  1.00  0.00    -0.260 N 
HETATM    8  H   UNL     1      42.690 -16.898   8.124  1.00  0.00     0.191 HD
HETATM    9  N   UNL     1      43.574 -18.271   6.891  1.00  0.00    -0.177 NA
HETATM   10  C   UNL     1      43.604 -18.330   5.553  1.00  0.00     0.068 A 
HETATM   11  C   UNL     1      44.296 -19.470   4.896  1.00  0.00     0.073 C 
ENDROOT
BRANCH   2  12
HETATM   12  S   UNL     1      40.433 -13.509   4.702  1.00  0.00    -0.082 SA
BRANCH  12  13
HETATM   13  C   UNL     1      41.245 -12.453   5.973  1.00  0.00     0.185 C 
BRANCH  13  14
HETATM   14  C   UNL     1      42.283 -11.504   5.389  1.00  0.00     0.232 C 
HETATM   15  N   UNL     1      42.747 -10.426   6.079  1.00  0.00    -0.324 N 
HETATM   16  H   UNL     1      43.165  -9.722   5.475  1.00  0.00     0.169 HD
HETATM   17  O   UNL     1      42.661 -11.648   4.219  1.00  0.00    -0.272 OA
BRANCH  15  18
HETATM   18  C   UNL     1      42.842 -10.119   7.450  1.00  0.00     0.070 A 
HETATM   19  C   UNL     1      41.785  -9.371   8.012  1.00  0.00     0.097 A 
HETATM   20  C   UNL     1      41.846  -8.959   9.350  1.00  0.00     0.077 A 
HETATM   21  C   UNL     1      42.963  -9.263  10.134  1.00  0.00     0.092 A 
HETATM   22  C   UNL     1      44.017  -9.989   9.558  1.00  0.00     0.069 A 
HETATM   23 CL   UNL     1      45.449 -10.364  10.454  1.00  0.00    -0.081 Cl
HETATM   24  C   UNL     1      43.960 -10.412   8.226  1.00  0.00     0.059 A 
BRANCH  19  25
HETATM   25  O   UNL     1      40.733  -9.119   7.160  1.00  0.00    -0.354 OA
HETATM   26  C   UNL     1      39.449  -9.605   7.537  1.00  0.00     0.210 C 
ENDBRANCH  19  25
BRANCH  21  27
HETATM   27  O   UNL     1      43.119  -8.894  11.444  1.00  0.00    -0.354 OA
HETATM   28  C   UNL     1      42.449  -9.655  12.441  1.00  0.00     0.210 C 
ENDBRANCH  21  27
ENDBRANCH  15  18
ENDBRANCH  13  14
ENDBRANCH  12  13
ENDBRANCH   2  12
BRANCH   1  29
HETATM   29  C   UNL     1      41.422 -15.175   2.328  1.00  0.00     0.043 A 
HETATM   30  C   UNL     1      40.322 -15.777   1.712  1.00  0.00     0.033 A 
HETATM   31  C   UNL     1      39.824 -15.225   0.527  1.00  0.00     0.039 A 
HETATM   32  C   UNL     1      40.408 -14.075  -0.015  1.00  0.00     0.068 A 
HETATM   33  C   UNL     1      41.511 -13.491   0.621  1.00  0.00     0.039 A 
HETATM   34  C   UNL     1      42.026 -14.035   1.797  1.00  0.00     0.033 A 
BRANCH  32  35
HETATM   35  O   UNL     1      39.996 -13.411  -1.133  1.00  0.00    -0.352 OA
BRANCH  35  36
HETATM   36  C   UNL     1      40.682 -12.213  -1.494  1.00  0.00     0.171 C 
HETATM   37  C   UNL     1      41.087 -12.330  -2.952  1.00  0.00     0.034 C 
ENDBRANCH  35  36
ENDBRANCH  32  35
ENDBRANCH   1  29
BRANCH   6  38
HETATM   38  N   UNL     1      43.121 -17.402   2.515  1.00  0.00    -0.384 N 
HETATM   39  H   UNL     1      42.858 -17.025   1.609  1.00  0.00     0.157 HD
HETATM   40  H   UNL     1      43.317 -18.396   2.509  1.00  0.00     0.157 HD
ENDBRANCH   6  38
TORSDOF 10
ENDMDL
MODEL 8
REMARK VINA RESULT:      -7.3      2.575      3.965
REMARK  10 active torsions:
REMARK  status: ('A' for Active; 'I' for Inactive)
REMARK    1  A    between atoms: C_2  and  O_3 
REMARK    2  A    between atoms: O_3  and  C_4 
REMARK    3  A    between atoms: C_7  and  N_8 
REMARK    4  A    between atoms: C_9  and  S_10 
REMARK    5  A    between atoms: S_10  and  C_11 
REMARK    6  A    between atoms: C_11  and  C_12 
REMARK       I    between atoms: C_12  and  N_13 
REMARK    7  A    between atoms: N_13  and  C_14 
REMARK    8  A    between atoms: C_15  and  O_16 
REMARK    9  A    between atoms: C_19  and  O_20 
REMARK   10  A    between atoms: C_29  and  N_30 
ROOT
HETATM    1  N   UNL     1      40.901 -13.834   1.162  1.00  0.00    -0.276 N 
HETATM    2  C   UNL     1      41.325 -12.579   1.499  1.00  0.00     0.177 A 
HETATM    3  N   UNL     1      40.885 -11.456   0.920  1.00  0.00    -0.204 NA
HETATM    4  C   UNL     1      40.021 -11.670  -0.062  1.00  0.00     0.162 A 
HETATM    5  C   UNL     1      39.536 -12.890  -0.475  1.00  0.00     0.081 A 
HETATM    6  C   UNL     1      39.962 -14.051   0.190  1.00  0.00     0.124 A 
HETATM    7  N   UNL     1      39.454 -10.715  -0.851  1.00  0.00    -0.260 N 
HETATM    8  H   UNL     1      39.606  -9.710  -0.817  1.00  0.00     0.191 HD
HETATM    9  N   UNL     1      38.614 -11.229  -1.764  1.00  0.00    -0.177 NA
HETATM   10  C   UNL     1      38.662 -12.550  -1.551  1.00  0.00     0.068 A 
HETATM   11  C   UNL     1      37.855 -13.451  -2.417  1.00  0.00     0.073 C 
ENDROOT
BRANCH   2  12
HETATM   12  S   UNL     1      42.549 -12.284   2.790  1.00  0.00    -0.082 SA
BRANCH  12  13
HETATM   13  C   UNL     1      41.631 -11.176   3.938  1.00  0.00     0.185 C 
BRANCH  13  14
HETATM   14  C   UNL     1      41.039 -11.911   5.133  1.00  0.00     0.232 C 
HETATM   15  N   UNL     1      41.494 -11.712   6.402  1.00  0.00    -0.324 N 
HETATM   16  H   UNL     1      41.252 -12.474   7.031  1.00  0.00     0.169 HD
HETATM   17  O   UNL     1      40.181 -12.784   4.958  1.00  0.00    -0.272 OA
BRANCH  15  18
HETATM   18  C   UNL     1      42.152 -10.644   7.041  1.00  0.00     0.070 A 
HETATM   19  C   UNL     1      41.367  -9.521   7.380  1.00  0.00     0.097 A 
HETATM   20  C   UNL     1      41.965  -8.387   7.947  1.00  0.00     0.077 A 
HETATM   21  C   UNL     1      43.347  -8.347   8.159  1.00  0.00     0.092 A 
HETATM   22  C   UNL     1      44.120  -9.462   7.798  1.00  0.00     0.069 A 
HETATM   23 CL   UNL     1      45.839  -9.467   7.992  1.00  0.00    -0.081 Cl
HETATM   24  C   UNL     1      43.529 -10.601   7.240  1.00  0.00     0.059 A 
BRANCH  19  25
HETATM   25  O   UNL     1      40.020  -9.655   7.130  1.00  0.00    -0.354 OA
HETATM   26  C   UNL     1      39.425  -8.736   6.219  1.00  0.00     0.210 C 
ENDBRANCH  19  25
BRANCH  21  27
HETATM   27  O   UNL     1      44.022  -7.283   8.695  1.00  0.00    -0.354 OA
HETATM   28  C   UNL     1      43.298  -6.367   9.507  1.00  0.00     0.210 C 
ENDBRANCH  21  27
ENDBRANCH  15  18
ENDBRANCH  13  14
ENDBRANCH  12  13
ENDBRANCH   2  12
BRANCH   1  29
HETATM   29  C   UNL     1      41.483 -14.982   1.802  1.00  0.00     0.043 A 
HETATM   30  C   UNL     1      42.695 -15.493   1.331  1.00  0.00     0.033 A 
HETATM   31  C   UNL     1      43.318 -16.523   2.046  1.00  0.00     0.039 A 
HETATM   32  C   UNL     1      42.744 -17.011   3.224  1.00  0.00     0.068 A 
HETATM   33  C   UNL     1      41.528 -16.482   3.674  1.00  0.00     0.039 A 
HETATM   34  C   UNL     1      40.888 -15.464   2.969  1.00  0.00     0.033 A 
BRANCH  32  35
HETATM   35  O   UNL     1      43.266 -17.974   4.037  1.00  0.00    -0.352 OA
BRANCH  35  36
HETATM   36  C   UNL     1      44.253 -17.585   4.990  1.00  0.00     0.171 C 
HETATM   37  C   UNL     1      43.662 -17.775   6.376  1.00  0.00     0.034 C 
ENDBRANCH  35  36
ENDBRANCH  32  35
ENDBRANCH   1  29
BRANCH   6  38
HETATM   38  N   UNL     1      39.470 -15.314  -0.126  1.00  0.00    -0.384 N 
HETATM   39  H   UNL     1      40.105 -15.983  -0.551  1.00  0.00     0.157 HD
HETATM   40  H   UNL     1      38.496 -15.456  -0.367  1.00  0.00     0.157 HD
ENDBRANCH   6  38
TORSDOF 10
ENDMDL
MODEL 9
REMARK VINA RESULT:      -7.3      3.765      6.733
REMARK  10 active torsions:
REMARK  status: ('A' for Active; 'I' for Inactive)
REMARK    1  A    between atoms: C_2  and  O_3 
REMARK    2  A    between atoms: O_3  and  C_4 
REMARK    3  A    between atoms: C_7  and  N_8 
REMARK    4  A    between atoms: C_9  and  S_10 
REMARK    5  A    between atoms: S_10  and  C_11 
REMARK    6  A    between atoms: C_11  and  C_12 
REMARK       I    between atoms: C_12  and  N_13 
REMARK    7  A    between atoms: N_13  and  C_14 
REMARK    8  A    between atoms: C_15  and  O_16 
REMARK    9  A    between atoms: C_19  and  O_20 
REMARK   10  A    between atoms: C_29  and  N_30 
ROOT
HETATM    1  N   UNL     1      42.195 -14.595   3.733  1.00  0.00    -0.276 N 
HETATM    2  C   UNL     1      42.764 -14.408   4.961  1.00  0.00     0.177 A 
HETATM    3  N   UNL     1      43.526 -15.315   5.584  1.00  0.00    -0.204 NA
HETATM    4  C   UNL     1      43.645 -16.454   4.916  1.00  0.00     0.162 A 
HETATM    5  C   UNL     1      43.112 -16.738   3.680  1.00  0.00     0.081 A 
HETATM    6  C   UNL     1      42.370 -15.748   3.016  1.00  0.00     0.124 A 
HETATM    7  N   UNL     1      44.318 -17.561   5.337  1.00  0.00    -0.260 N 
HETATM    8  H   UNL     1      44.819 -17.689   6.213  1.00  0.00     0.191 HD
HETATM    9  N   UNL     1      44.268 -18.567   4.448  1.00  0.00    -0.177 NA
HETATM   10  C   UNL     1      43.530 -18.082   3.441  1.00  0.00     0.068 A 
HETATM   11  C   UNL     1      43.245 -18.953   2.271  1.00  0.00     0.073 C 
ENDROOT
BRANCH   2  12
HETATM   12  S   UNL     1      42.554 -12.885   5.905  1.00  0.00    -0.082 SA
BRANCH  12  13
HETATM   13  C   UNL     1      44.045 -12.897   6.983  1.00  0.00     0.185 C 
BRANCH  13  14
HETATM   14  C   UNL     1      44.839 -11.599   6.919  1.00  0.00     0.232 C 
HETATM   15  N   UNL     1      44.378 -10.441   7.469  1.00  0.00    -0.324 N 
HETATM   16  H   UNL     1      44.830  -9.615   7.082  1.00  0.00     0.169 HD
HETATM   17  O   UNL     1      45.896 -11.553   6.276  1.00  0.00    -0.272 OA
BRANCH  15  18
HETATM   18  C   UNL     1      43.474 -10.153   8.508  1.00  0.00     0.070 A 
HETATM   19  C   UNL     1      42.317  -9.421   8.162  1.00  0.00     0.097 A 
HETATM   20  C   UNL     1      41.408  -9.027   9.154  1.00  0.00     0.077 A 
HETATM   21  C   UNL     1      41.650  -9.333  10.497  1.00  0.00     0.092 A 
HETATM   22  C   UNL     1      42.815 -10.042  10.830  1.00  0.00     0.069 A 
HETATM   23 CL   UNL     1      43.201 -10.418  12.475  1.00  0.00    -0.081 Cl
HETATM   24  C   UNL     1      43.722 -10.447   9.845  1.00  0.00     0.059 A 
BRANCH  19  25
HETATM   25  O   UNL     1      42.169  -9.165   6.817  1.00  0.00    -0.354 OA
HETATM   26  C   UNL     1      41.705  -7.874   6.439  1.00  0.00     0.210 C 
ENDBRANCH  19  25
BRANCH  21  27
HETATM   27  O   UNL     1      40.830  -8.981  11.536  1.00  0.00    -0.354 OA
HETATM   28  C   UNL     1      39.746  -9.842  11.858  1.00  0.00     0.210 C 
ENDBRANCH  21  27
ENDBRANCH  15  18
ENDBRANCH  13  14
ENDBRANCH  12  13
ENDBRANCH   2  12
BRANCH   1  29
HETATM   29  C   UNL     1      41.340 -13.582   3.177  1.00  0.00     0.043 A 
HETATM   30  C   UNL     1      39.969 -13.618   3.440  1.00  0.00     0.033 A 
HETATM   31  C   UNL     1      39.170 -12.552   3.009  1.00  0.00     0.039 A 
HETATM   32  C   UNL     1      39.745 -11.462   2.348  1.00  0.00     0.068 A 
HETATM   33  C   UNL     1      41.123 -11.451   2.097  1.00  0.00     0.039 A 
HETATM   34  C   UNL     1      41.931 -12.509   2.509  1.00  0.00     0.033 A 
BRANCH  32  35
HETATM   35  O   UNL     1      39.093 -10.343   1.918  1.00  0.00    -0.352 OA
BRANCH  35  36
HETATM   36  C   UNL     1      39.341  -9.117   2.604  1.00  0.00     0.171 C 
HETATM   37  C   UNL     1      38.826  -9.266   4.025  1.00  0.00     0.034 C 
ENDBRANCH  35  36
ENDBRANCH  32  35
ENDBRANCH   1  29
BRANCH   6  38
HETATM   38  N   UNL     1      41.851 -15.936   1.738  1.00  0.00    -0.384 N 
HETATM   39  H   UNL     1      41.456 -16.844   1.509  1.00  0.00     0.157 HD
HETATM   40  H   UNL     1      42.219 -15.431   0.939  1.00  0.00     0.157 HD
ENDBRANCH   6  38
TORSDOF 10
ENDMDL
MODEL 10
REMARK VINA RESULT:      -7.2      2.934      3.870
REMARK  10 active torsions:
REMARK  status: ('A' for Active; 'I' for Inactive)
REMARK    1  A    between atoms: C_2  and  O_3 
REMARK    2  A    between atoms: O_3  and  C_4 
REMARK    3  A    between atoms: C_7  and  N_8 
REMARK    4  A    between atoms: C_9  and  S_10 
REMARK    5  A    between atoms: S_10  and  C_11 
REMARK    6  A    between atoms: C_11  and  C_12 
REMARK       I    between atoms: C_12  and  N_13 
REMARK    7  A    between atoms: N_13  and  C_14 
REMARK    8  A    between atoms: C_15  and  O_16 
REMARK    9  A    between atoms: C_19  and  O_20 
REMARK   10  A    between atoms: C_29  and  N_30 
ROOT
HETATM    1  N   UNL     1      41.579 -14.164   2.261  1.00  0.00    -0.276 N 
HETATM    2  C   UNL     1      41.994 -12.864   2.325  1.00  0.00     0.177 A 
HETATM    3  N   UNL     1      41.672 -11.926   1.426  1.00  0.00    -0.204 NA
HETATM    4  C   UNL     1      40.943 -12.387   0.420  1.00  0.00     0.162 A 
HETATM    5  C   UNL     1      40.479 -13.673   0.266  1.00  0.00     0.081 A 
HETATM    6  C   UNL     1      40.774 -14.625   1.255  1.00  0.00     0.124 A 
HETATM    7  N   UNL     1      40.519 -11.666  -0.656  1.00  0.00    -0.260 N 
HETATM    8  H   UNL     1      40.697 -10.685  -0.856  1.00  0.00     0.191 HD
HETATM    9  N   UNL     1      39.794 -12.399  -1.517  1.00  0.00    -0.177 NA
HETATM   10  C   UNL     1      39.770 -13.622  -0.973  1.00  0.00     0.068 A 
HETATM   11  C   UNL     1      39.060 -14.716  -1.686  1.00  0.00     0.073 C 
ENDROOT
BRANCH   2  12
HETATM   12  S   UNL     1      43.040 -12.245   3.657  1.00  0.00    -0.082 SA
BRANCH  12  13
HETATM   13  C   UNL     1      41.798 -11.570   4.835  1.00  0.00     0.185 C 
BRANCH  13  14
HETATM   14  C   UNL     1      41.691 -10.052   4.789  1.00  0.00     0.232 C 
HETATM   15  N   UNL     1      41.717  -9.290   5.917  1.00  0.00    -0.324 N 
HETATM   16  H   UNL     1      41.320  -8.363   5.776  1.00  0.00     0.169 HD
HETATM   17  O   UNL     1      41.484  -9.480   3.710  1.00  0.00    -0.272 OA
BRANCH  15  18
HETATM   18  C   UNL     1      42.247  -9.483   7.207  1.00  0.00     0.070 A 
HETATM   19  C   UNL     1      41.431  -9.105   8.295  1.00  0.00     0.097 A 
HETATM   20  C   UNL     1      41.918  -9.193   9.607  1.00  0.00     0.077 A 
HETATM   21  C   UNL     1      43.224  -9.632   9.848  1.00  0.00     0.092 A 
HETATM   22  C   UNL     1      44.033  -9.984   8.756  1.00  0.00     0.069 A 
HETATM   23 CL   UNL     1      45.672 -10.494   8.976  1.00  0.00    -0.081 Cl
HETATM   24  C   UNL     1      43.550  -9.908   7.445  1.00  0.00     0.059 A 
BRANCH  19  25
HETATM   25  O   UNL     1      40.165  -8.684   7.956  1.00  0.00    -0.354 OA
HETATM   26  C   UNL     1      39.186  -8.641   8.988  1.00  0.00     0.210 C 
ENDBRANCH  19  25
BRANCH  21  27
HETATM   27  O   UNL     1      43.792  -9.740  11.090  1.00  0.00    -0.354 OA
HETATM   28  C   UNL     1      43.542  -8.708  12.036  1.00  0.00     0.210 C 
ENDBRANCH  21  27
ENDBRANCH  15  18
ENDBRANCH  13  14
ENDBRANCH  12  13
ENDBRANCH   2  12
BRANCH   1  29
HETATM   29  C   UNL     1      42.032 -15.110   3.245  1.00  0.00     0.043 A 
HETATM   30  C   UNL     1      41.238 -15.376   4.362  1.00  0.00     0.033 A 
HETATM   31  C   UNL     1      41.623 -16.397   5.238  1.00  0.00     0.039 A 
HETATM   32  C   UNL     1      42.773 -17.150   4.981  1.00  0.00     0.068 A 
HETATM   33  C   UNL     1      43.553 -16.862   3.854  1.00  0.00     0.039 A 
HETATM   34  C   UNL     1      43.190 -15.842   2.977  1.00  0.00     0.033 A 
BRANCH  32  35
HETATM   35  O   UNL     1      43.236 -18.197   5.724  1.00  0.00    -0.352 OA
BRANCH  35  36
HETATM   36  C   UNL     1      44.153 -19.102   5.110  1.00  0.00     0.171 C 
HETATM   37  C   UNL     1      43.780 -20.508   5.545  1.00  0.00     0.034 C 
ENDBRANCH  35  36
ENDBRANCH  32  35
ENDBRANCH   1  29
BRANCH   6  38
HETATM   38  N   UNL     1      40.289 -15.929   1.203  1.00  0.00    -0.384 N 
HETATM   39  H   UNL     1      40.532 -16.499   0.399  1.00  0.00     0.157 HD
HETATM   40  H   UNL     1      39.412 -16.184   1.642  1.00  0.00     0.157 HD
ENDBRANCH   6  38
TORSDOF 10
ENDMDL
