MODEL 1
REMARK VINA RESULT:      -8.8      0.000      0.000
REMARK  7 active torsions:
REMARK  status: ('A' for Active; 'I' for Inactive)
REMARK    1  A    between atoms: C_2  and  C_3 
REMARK    2  A    between atoms: C_6  and  C_7 
REMARK    3  A    between atoms: N_9  and  C_10 
REMARK    4  A    between atoms: C_10  and  C_11 
REMARK    5  A    between atoms: C_18  and  C_19 
REMARK       I    between atoms: C_19  and  N_20 
REMARK    6  A    between atoms: N_20  and  C_21 
REMARK    7  A    between atoms: C_24  and  O_25 
ROOT
HETATM    1  C   UNL     1      41.042 -13.993   1.747  1.00  0.00     0.104 A 
HETATM    2  N   UNL     1      40.897 -13.549   0.483  1.00  0.00    -0.171 NA
HETATM    3  N   UNL     1      40.179 -12.427   0.590  1.00  0.00    -0.275 N 
HETATM    4  C   UNL     1      39.827 -12.133   1.872  1.00  0.00     0.132 A 
HETATM    5  C   UNL     1      40.407 -13.101   2.680  1.00  0.00     0.080 A 
ENDROOT
BRANCH   5   6
HETATM    6  C   UNL     1      40.363 -13.154   4.142  1.00  0.00     0.255 C 
HETATM    7  N   UNL     1      41.453 -13.768   4.721  1.00  0.00    -0.352 N 
HETATM    8  H   UNL     1      42.102 -14.225   4.097  1.00  0.00     0.163 HD
HETATM    9  O   UNL     1      39.432 -12.700   4.793  1.00  0.00    -0.268 OA
BRANCH   7  10
HETATM   10  C   UNL     1      41.697 -13.991   6.145  1.00  0.00     0.084 C 
HETATM   11  C   UNL     1      41.045 -15.263   6.700  1.00  0.00     0.028 C 
HETATM   12  C   UNL     1      41.944 -16.498   6.733  1.00  0.00     0.034 C 
HETATM   13  C   UNL     1      43.325 -16.199   7.304  1.00  0.00     0.118 C 
HETATM   14  C   UNL     1      44.011 -15.056   6.563  1.00  0.00     0.034 C 
HETATM   15  C   UNL     1      43.161 -13.786   6.553  1.00  0.00     0.028 C 
BRANCH  13  16
HETATM   16  O   UNL     1      43.181 -15.850   8.681  1.00  0.00    -0.396 OA
HETATM   17  H   UNL     1      43.545 -16.587   9.203  1.00  0.00     0.210 HD
ENDBRANCH  13  16
ENDBRANCH   7  10
ENDBRANCH   5   6
BRANCH   1  18
HETATM   18  C   UNL     1      41.805 -15.223   1.966  1.00  0.00    -0.005 A 
HETATM   19  C   UNL     1      41.135 -16.388   2.367  1.00  0.00     0.014 A 
HETATM   20  C   UNL     1      41.837 -17.565   2.652  1.00  0.00     0.008 A 
HETATM   21  C   UNL     1      43.231 -17.603   2.552  1.00  0.00    -0.059 A 
HETATM   22  C   UNL     1      43.900 -16.436   2.146  1.00  0.00     0.008 A 
HETATM   23  C   UNL     1      43.197 -15.257   1.867  1.00  0.00     0.014 A 
BRANCH  21  24
HETATM   24  C   UNL     1      44.057 -18.833   2.852  1.00  0.00     0.034 C 
HETATM   25  C   UNL     1      43.635 -20.127   2.167  1.00  0.00     0.010 C 
ENDBRANCH  21  24
ENDBRANCH   1  18
BRANCH   3  26
HETATM   26  C   UNL     1      39.862 -11.652  -0.606  1.00  0.00     0.189 C 
BRANCH  26  27
HETATM   27  C   UNL     1      39.095 -12.465  -1.621  1.00  0.00    -0.038 A 
HETATM   28  C   UNL     1      39.750 -13.388  -2.453  1.00  0.00     0.009 A 
HETATM   29  C   UNL     1      39.033 -14.144  -3.381  1.00  0.00     0.001 A 
HETATM   30  C   UNL     1      37.651 -13.999  -3.478  1.00  0.00     0.000 A 
HETATM   31  C   UNL     1      36.984 -13.101  -2.646  1.00  0.00     0.001 A 
HETATM   32  C   UNL     1      37.701 -12.341  -1.720  1.00  0.00     0.009 A 
ENDBRANCH  26  27
ENDBRANCH   3  26
TORSDOF 7
ENDMDL
MODEL 2
REMARK VINA RESULT:      -8.6      1.392      2.074
REMARK  7 active torsions:
REMARK  status: ('A' for Active; 'I' for Inactive)
REMARK    1  A    between atoms: C_2  and  C_3 
REMARK    2  A    between atoms: C_6  and  C_7 
REMARK    3  A    between atoms: N_9  and  C_10 
REMARK    4  A    between atoms: C_10  and  C_11 
REMARK    5  A    between atoms: C_18  and  C_19 
REMARK       I    between atoms: C_19  and  N_20 
REMARK    6  A    between atoms: N_20  and  C_21 
REMARK    7  A    between atoms: C_24  and  O_25 
ROOT
HETATM    1  C   UNL     1      41.215 -13.950   1.774  1.00  0.00     0.104 A 
HETATM    2  N   UNL     1      41.153 -13.663   0.458  1.00  0.00    -0.171 NA
HETATM    3  N   UNL     1      40.516 -12.489   0.390  1.00  0.00    -0.275 N 
HETATM    4  C   UNL     1      40.137 -12.010   1.607  1.00  0.00     0.132 A 
HETATM    5  C   UNL     1      40.612 -12.904   2.556  1.00  0.00     0.080 A 
ENDROOT
BRANCH   5   6
HETATM    6  C   UNL     1      40.507 -12.766   4.010  1.00  0.00     0.255 C 
HETATM    7  N   UNL     1      41.720 -12.693   4.661  1.00  0.00    -0.352 N 
HETATM    8  H   UNL     1      42.545 -12.864   4.107  1.00  0.00     0.163 HD
HETATM    9  O   UNL     1      39.434 -12.729   4.595  1.00  0.00    -0.268 OA
BRANCH   7  10
HETATM   10  C   UNL     1      41.950 -12.569   6.100  1.00  0.00     0.084 C 
HETATM   11  C   UNL     1      43.111 -13.424   6.623  1.00  0.00     0.028 C 
HETATM   12  C   UNL     1      44.457 -12.709   6.722  1.00  0.00     0.034 C 
HETATM   13  C   UNL     1      44.343 -11.336   7.375  1.00  0.00     0.118 C 
HETATM   14  C   UNL     1      43.318 -10.455   6.669  1.00  0.00     0.034 C 
HETATM   15  C   UNL     1      41.943 -11.118   6.596  1.00  0.00     0.028 C 
BRANCH  13  16
HETATM   16  O   UNL     1      43.954 -11.513   8.738  1.00  0.00    -0.396 OA
HETATM   17  H   UNL     1      44.748 -11.789   9.229  1.00  0.00     0.210 HD
ENDBRANCH  13  16
ENDBRANCH   7  10
ENDBRANCH   5   6
BRANCH   1  18
HETATM   18  C   UNL     1      41.876 -15.191   2.182  1.00  0.00    -0.005 A 
HETATM   19  C   UNL     1      42.992 -15.645   1.463  1.00  0.00     0.014 A 
HETATM   20  C   UNL     1      43.609 -16.861   1.780  1.00  0.00     0.008 A 
HETATM   21  C   UNL     1      43.119 -17.659   2.817  1.00  0.00    -0.059 A 
HETATM   22  C   UNL     1      42.004 -17.200   3.538  1.00  0.00     0.008 A 
HETATM   23  C   UNL     1      41.384 -15.986   3.218  1.00  0.00     0.014 A 
BRANCH  21  24
HETATM   24  C   UNL     1      43.727 -18.987   3.209  1.00  0.00     0.034 C 
HETATM   25  C   UNL     1      43.553 -20.139   2.227  1.00  0.00     0.010 C 
ENDBRANCH  21  24
ENDBRANCH   1  18
BRANCH   3  26
HETATM   26  C   UNL     1      40.305 -11.854  -0.908  1.00  0.00     0.189 C 
BRANCH  26  27
HETATM   27  C   UNL     1      39.355 -12.644  -1.777  1.00  0.00    -0.038 A 
HETATM   28  C   UNL     1      39.806 -13.744  -2.526  1.00  0.00     0.009 A 
HETATM   29  C   UNL     1      38.922 -14.476  -3.319  1.00  0.00     0.001 A 
HETATM   30  C   UNL     1      37.573 -14.129  -3.360  1.00  0.00     0.000 A 
HETATM   31  C   UNL     1      37.108 -13.053  -2.607  1.00  0.00     0.001 A 
HETATM   32  C   UNL     1      37.993 -12.316  -1.817  1.00  0.00     0.009 A 
ENDBRANCH  26  27
ENDBRANCH   3  26
TORSDOF 7
ENDMDL
MODEL 3
REMARK VINA RESULT:      -8.6      3.401      8.159
REMARK  7 active torsions:
REMARK  status: ('A' for Active; 'I' for Inactive)
REMARK    1  A    between atoms: C_2  and  C_3 
REMARK    2  A    between atoms: C_6  and  C_7 
REMARK    3  A    between atoms: N_9  and  C_10 
REMARK    4  A    between atoms: C_10  and  C_11 
REMARK    5  A    between atoms: C_18  and  C_19 
REMARK       I    between atoms: C_19  and  N_20 
REMARK    6  A    between atoms: N_20  and  C_21 
REMARK    7  A    between atoms: C_24  and  O_25 
ROOT
HETATM    1  C   UNL     1      43.507 -13.310   6.434  1.00  0.00     0.104 A 
HETATM    2  N   UNL     1      44.558 -12.763   7.078  1.00  0.00    -0.171 NA
HETATM    3  N   UNL     1      44.352 -11.444   7.017  1.00  0.00    -0.275 N 
HETATM    4  C   UNL     1      43.222 -11.106   6.337  1.00  0.00     0.132 A 
HETATM    5  C   UNL     1      42.602 -12.292   5.973  1.00  0.00     0.080 A 
ENDROOT
BRANCH   5   6
HETATM    6  C   UNL     1      41.316 -12.427   5.286  1.00  0.00     0.255 C 
HETATM    7  N   UNL     1      41.414 -12.836   3.973  1.00  0.00    -0.352 N 
HETATM    8  H   UNL     1      42.342 -12.881   3.579  1.00  0.00     0.163 HD
HETATM    9  O   UNL     1      40.248 -12.186   5.829  1.00  0.00    -0.268 OA
BRANCH   7  10
HETATM   10  C   UNL     1      40.323 -13.047   3.023  1.00  0.00     0.084 C 
HETATM   11  C   UNL     1      40.377 -12.131   1.795  1.00  0.00     0.028 C 
HETATM   12  C   UNL     1      41.065 -12.723   0.566  1.00  0.00     0.034 C 
HETATM   13  C   UNL     1      40.606 -14.146   0.269  1.00  0.00     0.118 C 
HETATM   14  C   UNL     1      40.780 -15.062   1.476  1.00  0.00     0.034 C 
HETATM   15  C   UNL     1      40.061 -14.526   2.714  1.00  0.00     0.028 C 
BRANCH  13  16
HETATM   16  O   UNL     1      39.227 -14.110  -0.101  1.00  0.00    -0.396 OA
HETATM   17  H   UNL     1      39.031 -13.200  -0.386  1.00  0.00     0.210 HD
ENDBRANCH  13  16
ENDBRANCH   7  10
ENDBRANCH   5   6
BRANCH   1  18
HETATM   18  C   UNL     1      43.438 -14.769   6.337  1.00  0.00    -0.005 A 
HETATM   19  C   UNL     1      43.373 -15.535   7.511  1.00  0.00     0.014 A 
HETATM   20  C   UNL     1      43.374 -16.934   7.462  1.00  0.00     0.008 A 
HETATM   21  C   UNL     1      43.450 -17.604   6.237  1.00  0.00    -0.059 A 
HETATM   22  C   UNL     1      43.509 -16.834   5.064  1.00  0.00     0.008 A 
HETATM   23  C   UNL     1      43.514 -15.434   5.113  1.00  0.00     0.014 A 
BRANCH  21  24
HETATM   24  C   UNL     1      43.464 -19.110   6.107  1.00  0.00     0.034 C 
HETATM   25  C   UNL     1      44.194 -19.687   4.901  1.00  0.00     0.010 C 
ENDBRANCH  21  24
ENDBRANCH   1  18
BRANCH   3  26
HETATM   26  C   UNL     1      45.296 -10.533   7.659  1.00  0.00     0.189 C 
BRANCH  26  27
HETATM   27  C   UNL     1      44.649  -9.737   8.768  1.00  0.00    -0.038 A 
HETATM   28  C   UNL     1      44.218  -8.417   8.553  1.00  0.00     0.009 A 
HETATM   29  C   UNL     1      43.612  -7.691   9.578  1.00  0.00     0.001 A 
HETATM   30  C   UNL     1      43.414  -8.279  10.826  1.00  0.00     0.000 A 
HETATM   31  C   UNL     1      43.818  -9.595  11.047  1.00  0.00     0.001 A 
HETATM   32  C   UNL     1      44.429 -10.321  10.023  1.00  0.00     0.009 A 
ENDBRANCH  26  27
ENDBRANCH   3  26
TORSDOF 7
ENDMDL
MODEL 4
REMARK VINA RESULT:      -8.5      2.542      7.497
REMARK  7 active torsions:
REMARK  status: ('A' for Active; 'I' for Inactive)
REMARK    1  A    between atoms: C_2  and  C_3 
REMARK    2  A    between atoms: C_6  and  C_7 
REMARK    3  A    between atoms: N_9  and  C_10 
REMARK    4  A    between atoms: C_10  and  C_11 
REMARK    5  A    between atoms: C_18  and  C_19 
REMARK       I    between atoms: C_19  and  N_20 
REMARK    6  A    between atoms: N_20  and  C_21 
REMARK    7  A    between atoms: C_24  and  O_25 
ROOT
HETATM    1  C   UNL     1      41.974 -14.181   4.021  1.00  0.00     0.104 A 
HETATM    2  N   UNL     1      42.430 -13.476   5.075  1.00  0.00    -0.171 NA
HETATM    3  N   UNL     1      41.709 -12.350   5.076  1.00  0.00    -0.275 N 
HETATM    4  C   UNL     1      40.817 -12.281   4.050  1.00  0.00     0.132 A 
HETATM    5  C   UNL     1      40.913 -13.477   3.352  1.00  0.00     0.080 A 
ENDROOT
BRANCH   5   6
HETATM    6  C   UNL     1      40.095 -13.887   2.210  1.00  0.00     0.255 C 
HETATM    7  N   UNL     1      40.021 -12.952   1.200  1.00  0.00    -0.352 N 
HETATM    8  H   UNL     1      40.421 -12.045   1.390  1.00  0.00     0.163 HD
HETATM    9  O   UNL     1      39.518 -14.964   2.162  1.00  0.00    -0.268 OA
BRANCH   7  10
HETATM   10  C   UNL     1      39.277 -13.054  -0.054  1.00  0.00     0.084 C 
HETATM   11  C   UNL     1      38.432 -11.816  -0.384  1.00  0.00     0.028 C 
HETATM   12  C   UNL     1      39.103 -10.791  -1.297  1.00  0.00     0.034 C 
HETATM   13  C   UNL     1      39.773 -11.435  -2.505  1.00  0.00     0.118 C 
HETATM   14  C   UNL     1      40.765 -12.518  -2.094  1.00  0.00     0.034 C 
HETATM   15  C   UNL     1      40.117 -13.591  -1.220  1.00  0.00     0.028 C 
BRANCH  13  16
HETATM   16  O   UNL     1      38.760 -12.011  -3.331  1.00  0.00    -0.396 OA
HETATM   17  H   UNL     1      38.733 -12.962  -3.129  1.00  0.00     0.210 HD
ENDBRANCH  13  16
ENDBRANCH   7  10
ENDBRANCH   5   6
BRANCH   1  18
HETATM   18  C   UNL     1      42.571 -15.492   3.754  1.00  0.00    -0.005 A 
HETATM   19  C   UNL     1      42.830 -15.874   2.430  1.00  0.00     0.014 A 
HETATM   20  C   UNL     1      43.336 -17.145   2.131  1.00  0.00     0.008 A 
HETATM   21  C   UNL     1      43.588 -18.069   3.149  1.00  0.00    -0.059 A 
HETATM   22  C   UNL     1      43.333 -17.680   4.475  1.00  0.00     0.008 A 
HETATM   23  C   UNL     1      42.821 -16.411   4.774  1.00  0.00     0.014 A 
BRANCH  21  24
HETATM   24  C   UNL     1      44.126 -19.460   2.902  1.00  0.00     0.034 C 
HETATM   25  C   UNL     1      43.387 -20.309   1.874  1.00  0.00     0.010 C 
ENDBRANCH  21  24
ENDBRANCH   1  18
BRANCH   3  26
HETATM   26  C   UNL     1      41.919 -11.356   6.124  1.00  0.00     0.189 C 
BRANCH  26  27
HETATM   27  C   UNL     1      43.374 -11.239   6.511  1.00  0.00    -0.038 A 
HETATM   28  C   UNL     1      44.392 -11.423   5.560  1.00  0.00     0.009 A 
HETATM   29  C   UNL     1      45.734 -11.304   5.922  1.00  0.00     0.001 A 
HETATM   30  C   UNL     1      46.076 -10.983   7.234  1.00  0.00     0.000 A 
HETATM   31  C   UNL     1      45.076 -10.777   8.183  1.00  0.00     0.001 A 
HETATM   32  C   UNL     1      43.733 -10.902   7.824  1.00  0.00     0.009 A 
ENDBRANCH  26  27
ENDBRANCH   3  26
TORSDOF 7
ENDMDL
MODEL 5
REMARK VINA RESULT:      -8.4      4.005      7.320
REMARK  7 active torsions:
REMARK  status: ('A' for Active; 'I' for Inactive)
REMARK    1  A    between atoms: C_2  and  C_3 
REMARK    2  A    between atoms: C_6  and  C_7 
REMARK    3  A    between atoms: N_9  and  C_10 
REMARK    4  A    between atoms: C_10  and  C_11 
REMARK    5  A    between atoms: C_18  and  C_19 
REMARK       I    between atoms: C_19  and  N_20 
REMARK    6  A    between atoms: N_20  and  C_21 
REMARK    7  A    between atoms: C_24  and  O_25 
ROOT
HETATM    1  C   UNL     1      42.593 -13.844   4.844  1.00  0.00     0.104 A 
HETATM    2  N   UNL     1      43.183 -14.651   3.940  1.00  0.00    -0.171 NA
HETATM    3  N   UNL     1      42.188 -15.383   3.429  1.00  0.00    -0.275 N 
HETATM    4  C   UNL     1      40.975 -15.102   3.980  1.00  0.00     0.132 A 
HETATM    5  C   UNL     1      41.173 -14.066   4.881  1.00  0.00     0.080 A 
ENDROOT
BRANCH   5   6
HETATM    6  C   UNL     1      40.140 -13.382   5.661  1.00  0.00     0.255 C 
HETATM    7  N   UNL     1      39.922 -12.073   5.288  1.00  0.00    -0.352 N 
HETATM    8  H   UNL     1      40.564 -11.678   4.617  1.00  0.00     0.163 HD
HETATM    9  O   UNL     1      39.530 -13.924   6.571  1.00  0.00    -0.268 OA
BRANCH   7  10
HETATM   10  C   UNL     1      38.976 -11.126   5.877  1.00  0.00     0.084 C 
HETATM   11  C   UNL     1      39.392 -10.603   7.258  1.00  0.00     0.028 C 
HETATM   12  C   UNL     1      40.147  -9.275   7.254  1.00  0.00     0.034 C 
HETATM   13  C   UNL     1      39.489  -8.232   6.359  1.00  0.00     0.118 C 
HETATM   14  C   UNL     1      39.298  -8.744   4.935  1.00  0.00     0.034 C 
HETATM   15  C   UNL     1      38.501 -10.047   4.895  1.00  0.00     0.028 C 
BRANCH  13  16
HETATM   16  O   UNL     1      38.217  -7.895   6.915  1.00  0.00    -0.396 OA
HETATM   17  H   UNL     1      37.646  -7.621   6.176  1.00  0.00     0.210 HD
ENDBRANCH  13  16
ENDBRANCH   7  10
ENDBRANCH   5   6
BRANCH   1  18
HETATM   18  C   UNL     1      43.435 -12.898   5.581  1.00  0.00    -0.005 A 
HETATM   19  C   UNL     1      44.303 -12.054   4.874  1.00  0.00     0.014 A 
HETATM   20  C   UNL     1      45.172 -11.185   5.546  1.00  0.00     0.008 A 
HETATM   21  C   UNL     1      45.201 -11.147   6.942  1.00  0.00    -0.059 A 
HETATM   22  C   UNL     1      44.326 -11.990   7.647  1.00  0.00     0.008 A 
HETATM   23  C   UNL     1      43.461 -12.863   6.976  1.00  0.00     0.014 A 
BRANCH  21  24
HETATM   24  C   UNL     1      46.117 -10.242   7.735  1.00  0.00     0.034 C 
HETATM   25  C   UNL     1      45.471  -9.049   8.430  1.00  0.00     0.010 C 
ENDBRANCH  21  24
ENDBRANCH   1  18
BRANCH   3  26
HETATM   26  C   UNL     1      42.469 -16.353   2.375  1.00  0.00     0.189 C 
BRANCH  26  27
HETATM   27  C   UNL     1      43.009 -17.650   2.930  1.00  0.00    -0.038 A 
HETATM   28  C   UNL     1      43.029 -18.818   2.149  1.00  0.00     0.009 A 
HETATM   29  C   UNL     1      43.539 -20.010   2.664  1.00  0.00     0.001 A 
HETATM   30  C   UNL     1      44.051 -20.047   3.959  1.00  0.00     0.000 A 
HETATM   31  C   UNL     1      44.057 -18.891   4.738  1.00  0.00     0.001 A 
HETATM   32  C   UNL     1      43.542 -17.699   4.226  1.00  0.00     0.009 A 
ENDBRANCH  26  27
ENDBRANCH   3  26
TORSDOF 7
ENDMDL
MODEL 6
REMARK VINA RESULT:      -8.4      1.966      4.193
REMARK  7 active torsions:
REMARK  status: ('A' for Active; 'I' for Inactive)
REMARK    1  A    between atoms: C_2  and  C_3 
REMARK    2  A    between atoms: C_6  and  C_7 
REMARK    3  A    between atoms: N_9  and  C_10 
REMARK    4  A    between atoms: C_10  and  C_11 
REMARK    5  A    between atoms: C_18  and  C_19 
REMARK       I    between atoms: C_19  and  N_20 
REMARK    6  A    between atoms: N_20  and  C_21 
REMARK    7  A    between atoms: C_24  and  O_25 
ROOT
HETATM    1  C   UNL     1      41.770 -12.714   2.508  1.00  0.00     0.104 A 
HETATM    2  N   UNL     1      41.690 -11.870   1.460  1.00  0.00    -0.171 NA
HETATM    3  N   UNL     1      41.146 -12.592   0.475  1.00  0.00    -0.275 N 
HETATM    4  C   UNL     1      40.889 -13.881   0.831  1.00  0.00     0.132 A 
HETATM    5  C   UNL     1      41.234 -14.005   2.169  1.00  0.00     0.080 A 
ENDROOT
BRANCH   5   6
HETATM    6  C   UNL     1      41.063 -15.195   3.004  1.00  0.00     0.255 C 
HETATM    7  N   UNL     1      42.149 -15.489   3.802  1.00  0.00    -0.352 N 
HETATM    8  H   UNL     1      42.986 -14.947   3.648  1.00  0.00     0.163 HD
HETATM    9  O   UNL     1      40.047 -15.875   2.988  1.00  0.00    -0.268 OA
BRANCH   7  10
HETATM   10  C   UNL     1      42.294 -16.610   4.729  1.00  0.00     0.084 C 
HETATM   11  C   UNL     1      43.739 -17.097   4.899  1.00  0.00     0.028 C 
HETATM   12  C   UNL     1      44.494 -16.501   6.086  1.00  0.00     0.034 C 
HETATM   13  C   UNL     1      43.671 -16.514   7.368  1.00  0.00     0.118 C 
HETATM   14  C   UNL     1      42.325 -15.820   7.186  1.00  0.00     0.034 C 
HETATM   15  C   UNL     1      41.517 -16.424   6.038  1.00  0.00     0.028 C 
BRANCH  13  16
HETATM   16  O   UNL     1      43.454 -17.872   7.755  1.00  0.00    -0.396 OA
HETATM   17  H   UNL     1      43.976 -18.428   7.151  1.00  0.00     0.210 HD
ENDBRANCH  13  16
ENDBRANCH   7  10
ENDBRANCH   5   6
BRANCH   1  18
HETATM   18  C   UNL     1      42.325 -12.208   3.764  1.00  0.00    -0.005 A 
HETATM   19  C   UNL     1      43.700 -11.946   3.854  1.00  0.00     0.014 A 
HETATM   20  C   UNL     1      44.280 -11.526   5.057  1.00  0.00     0.008 A 
HETATM   21  C   UNL     1      43.499 -11.366   6.205  1.00  0.00    -0.059 A 
HETATM   22  C   UNL     1      42.121 -11.623   6.111  1.00  0.00     0.008 A 
HETATM   23  C   UNL     1      41.542 -12.049   4.909  1.00  0.00     0.014 A 
BRANCH  21  24
HETATM   24  C   UNL     1      44.055 -10.925   7.540  1.00  0.00     0.034 C 
HETATM   25  C   UNL     1      45.552 -10.646   7.601  1.00  0.00     0.010 C 
ENDBRANCH  21  24
ENDBRANCH   1  18
BRANCH   3  26
HETATM   26  C   UNL     1      40.878 -11.968  -0.817  1.00  0.00     0.189 C 
BRANCH  26  27
HETATM   27  C   UNL     1      39.777 -12.677  -1.571  1.00  0.00    -0.038 A 
HETATM   28  C   UNL     1      38.432 -12.305  -1.406  1.00  0.00     0.009 A 
HETATM   29  C   UNL     1      37.422 -12.957  -2.112  1.00  0.00     0.001 A 
HETATM   30  C   UNL     1      37.742 -13.977  -3.006  1.00  0.00     0.000 A 
HETATM   31  C   UNL     1      39.074 -14.343  -3.196  1.00  0.00     0.001 A 
HETATM   32  C   UNL     1      40.086 -13.695  -2.485  1.00  0.00     0.009 A 
ENDBRANCH  26  27
ENDBRANCH   3  26
TORSDOF 7
ENDMDL
MODEL 7
REMARK VINA RESULT:      -8.4      1.376      2.028
REMARK  7 active torsions:
REMARK  status: ('A' for Active; 'I' for Inactive)
REMARK    1  A    between atoms: C_2  and  C_3 
REMARK    2  A    between atoms: C_6  and  C_7 
REMARK    3  A    between atoms: N_9  and  C_10 
REMARK    4  A    between atoms: C_10  and  C_11 
REMARK    5  A    between atoms: C_18  and  C_19 
REMARK       I    between atoms: C_19  and  N_20 
REMARK    6  A    between atoms: N_20  and  C_21 
REMARK    7  A    between atoms: C_24  and  O_25 
ROOT
HETATM    1  C   UNL     1      40.245 -13.777   1.851  1.00  0.00     0.104 A 
HETATM    2  N   UNL     1      39.843 -13.357   0.634  1.00  0.00    -0.171 NA
HETATM    3  N   UNL     1      39.018 -12.333   0.877  1.00  0.00    -0.275 N 
HETATM    4  C   UNL     1      38.847 -12.083   2.205  1.00  0.00     0.132 A 
HETATM    5  C   UNL     1      39.666 -12.969   2.890  1.00  0.00     0.080 A 
ENDROOT
BRANCH   5   6
HETATM    6  C   UNL     1      39.868 -13.025   4.339  1.00  0.00     0.255 C 
HETATM    7  N   UNL     1      40.777 -13.976   4.749  1.00  0.00    -0.352 N 
HETATM    8  H   UNL     1      41.115 -14.615   4.045  1.00  0.00     0.163 HD
HETATM    9  O   UNL     1      39.273 -12.294   5.118  1.00  0.00    -0.268 OA
BRANCH   7  10
HETATM   10  C   UNL     1      41.183 -14.287   6.118  1.00  0.00     0.084 C 
HETATM   11  C   UNL     1      40.834 -15.713   6.566  1.00  0.00     0.028 C 
HETATM   12  C   UNL     1      41.950 -16.742   6.397  1.00  0.00     0.034 C 
HETATM   13  C   UNL     1      43.295 -16.235   6.905  1.00  0.00     0.118 C 
HETATM   14  C   UNL     1      43.684 -14.910   6.256  1.00  0.00     0.034 C 
HETATM   15  C   UNL     1      42.612 -13.839   6.448  1.00  0.00     0.028 C 
BRANCH  13  16
HETATM   16  O   UNL     1      43.209 -16.060   8.320  1.00  0.00    -0.396 OA
HETATM   17  H   UNL     1      44.092 -16.244   8.685  1.00  0.00     0.210 HD
ENDBRANCH  13  16
ENDBRANCH   7  10
ENDBRANCH   5   6
BRANCH   1  18
HETATM   18  C   UNL     1      41.180 -14.901   1.920  1.00  0.00    -0.005 A 
HETATM   19  C   UNL     1      40.690 -16.190   2.175  1.00  0.00     0.014 A 
HETATM   20  C   UNL     1      41.558 -17.280   2.316  1.00  0.00     0.008 A 
HETATM   21  C   UNL     1      42.941 -17.105   2.216  1.00  0.00    -0.059 A 
HETATM   22  C   UNL     1      43.429 -15.813   1.955  1.00  0.00     0.008 A 
HETATM   23  C   UNL     1      42.561 -14.723   1.819  1.00  0.00     0.014 A 
BRANCH  21  24
HETATM   24  C   UNL     1      43.939 -18.230   2.365  1.00  0.00     0.034 C 
HETATM   25  C   UNL     1      43.392 -19.650   2.272  1.00  0.00     0.010 C 
ENDBRANCH  21  24
ENDBRANCH   1  18
BRANCH   3  26
HETATM   26  C   UNL     1      38.418 -11.606  -0.237  1.00  0.00     0.189 C 
BRANCH  26  27
HETATM   27  C   UNL     1      39.450 -10.853  -1.043  1.00  0.00    -0.038 A 
HETATM   28  C   UNL     1      39.630 -11.114  -2.411  1.00  0.00     0.009 A 
HETATM   29  C   UNL     1      40.577 -10.408  -3.152  1.00  0.00     0.001 A 
HETATM   30  C   UNL     1      41.345  -9.419  -2.540  1.00  0.00     0.000 A 
HETATM   31  C   UNL     1      41.162  -9.134  -1.188  1.00  0.00     0.001 A 
HETATM   32  C   UNL     1      40.218  -9.844  -0.444  1.00  0.00     0.009 A 
ENDBRANCH  26  27
ENDBRANCH   3  26
TORSDOF 7
ENDMDL
MODEL 8
REMARK VINA RESULT:      -8.3      3.411      8.019
REMARK  7 active torsions:
REMARK  status: ('A' for Active; 'I' for Inactive)
REMARK    1  A    between atoms: C_2  and  C_3 
REMARK    2  A    between atoms: C_6  and  C_7 
REMARK    3  A    between atoms: N_9  and  C_10 
REMARK    4  A    between atoms: C_10  and  C_11 
REMARK    5  A    between atoms: C_18  and  C_19 
REMARK       I    between atoms: C_19  and  N_20 
REMARK    6  A    between atoms: N_20  and  C_21 
REMARK    7  A    between atoms: C_24  and  O_25 
ROOT
HETATM    1  C   UNL     1      43.372 -12.224   4.705  1.00  0.00     0.104 A 
HETATM    2  N   UNL     1      44.204 -11.245   5.113  1.00  0.00    -0.171 NA
HETATM    3  N   UNL     1      44.650 -11.646   6.308  1.00  0.00    -0.275 N 
HETATM    4  C   UNL     1      44.123 -12.837   6.707  1.00  0.00     0.132 A 
HETATM    5  C   UNL     1      43.314 -13.286   5.674  1.00  0.00     0.080 A 
ENDROOT
BRANCH   5   6
HETATM    6  C   UNL     1      42.595 -14.560   5.622  1.00  0.00     0.255 C 
HETATM    7  N   UNL     1      43.242 -15.549   4.913  1.00  0.00    -0.352 N 
HETATM    8  H   UNL     1      44.068 -15.275   4.401  1.00  0.00     0.163 HD
HETATM    9  O   UNL     1      41.508 -14.728   6.156  1.00  0.00    -0.268 OA
BRANCH   7  10
HETATM   10  C   UNL     1      42.782 -16.914   4.667  1.00  0.00     0.084 C 
HETATM   11  C   UNL     1      42.295 -17.162   3.233  1.00  0.00     0.028 C 
HETATM   12  C   UNL     1      43.340 -17.739   2.279  1.00  0.00     0.034 C 
HETATM   13  C   UNL     1      44.110 -18.903   2.892  1.00  0.00     0.118 C 
HETATM   14  C   UNL     1      44.752 -18.522   4.222  1.00  0.00     0.034 C 
HETATM   15  C   UNL     1      43.727 -17.987   5.222  1.00  0.00     0.028 C 
BRANCH  13  16
HETATM   16  O   UNL     1      43.205 -19.989   3.098  1.00  0.00    -0.396 OA
HETATM   17  H   UNL     1      42.893 -19.931   4.018  1.00  0.00     0.210 HD
ENDBRANCH  13  16
ENDBRANCH   7  10
ENDBRANCH   5   6
BRANCH   1  18
HETATM   18  C   UNL     1      42.720 -12.080   3.402  1.00  0.00    -0.005 A 
HETATM   19  C   UNL     1      42.353 -10.803   2.953  1.00  0.00     0.014 A 
HETATM   20  C   UNL     1      41.667 -10.631   1.745  1.00  0.00     0.008 A 
HETATM   21  C   UNL     1      41.322 -11.734   0.959  1.00  0.00    -0.059 A 
HETATM   22  C   UNL     1      41.696 -13.012   1.408  1.00  0.00     0.008 A 
HETATM   23  C   UNL     1      42.377 -13.184   2.620  1.00  0.00     0.014 A 
BRANCH  21  24
HETATM   24  C   UNL     1      40.575 -11.627  -0.351  1.00  0.00     0.034 C 
HETATM   25  C   UNL     1      40.412 -12.910  -1.156  1.00  0.00     0.010 C 
ENDBRANCH  21  24
ENDBRANCH   1  18
BRANCH   3  26
HETATM   26  C   UNL     1      45.617 -10.827   7.032  1.00  0.00     0.189 C 
BRANCH  26  27
HETATM   27  C   UNL     1      44.987 -10.113   8.205  1.00  0.00    -0.038 A 
HETATM   28  C   UNL     1      45.512 -10.251   9.501  1.00  0.00     0.009 A 
HETATM   29  C   UNL     1      44.932  -9.580  10.578  1.00  0.00     0.001 A 
HETATM   30  C   UNL     1      43.833  -8.750  10.372  1.00  0.00     0.000 A 
HETATM   31  C   UNL     1      43.314  -8.588   9.088  1.00  0.00     0.001 A 
HETATM   32  C   UNL     1      43.890  -9.263   8.010  1.00  0.00     0.009 A 
ENDBRANCH  26  27
ENDBRANCH   3  26
TORSDOF 7
ENDMDL
MODEL 9
REMARK VINA RESULT:      -8.2      2.973      7.023
REMARK  7 active torsions:
REMARK  status: ('A' for Active; 'I' for Inactive)
REMARK    1  A    between atoms: C_2  and  C_3 
REMARK    2  A    between atoms: C_6  and  C_7 
REMARK    3  A    between atoms: N_9  and  C_10 
REMARK    4  A    between atoms: C_10  and  C_11 
REMARK    5  A    between atoms: C_18  and  C_19 
REMARK       I    between atoms: C_19  and  N_20 
REMARK    6  A    between atoms: N_20  and  C_21 
REMARK    7  A    between atoms: C_24  and  O_25 
ROOT
HETATM    1  C   UNL     1      42.426 -13.833   3.457  1.00  0.00     0.104 A 
HETATM    2  N   UNL     1      43.156 -12.988   4.213  1.00  0.00    -0.171 NA
HETATM    3  N   UNL     1      42.526 -11.812   4.123  1.00  0.00    -0.275 N 
HETATM    4  C   UNL     1      41.427 -11.849   3.320  1.00  0.00     0.132 A 
HETATM    5  C   UNL     1      41.285 -13.162   2.893  1.00  0.00     0.080 A 
ENDROOT
BRANCH   5   6
HETATM    6  C   UNL     1      40.201 -13.696   2.068  1.00  0.00     0.255 C 
HETATM    7  N   UNL     1      40.140 -13.164   0.798  1.00  0.00    -0.352 N 
HETATM    8  H   UNL     1      40.751 -12.385   0.601  1.00  0.00     0.163 HD
HETATM    9  O   UNL     1      39.412 -14.537   2.476  1.00  0.00    -0.268 OA
BRANCH   7  10
HETATM   10  C   UNL     1      39.171 -13.477  -0.252  1.00  0.00     0.084 C 
HETATM   11  C   UNL     1      38.465 -12.247  -0.837  1.00  0.00     0.028 C 
HETATM   12  C   UNL     1      39.095 -11.673  -2.105  1.00  0.00     0.034 C 
HETATM   13  C   UNL     1      39.433 -12.750  -3.129  1.00  0.00     0.118 C 
HETATM   14  C   UNL     1      40.321 -13.839  -2.535  1.00  0.00     0.034 C 
HETATM   15  C   UNL     1      39.698 -14.474  -1.291  1.00  0.00     0.028 C 
BRANCH  13  16
HETATM   16  O   UNL     1      38.215 -13.335  -3.592  1.00  0.00    -0.396 OA
HETATM   17  H   UNL     1      37.603 -12.604  -3.787  1.00  0.00     0.210 HD
ENDBRANCH  13  16
ENDBRANCH   7  10
ENDBRANCH   5   6
BRANCH   1  18
HETATM   18  C   UNL     1      42.862 -15.227   3.360  1.00  0.00    -0.005 A 
HETATM   19  C   UNL     1      42.880 -15.857   2.108  1.00  0.00     0.014 A 
HETATM   20  C   UNL     1      43.226 -17.209   1.983  1.00  0.00     0.008 A 
HETATM   21  C   UNL     1      43.552 -17.967   3.111  1.00  0.00    -0.059 A 
HETATM   22  C   UNL     1      43.537 -17.331   4.364  1.00  0.00     0.008 A 
HETATM   23  C   UNL     1      43.186 -15.981   4.489  1.00  0.00     0.014 A 
BRANCH  21  24
HETATM   24  C   UNL     1      43.925 -19.431   3.056  1.00  0.00     0.034 C 
HETATM   25  C   UNL     1      43.417 -20.224   1.858  1.00  0.00     0.010 C 
ENDBRANCH  21  24
ENDBRANCH   1  18
BRANCH   3  26
HETATM   26  C   UNL     1      43.034 -10.660   4.862  1.00  0.00     0.189 C 
BRANCH  26  27
HETATM   27  C   UNL     1      41.926  -9.886   5.536  1.00  0.00    -0.038 A 
HETATM   28  C   UNL     1      41.426  -8.701   4.973  1.00  0.00     0.009 A 
HETATM   29  C   UNL     1      40.395  -7.996   5.595  1.00  0.00     0.001 A 
HETATM   30  C   UNL     1      39.839  -8.476   6.779  1.00  0.00     0.000 A 
HETATM   31  C   UNL     1      40.311  -9.662   7.339  1.00  0.00     0.001 A 
HETATM   32  C   UNL     1      41.346 -10.365   6.720  1.00  0.00     0.009 A 
ENDBRANCH  26  27
ENDBRANCH   3  26
TORSDOF 7
ENDMDL
MODEL 10
REMARK VINA RESULT:      -8.2      3.061      8.187
REMARK  7 active torsions:
REMARK  status: ('A' for Active; 'I' for Inactive)
REMARK    1  A    between atoms: C_2  and  C_3 
REMARK    2  A    between atoms: C_6  and  C_7 
REMARK    3  A    between atoms: N_9  and  C_10 
REMARK    4  A    between atoms: C_10  and  C_11 
REMARK    5  A    between atoms: C_18  and  C_19 
REMARK       I    between atoms: C_19  and  N_20 
REMARK    6  A    between atoms: N_20  and  C_21 
REMARK    7  A    between atoms: C_24  and  O_25 
ROOT
HETATM    1  C   UNL     1      42.817 -12.875   5.318  1.00  0.00     0.104 A 
HETATM    2  N   UNL     1      42.524 -14.099   5.801  1.00  0.00    -0.171 NA
HETATM    3  N   UNL     1      41.928 -14.737   4.789  1.00  0.00    -0.275 N 
HETATM    4  C   UNL     1      41.797 -13.971   3.671  1.00  0.00     0.132 A 
HETATM    5  C   UNL     1      42.406 -12.754   3.944  1.00  0.00     0.080 A 
ENDROOT
BRANCH   5   6
HETATM    6  C   UNL     1      42.576 -11.638   3.013  1.00  0.00     0.255 C 
HETATM    7  N   UNL     1      41.598 -11.551   2.046  1.00  0.00    -0.352 N 
HETATM    8  H   UNL     1      40.945 -12.318   1.991  1.00  0.00     0.163 HD
HETATM    9  O   UNL     1      43.513 -10.854   3.084  1.00  0.00    -0.268 OA
BRANCH   7  10
HETATM   10  C   UNL     1      41.495 -10.567   0.970  1.00  0.00     0.084 C 
HETATM   11  C   UNL     1      41.034 -11.151  -0.371  1.00  0.00     0.028 C 
HETATM   12  C   UNL     1      39.534 -11.056  -0.644  1.00  0.00     0.034 C 
HETATM   13  C   UNL     1      38.969  -9.675  -0.332  1.00  0.00     0.118 C 
HETATM   14  C   UNL     1      39.283  -9.243   1.096  1.00  0.00     0.034 C 
HETATM   15  C   UNL     1      40.782  -9.276   1.391  1.00  0.00     0.028 C 
BRANCH  13  16
HETATM   16  O   UNL     1      39.538  -8.735  -1.246  1.00  0.00    -0.396 OA
HETATM   17  H   UNL     1      39.501  -7.862  -0.818  1.00  0.00     0.210 HD
ENDBRANCH  13  16
ENDBRANCH   7  10
ENDBRANCH   5   6
BRANCH   1  18
HETATM   18  C   UNL     1      43.497 -11.926   6.201  1.00  0.00    -0.005 A 
HETATM   19  C   UNL     1      44.850 -12.122   6.512  1.00  0.00     0.014 A 
HETATM   20  C   UNL     1      45.517 -11.276   7.406  1.00  0.00     0.008 A 
HETATM   21  C   UNL     1      44.842 -10.217   8.021  1.00  0.00    -0.059 A 
HETATM   22  C   UNL     1      43.488 -10.021   7.705  1.00  0.00     0.008 A 
HETATM   23  C   UNL     1      42.820 -10.871   6.814  1.00  0.00     0.014 A 
BRANCH  21  24
HETATM   24  C   UNL     1      45.493  -9.269   9.003  1.00  0.00     0.034 C 
HETATM   25  C   UNL     1      45.310  -9.582  10.483  1.00  0.00     0.010 C 
ENDBRANCH  21  24
ENDBRANCH   1  18
BRANCH   3  26
HETATM   26  C   UNL     1      41.504 -16.124   4.956  1.00  0.00     0.189 C 
BRANCH  26  27
HETATM   27  C   UNL     1      42.439 -17.089   4.265  1.00  0.00    -0.038 A 
HETATM   28  C   UNL     1      42.271 -17.412   2.908  1.00  0.00     0.009 A 
HETATM   29  C   UNL     1      43.144 -18.296   2.273  1.00  0.00     0.001 A 
HETATM   30  C   UNL     1      44.207 -18.854   2.981  1.00  0.00     0.000 A 
HETATM   31  C   UNL     1      44.399 -18.526   4.322  1.00  0.00     0.001 A 
HETATM   32  C   UNL     1      43.522 -17.646   4.960  1.00  0.00     0.009 A 
ENDBRANCH  26  27
ENDBRANCH   3  26
TORSDOF 7
ENDMDL
