MODEL 1
REMARK VINA RESULT:      -7.8      0.000      0.000
REMARK  6 active torsions:
REMARK  status: ('A' for Active; 'I' for Inactive)
REMARK    1  A    between atoms: C_2  and  N_3 
REMARK    2  A    between atoms: C_2  and  C_25 
REMARK    3  A    between atoms: C_7  and  N_8 
REMARK       I    between atoms: N_8  and  C_9 
REMARK       I    between atoms: C_9  and  N_10 
REMARK    4  A    between atoms: N_10  and  C_11 
REMARK    5  A    between atoms: C_11  and  C_12 
REMARK    6  A    between atoms: C_20  and  O_21 
ROOT
HETATM    1  N   UNL     1      42.789 -12.176   5.860  1.00  0.00    -0.293 N 
HETATM    2  C   UNL     1      43.430 -13.049   6.758  1.00  0.00     0.322 C 
HETATM    3  N   UNL     1      42.802 -14.204   7.101  1.00  0.00    -0.337 N 
HETATM    4  O   UNL     1      44.550 -12.696   7.081  1.00  0.00    -0.247 OA
HETATM    5  H   UNL     1      43.418 -11.427   5.602  1.00  0.00     0.172 HD
HETATM    6  H   UNL     1      41.992 -14.441   6.558  1.00  0.00     0.164 HD
ENDROOT
BRANCH   3   7
HETATM    7  C   UNL     1      43.559 -15.360   7.541  1.00  0.00     0.181 C 
BRANCH   7   8
HETATM    8  C   UNL     1      43.410 -16.589   6.711  1.00  0.00     0.028 A 
HETATM    9  N   UNL     1      43.308 -17.861   7.228  1.00  0.00    -0.357 N 
HETATM   10  H   UNL     1      43.271 -18.083   8.215  1.00  0.00     0.166 HD
HETATM   11  C   UNL     1      43.452 -18.809   6.247  1.00  0.00     0.043 A 
HETATM   12  C   UNL     1      43.605 -18.132   5.043  1.00  0.00    -0.005 A 
HETATM   13  C   UNL     1      43.493 -20.203   6.347  1.00  0.00     0.033 A 
HETATM   14  C   UNL     1      43.520 -16.740   5.337  1.00  0.00     0.040 A 
HETATM   15  C   UNL     1      43.847 -18.884   3.877  1.00  0.00     0.050 A 
HETATM   16  C   UNL     1      43.955 -20.280   3.960  1.00  0.00     0.069 A 
HETATM   17  C   UNL     1      43.752 -20.928   5.179  1.00  0.00     0.039 A 
BRANCH  16  18
HETATM   18  O   UNL     1      44.261 -20.905   2.779  1.00  0.00    -0.356 OA
HETATM   19  C   UNL     1      43.562 -20.440   1.629  1.00  0.00     0.210 C 
ENDBRANCH  16  18
ENDBRANCH   7   8
ENDBRANCH   3   7
BRANCH   1  20
HETATM   20  C   UNL     1      41.546 -12.197   5.267  1.00  0.00     0.129 A 
HETATM   21  N   UNL     1      41.186 -12.993   4.195  1.00  0.00    -0.249 N 
HETATM   22  N   UNL     1      39.911 -12.791   3.803  1.00  0.00    -0.183 NA
HETATM   23  C   UNL     1      39.469 -11.826   4.609  1.00  0.00     0.142 A 
HETATM   24  C   UNL     1      40.445 -11.415   5.537  1.00  0.00     0.071 A 
BRANCH  21  25
HETATM   25  C   UNL     1      41.955 -14.047   3.521  1.00  0.00     0.111 C 
HETATM   26  C   UNL     1      43.120 -13.509   2.680  1.00  0.00     0.035 C 
BRANCH  25  27
HETATM   27  C   UNL     1      41.045 -15.082   2.798  1.00  0.00     0.002 C 
HETATM   28  C   UNL     1      41.685 -15.756   1.581  1.00  0.00     0.011 C 
HETATM   29  C   UNL     1      40.544 -16.164   3.762  1.00  0.00     0.011 C 
ENDBRANCH  25  27
ENDBRANCH  21  25
ENDBRANCH   1  20
TORSDOF 6
ENDMDL
MODEL 2
REMARK VINA RESULT:      -7.7      3.292      5.824
REMARK  6 active torsions:
REMARK  status: ('A' for Active; 'I' for Inactive)
REMARK    1  A    between atoms: C_2  and  N_3 
REMARK    2  A    between atoms: C_2  and  C_25 
REMARK    3  A    between atoms: C_7  and  N_8 
REMARK       I    between atoms: N_8  and  C_9 
REMARK       I    between atoms: C_9  and  N_10 
REMARK    4  A    between atoms: N_10  and  C_11 
REMARK    5  A    between atoms: C_11  and  C_12 
REMARK    6  A    between atoms: C_20  and  O_21 
ROOT
HETATM    1  N   UNL     1      42.509 -10.890   7.311  1.00  0.00    -0.293 N 
HETATM    2  C   UNL     1      41.788 -11.362   6.199  1.00  0.00     0.322 C 
HETATM    3  N   UNL     1      42.478 -11.863   5.141  1.00  0.00    -0.337 N 
HETATM    4  O   UNL     1      40.578 -11.337   6.343  1.00  0.00    -0.247 OA
HETATM    5  H   UNL     1      41.871 -10.665   8.064  1.00  0.00     0.172 HD
HETATM    6  H   UNL     1      43.458 -12.021   5.293  1.00  0.00     0.164 HD
ENDROOT
BRANCH   3   7
HETATM    7  C   UNL     1      41.870 -12.828   4.246  1.00  0.00     0.181 C 
BRANCH   7   8
HETATM    8  C   UNL     1      42.591 -14.125   4.101  1.00  0.00     0.028 A 
HETATM    9  N   UNL     1      42.657 -14.843   2.929  1.00  0.00    -0.357 N 
HETATM   10  H   UNL     1      42.271 -14.541   2.042  1.00  0.00     0.166 HD
HETATM   11  C   UNL     1      43.145 -16.107   3.146  1.00  0.00     0.043 A 
HETATM   12  C   UNL     1      43.452 -16.199   4.499  1.00  0.00    -0.005 A 
HETATM   13  C   UNL     1      43.298 -17.174   2.256  1.00  0.00     0.033 A 
HETATM   14  C   UNL     1      43.154 -14.931   5.078  1.00  0.00     0.040 A 
HETATM   15  C   UNL     1      43.907 -17.434   5.001  1.00  0.00     0.050 A 
HETATM   16  C   UNL     1      44.011 -18.537   4.140  1.00  0.00     0.069 A 
HETATM   17  C   UNL     1      43.735 -18.395   2.781  1.00  0.00     0.039 A 
BRANCH  16  18
HETATM   18  O   UNL     1      44.395 -19.705   4.747  1.00  0.00    -0.356 OA
HETATM   19  C   UNL     1      43.924 -20.906   4.144  1.00  0.00     0.210 C 
ENDBRANCH  16  18
ENDBRANCH   7   8
ENDBRANCH   3   7
BRANCH   1  20
HETATM   20  C   UNL     1      43.857 -10.744   7.553  1.00  0.00     0.129 A 
HETATM   21  N   UNL     1      44.414  -9.864   8.463  1.00  0.00    -0.249 N 
HETATM   22  N   UNL     1      45.762  -9.915   8.477  1.00  0.00    -0.183 NA
HETATM   23  C   UNL     1      46.066 -10.809   7.536  1.00  0.00     0.142 A 
HETATM   24  C   UNL     1      44.921 -11.354   6.925  1.00  0.00     0.071 A 
BRANCH  21  25
HETATM   25  C   UNL     1      43.749  -8.988   9.435  1.00  0.00     0.111 C 
HETATM   26  C   UNL     1      43.820  -7.500   9.065  1.00  0.00     0.035 C 
BRANCH  25  27
HETATM   27  C   UNL     1      44.140  -9.318  10.905  1.00  0.00     0.002 C 
HETATM   28  C   UNL     1      43.548  -8.371  11.953  1.00  0.00     0.011 C 
HETATM   29  C   UNL     1      43.778 -10.761  11.274  1.00  0.00     0.011 C 
ENDBRANCH  25  27
ENDBRANCH  21  25
ENDBRANCH   1  20
TORSDOF 6
ENDMDL
MODEL 3
REMARK VINA RESULT:      -7.4      4.613      6.214
REMARK  6 active torsions:
REMARK  status: ('A' for Active; 'I' for Inactive)
REMARK    1  A    between atoms: C_2  and  N_3 
REMARK    2  A    between atoms: C_2  and  C_25 
REMARK    3  A    between atoms: C_7  and  N_8 
REMARK       I    between atoms: N_8  and  C_9 
REMARK       I    between atoms: C_9  and  N_10 
REMARK    4  A    between atoms: N_10  and  C_11 
REMARK    5  A    between atoms: C_11  and  C_12 
REMARK    6  A    between atoms: C_20  and  O_21 
ROOT
HETATM    1  N   UNL     1      40.639 -13.222  -0.879  1.00  0.00    -0.293 N 
HETATM    2  C   UNL     1      40.635 -13.036   0.515  1.00  0.00     0.322 C 
HETATM    3  N   UNL     1      39.519 -13.375   1.213  1.00  0.00    -0.337 N 
HETATM    4  O   UNL     1      41.697 -12.648   0.969  1.00  0.00    -0.247 OA
HETATM    5  H   UNL     1      41.566 -13.047  -1.246  1.00  0.00     0.172 HD
HETATM    6  H   UNL     1      38.827 -13.898   0.707  1.00  0.00     0.164 HD
ENDROOT
BRANCH   3   7
HETATM    7  C   UNL     1      39.600 -13.734   2.616  1.00  0.00     0.181 C 
BRANCH   7   8
HETATM    8  C   UNL     1      40.422 -14.936   2.934  1.00  0.00     0.028 A 
HETATM    9  N   UNL     1      41.237 -15.042   4.038  1.00  0.00    -0.357 N 
HETATM   10  H   UNL     1      41.319 -14.343   4.767  1.00  0.00     0.166 HD
HETATM   11  C   UNL     1      42.070 -16.128   3.939  1.00  0.00     0.043 A 
HETATM   12  C   UNL     1      41.754 -16.778   2.752  1.00  0.00    -0.005 A 
HETATM   13  C   UNL     1      43.094 -16.553   4.790  1.00  0.00     0.033 A 
HETATM   14  C   UNL     1      40.680 -16.055   2.157  1.00  0.00     0.040 A 
HETATM   15  C   UNL     1      42.523 -17.896   2.374  1.00  0.00     0.050 A 
HETATM   16  C   UNL     1      43.596 -18.305   3.180  1.00  0.00     0.069 A 
HETATM   17  C   UNL     1      43.856 -17.655   4.386  1.00  0.00     0.039 A 
BRANCH  16  18
HETATM   18  O   UNL     1      44.319 -19.358   2.683  1.00  0.00    -0.356 OA
HETATM   19  C   UNL     1      43.577 -20.345   1.973  1.00  0.00     0.210 C 
ENDBRANCH  16  18
ENDBRANCH   7   8
ENDBRANCH   3   7
BRANCH   1  20
HETATM   20  C   UNL     1      39.668 -13.631  -1.768  1.00  0.00     0.129 A 
HETATM   21  N   UNL     1      38.683 -12.820  -2.302  1.00  0.00    -0.249 N 
HETATM   22  N   UNL     1      37.852 -13.490  -3.127  1.00  0.00    -0.183 NA
HETATM   23  C   UNL     1      38.290 -14.748  -3.084  1.00  0.00     0.142 A 
HETATM   24  C   UNL     1      39.415 -14.895  -2.251  1.00  0.00     0.071 A 
BRANCH  21  25
HETATM   25  C   UNL     1      38.494 -11.371  -2.161  1.00  0.00     0.111 C 
HETATM   26  C   UNL     1      37.069 -10.980  -1.744  1.00  0.00     0.035 C 
BRANCH  25  27
HETATM   27  C   UNL     1      39.067 -10.573  -3.367  1.00  0.00     0.002 C 
HETATM   28  C   UNL     1      38.258  -9.332  -3.756  1.00  0.00     0.011 C 
HETATM   29  C   UNL     1      40.525 -10.163  -3.130  1.00  0.00     0.011 C 
ENDBRANCH  25  27
ENDBRANCH  21  25
ENDBRANCH   1  20
TORSDOF 6
ENDMDL
MODEL 4
REMARK VINA RESULT:      -7.4      3.538      6.685
REMARK  6 active torsions:
REMARK  status: ('A' for Active; 'I' for Inactive)
REMARK    1  A    between atoms: C_2  and  N_3 
REMARK    2  A    between atoms: C_2  and  C_25 
REMARK    3  A    between atoms: C_7  and  N_8 
REMARK       I    between atoms: N_8  and  C_9 
REMARK       I    between atoms: C_9  and  N_10 
REMARK    4  A    between atoms: N_10  and  C_11 
REMARK    5  A    between atoms: C_11  and  C_12 
REMARK    6  A    between atoms: C_20  and  O_21 
ROOT
HETATM    1  N   UNL     1      40.891 -14.365   6.274  1.00  0.00    -0.293 N 
HETATM    2  C   UNL     1      40.344 -13.231   5.646  1.00  0.00     0.322 C 
HETATM    3  N   UNL     1      41.099 -12.567   4.732  1.00  0.00    -0.337 N 
HETATM    4  O   UNL     1      39.185 -13.006   5.947  1.00  0.00    -0.247 OA
HETATM    5  H   UNL     1      40.182 -14.825   6.830  1.00  0.00     0.172 HD
HETATM    6  H   UNL     1      41.940 -13.030   4.437  1.00  0.00     0.164 HD
ENDROOT
BRANCH   3   7
HETATM    7  C   UNL     1      40.477 -11.781   3.684  1.00  0.00     0.181 C 
BRANCH   7   8
HETATM    8  C   UNL     1      40.627 -12.310   2.298  1.00  0.00     0.028 A 
HETATM    9  N   UNL     1      41.119 -11.576   1.242  1.00  0.00    -0.357 N 
HETATM   10  H   UNL     1      41.474 -10.630   1.310  1.00  0.00     0.166 HD
HETATM   11  C   UNL     1      40.897 -12.213   0.047  1.00  0.00     0.043 A 
HETATM   12  C   UNL     1      40.282 -13.425   0.339  1.00  0.00    -0.005 A 
HETATM   13  C   UNL     1      41.161 -11.788  -1.257  1.00  0.00     0.033 A 
HETATM   14  C   UNL     1      40.169 -13.501   1.758  1.00  0.00     0.040 A 
HETATM   15  C   UNL     1      39.877 -14.246  -0.731  1.00  0.00     0.050 A 
HETATM   16  C   UNL     1      40.075 -13.814  -2.052  1.00  0.00     0.069 A 
HETATM   17  C   UNL     1      40.734 -12.611  -2.305  1.00  0.00     0.039 A 
BRANCH  16  18
HETATM   18  O   UNL     1      39.580 -14.657  -3.012  1.00  0.00    -0.356 OA
HETATM   19  C   UNL     1      38.217 -14.458  -3.375  1.00  0.00     0.210 C 
ENDBRANCH  16  18
ENDBRANCH   7   8
ENDBRANCH   3   7
BRANCH   1  20
HETATM   20  C   UNL     1      42.137 -14.950   6.219  1.00  0.00     0.129 A 
HETATM   21  N   UNL     1      42.657 -15.620   5.126  1.00  0.00    -0.249 N 
HETATM   22  N   UNL     1      43.891 -16.114   5.359  1.00  0.00    -0.183 NA
HETATM   23  C   UNL     1      44.140 -15.789   6.627  1.00  0.00     0.142 A 
HETATM   24  C   UNL     1      43.082 -15.069   7.213  1.00  0.00     0.071 A 
BRANCH  21  25
HETATM   25  C   UNL     1      42.097 -15.773   3.777  1.00  0.00     0.111 C 
HETATM   26  C   UNL     1      40.686 -16.376   3.768  1.00  0.00     0.035 C 
BRANCH  25  27
HETATM   27  C   UNL     1      43.099 -16.432   2.785  1.00  0.00     0.002 C 
HETATM   28  C   UNL     1      42.744 -17.864   2.374  1.00  0.00     0.011 C 
HETATM   29  C   UNL     1      43.283 -15.582   1.523  1.00  0.00     0.011 C 
ENDBRANCH  25  27
ENDBRANCH  21  25
ENDBRANCH   1  20
TORSDOF 6
ENDMDL
MODEL 5
REMARK VINA RESULT:      -7.3      2.576      6.364
REMARK  6 active torsions:
REMARK  status: ('A' for Active; 'I' for Inactive)
REMARK    1  A    between atoms: C_2  and  N_3 
REMARK    2  A    between atoms: C_2  and  C_25 
REMARK    3  A    between atoms: C_7  and  N_8 
REMARK       I    between atoms: N_8  and  C_9 
REMARK       I    between atoms: C_9  and  N_10 
REMARK    4  A    between atoms: N_10  and  C_11 
REMARK    5  A    between atoms: C_11  and  C_12 
REMARK    6  A    between atoms: C_20  and  O_21 
ROOT
HETATM    1  N   UNL     1      43.080 -17.198   6.512  1.00  0.00    -0.293 N 
HETATM    2  C   UNL     1      43.319 -15.907   7.019  1.00  0.00     0.322 C 
HETATM    3  N   UNL     1      43.925 -14.996   6.215  1.00  0.00    -0.337 N 
HETATM    4  O   UNL     1      42.872 -15.720   8.137  1.00  0.00    -0.247 OA
HETATM    5  H   UNL     1      42.517 -17.725   7.168  1.00  0.00     0.172 HD
HETATM    6  H   UNL     1      44.011 -15.252   5.248  1.00  0.00     0.164 HD
ENDROOT
BRANCH   3   7
HETATM    7  C   UNL     1      43.724 -13.574   6.418  1.00  0.00     0.181 C 
BRANCH   7   8
HETATM    8  C   UNL     1      42.786 -12.908   5.469  1.00  0.00     0.028 A 
HETATM    9  N   UNL     1      41.416 -13.027   5.528  1.00  0.00    -0.357 N 
HETATM   10  H   UNL     1      40.909 -13.530   6.246  1.00  0.00     0.166 HD
HETATM   11  C   UNL     1      40.825 -12.539   4.390  1.00  0.00     0.043 A 
HETATM   12  C   UNL     1      41.841 -12.042   3.583  1.00  0.00    -0.005 A 
HETATM   13  C   UNL     1      39.480 -12.538   4.009  1.00  0.00     0.033 A 
HETATM   14  C   UNL     1      43.063 -12.227   4.294  1.00  0.00     0.040 A 
HETATM   15  C   UNL     1      41.503 -11.546   2.309  1.00  0.00     0.050 A 
HETATM   16  C   UNL     1      40.169 -11.590   1.878  1.00  0.00     0.069 A 
HETATM   17  C   UNL     1      39.170 -12.056   2.733  1.00  0.00     0.039 A 
BRANCH  16  18
HETATM   18  O   UNL     1      39.964 -11.146   0.597  1.00  0.00    -0.356 OA
HETATM   19  C   UNL     1      39.137 -11.968  -0.222  1.00  0.00     0.210 C 
ENDBRANCH  16  18
ENDBRANCH   7   8
ENDBRANCH   3   7
BRANCH   1  20
HETATM   20  C   UNL     1      43.414 -17.809   5.324  1.00  0.00     0.129 A 
HETATM   21  N   UNL     1      42.966 -17.422   4.074  1.00  0.00    -0.249 N 
HETATM   22  N   UNL     1      43.434 -18.214   3.088  1.00  0.00    -0.183 NA
HETATM   23  C   UNL     1      44.153 -19.140   3.722  1.00  0.00     0.142 A 
HETATM   24  C   UNL     1      44.171 -18.940   5.116  1.00  0.00     0.071 A 
BRANCH  21  25
HETATM   25  C   UNL     1      42.159 -16.255   3.696  1.00  0.00     0.111 C 
HETATM   26  C   UNL     1      40.728 -16.300   4.249  1.00  0.00     0.035 C 
BRANCH  25  27
HETATM   27  C   UNL     1      42.267 -15.918   2.181  1.00  0.00     0.002 C 
HETATM   28  C   UNL     1      40.996 -15.326   1.565  1.00  0.00     0.011 C 
HETATM   29  C   UNL     1      43.445 -14.979   1.895  1.00  0.00     0.011 C 
ENDBRANCH  25  27
ENDBRANCH  21  25
ENDBRANCH   1  20
TORSDOF 6
ENDMDL
MODEL 6
REMARK VINA RESULT:      -7.2      4.529      6.006
REMARK  6 active torsions:
REMARK  status: ('A' for Active; 'I' for Inactive)
REMARK    1  A    between atoms: C_2  and  N_3 
REMARK    2  A    between atoms: C_2  and  C_25 
REMARK    3  A    between atoms: C_7  and  N_8 
REMARK       I    between atoms: N_8  and  C_9 
REMARK       I    between atoms: C_9  and  N_10 
REMARK    4  A    between atoms: N_10  and  C_11 
REMARK    5  A    between atoms: C_11  and  C_12 
REMARK    6  A    between atoms: C_20  and  O_21 
ROOT
HETATM    1  N   UNL     1      38.868 -12.735   0.124  1.00  0.00    -0.293 N 
HETATM    2  C   UNL     1      39.571 -12.945   1.325  1.00  0.00     0.322 C 
HETATM    3  N   UNL     1      40.699 -13.702   1.293  1.00  0.00    -0.337 N 
HETATM    4  O   UNL     1      39.116 -12.341   2.280  1.00  0.00    -0.247 OA
HETATM    5  H   UNL     1      38.129 -12.059   0.273  1.00  0.00     0.172 HD
HETATM    6  H   UNL     1      41.053 -13.924   0.380  1.00  0.00     0.164 HD
ENDROOT
BRANCH   3   7
HETATM    7  C   UNL     1      41.739 -13.528   2.289  1.00  0.00     0.181 C 
BRANCH   7   8
HETATM    8  C   UNL     1      42.490 -14.760   2.666  1.00  0.00     0.028 A 
HETATM    9  N   UNL     1      42.647 -15.850   1.840  1.00  0.00    -0.357 N 
HETATM   10  H   UNL     1      42.318 -15.904   0.884  1.00  0.00     0.166 HD
HETATM   11  C   UNL     1      43.139 -16.930   2.529  1.00  0.00     0.043 A 
HETATM   12  C   UNL     1      43.354 -16.515   3.838  1.00  0.00    -0.005 A 
HETATM   13  C   UNL     1      43.371 -18.239   2.098  1.00  0.00     0.033 A 
HETATM   14  C   UNL     1      42.997 -15.136   3.900  1.00  0.00     0.040 A 
HETATM   15  C   UNL     1      43.794 -17.466   4.780  1.00  0.00     0.050 A 
HETATM   16  C   UNL     1      43.974 -18.801   4.386  1.00  0.00     0.069 A 
HETATM   17  C   UNL     1      43.790 -19.170   3.054  1.00  0.00     0.039 A 
BRANCH  16  18
HETATM   18  O   UNL     1      44.335 -19.654   5.396  1.00  0.00    -0.356 OA
HETATM   19  C   UNL     1      43.928 -21.010   5.242  1.00  0.00     0.210 C 
ENDBRANCH  16  18
ENDBRANCH   7   8
ENDBRANCH   3   7
BRANCH   1  20
HETATM   20  C   UNL     1      39.039 -13.221  -1.153  1.00  0.00     0.129 A 
HETATM   21  N   UNL     1      39.200 -12.446  -2.287  1.00  0.00    -0.249 N 
HETATM   22  N   UNL     1      39.323 -13.186  -3.408  1.00  0.00    -0.183 NA
HETATM   23  C   UNL     1      39.198 -14.444  -2.987  1.00  0.00     0.142 A 
HETATM   24  C   UNL     1      39.014 -14.526  -1.593  1.00  0.00     0.071 A 
BRANCH  21  25
HETATM   25  C   UNL     1      39.340 -10.989  -2.405  1.00  0.00     0.111 C 
HETATM   26  C   UNL     1      38.216 -10.333  -3.220  1.00  0.00     0.035 C 
BRANCH  25  27
HETATM   27  C   UNL     1      40.780 -10.556  -2.805  1.00  0.00     0.002 C 
HETATM   28  C   UNL     1      40.845  -9.408  -3.816  1.00  0.00     0.011 C 
HETATM   29  C   UNL     1      41.619 -10.188  -1.576  1.00  0.00     0.011 C 
ENDBRANCH  25  27
ENDBRANCH  21  25
ENDBRANCH   1  20
TORSDOF 6
ENDMDL
MODEL 7
REMARK VINA RESULT:      -7.1      3.833      5.045
REMARK  6 active torsions:
REMARK  status: ('A' for Active; 'I' for Inactive)
REMARK    1  A    between atoms: C_2  and  N_3 
REMARK    2  A    between atoms: C_2  and  C_25 
REMARK    3  A    between atoms: C_7  and  N_8 
REMARK       I    between atoms: N_8  and  C_9 
REMARK       I    between atoms: C_9  and  N_10 
REMARK    4  A    between atoms: N_10  and  C_11 
REMARK    5  A    between atoms: C_11  and  C_12 
REMARK    6  A    between atoms: C_20  and  O_21 
ROOT
HETATM    1  N   UNL     1      39.027 -12.797   1.253  1.00  0.00    -0.293 N 
HETATM    2  C   UNL     1      40.007 -13.312   2.121  1.00  0.00     0.322 C 
HETATM    3  N   UNL     1      41.208 -12.682   2.191  1.00  0.00    -0.337 N 
HETATM    4  O   UNL     1      39.630 -14.255   2.794  1.00  0.00    -0.247 OA
HETATM    5  H   UNL     1      38.152 -13.285   1.395  1.00  0.00     0.172 HD
HETATM    6  H   UNL     1      41.260 -11.785   1.742  1.00  0.00     0.164 HD
ENDROOT
BRANCH   3   7
HETATM    7  C   UNL     1      42.031 -12.779   3.382  1.00  0.00     0.181 C 
BRANCH   7   8
HETATM    8  C   UNL     1      42.684 -14.099   3.614  1.00  0.00     0.028 A 
HETATM    9  N   UNL     1      42.910 -15.032   2.627  1.00  0.00    -0.357 N 
HETATM   10  H   UNL     1      42.706 -14.896   1.644  1.00  0.00     0.166 HD
HETATM   11  C   UNL     1      43.273 -16.243   3.161  1.00  0.00     0.043 A 
HETATM   12  C   UNL     1      43.331 -16.080   4.540  1.00  0.00    -0.005 A 
HETATM   13  C   UNL     1      43.513 -17.465   2.527  1.00  0.00     0.033 A 
HETATM   14  C   UNL     1      43.016 -14.716   4.810  1.00  0.00     0.040 A 
HETATM   15  C   UNL     1      43.613 -17.207   5.337  1.00  0.00     0.050 A 
HETATM   16  C   UNL     1      43.797 -18.458   4.729  1.00  0.00     0.069 A 
HETATM   17  C   UNL     1      43.774 -18.574   3.340  1.00  0.00     0.039 A 
BRANCH  16  18
HETATM   18  O   UNL     1      43.996 -19.497   5.602  1.00  0.00    -0.356 OA
HETATM   19  C   UNL     1      44.299 -20.757   5.012  1.00  0.00     0.210 C 
ENDBRANCH  16  18
ENDBRANCH   7   8
ENDBRANCH   3   7
BRANCH   1  20
HETATM   20  C   UNL     1      39.041 -11.767   0.338  1.00  0.00     0.129 A 
HETATM   21  N   UNL     1      39.386 -11.889  -0.996  1.00  0.00    -0.249 N 
HETATM   22  N   UNL     1      39.334 -10.713  -1.655  1.00  0.00    -0.183 NA
HETATM   23  C   UNL     1      38.992  -9.828  -0.720  1.00  0.00     0.142 A 
HETATM   24  C   UNL     1      38.801 -10.427   0.540  1.00  0.00     0.071 A 
BRANCH  21  25
HETATM   25  C   UNL     1      39.698 -13.098  -1.768  1.00  0.00     0.111 C 
HETATM   26  C   UNL     1      40.652 -12.842  -2.943  1.00  0.00     0.035 C 
BRANCH  25  27
HETATM   27  C   UNL     1      38.429 -13.926  -2.122  1.00  0.00     0.002 C 
HETATM   28  C   UNL     1      37.235 -13.095  -2.601  1.00  0.00     0.011 C 
HETATM   29  C   UNL     1      38.735 -15.008  -3.166  1.00  0.00     0.011 C 
ENDBRANCH  25  27
ENDBRANCH  21  25
ENDBRANCH   1  20
TORSDOF 6
ENDMDL
MODEL 8
REMARK VINA RESULT:      -7.1      3.784      4.823
REMARK  6 active torsions:
REMARK  status: ('A' for Active; 'I' for Inactive)
REMARK    1  A    between atoms: C_2  and  N_3 
REMARK    2  A    between atoms: C_2  and  C_25 
REMARK    3  A    between atoms: C_7  and  N_8 
REMARK       I    between atoms: N_8  and  C_9 
REMARK       I    between atoms: C_9  and  N_10 
REMARK    4  A    between atoms: N_10  and  C_11 
REMARK    5  A    between atoms: C_11  and  C_12 
REMARK    6  A    between atoms: C_20  and  O_21 
ROOT
HETATM    1  N   UNL     1      40.272 -11.069   1.218  1.00  0.00    -0.293 N 
HETATM    2  C   UNL     1      40.802 -11.904   2.219  1.00  0.00     0.322 C 
HETATM    3  N   UNL     1      41.934 -12.604   1.949  1.00  0.00    -0.337 N 
HETATM    4  O   UNL     1      40.208 -11.847   3.281  1.00  0.00    -0.247 OA
HETATM    5  H   UNL     1      39.510 -10.521   1.596  1.00  0.00     0.172 HD
HETATM    6  H   UNL     1      42.417 -12.350   1.106  1.00  0.00     0.164 HD
ENDROOT
BRANCH   3   7
HETATM    7  C   UNL     1      42.821 -13.025   3.016  1.00  0.00     0.181 C 
BRANCH   7   8
HETATM    8  C   UNL     1      42.874 -14.493   3.277  1.00  0.00     0.028 A 
HETATM    9  N   UNL     1      43.244 -15.049   4.480  1.00  0.00    -0.357 N 
HETATM   10  H   UNL     1      43.464 -14.523   5.318  1.00  0.00     0.166 HD
HETATM   11  C   UNL     1      43.462 -16.398   4.359  1.00  0.00     0.043 A 
HETATM   12  C   UNL     1      43.178 -16.740   3.042  1.00  0.00    -0.005 A 
HETATM   13  C   UNL     1      43.920 -17.320   5.304  1.00  0.00     0.033 A 
HETATM   14  C   UNL     1      42.755 -15.548   2.386  1.00  0.00     0.040 A 
HETATM   15  C   UNL     1      43.395 -18.071   2.634  1.00  0.00     0.050 A 
HETATM   16  C   UNL     1      43.914 -19.002   3.547  1.00  0.00     0.069 A 
HETATM   17  C   UNL     1      44.145 -18.631   4.871  1.00  0.00     0.039 A 
BRANCH  16  18
HETATM   18  O   UNL     1      44.152 -20.247   3.025  1.00  0.00    -0.356 OA
HETATM   19  C   UNL     1      43.548 -20.521   1.764  1.00  0.00     0.210 C 
ENDBRANCH  16  18
ENDBRANCH   7   8
ENDBRANCH   3   7
BRANCH   1  20
HETATM   20  C   UNL     1      40.629 -10.844  -0.093  1.00  0.00     0.129 A 
HETATM   21  N   UNL     1      40.315 -11.669  -1.159  1.00  0.00    -0.249 N 
HETATM   22  N   UNL     1      40.813 -11.217  -2.328  1.00  0.00    -0.183 NA
HETATM   23  C   UNL     1      41.485 -10.116  -1.996  1.00  0.00     0.142 A 
HETATM   24  C   UNL     1      41.409  -9.838  -0.618  1.00  0.00     0.071 A 
BRANCH  21  25
HETATM   25  C   UNL     1      39.469 -12.869  -1.187  1.00  0.00     0.111 C 
HETATM   26  C   UNL     1      40.172 -14.122  -0.648  1.00  0.00     0.035 C 
BRANCH  25  27
HETATM   27  C   UNL     1      38.745 -13.058  -2.551  1.00  0.00     0.002 C 
HETATM   28  C   UNL     1      38.701 -14.502  -3.058  1.00  0.00     0.011 C 
HETATM   29  C   UNL     1      37.318 -12.499  -2.513  1.00  0.00     0.011 C 
ENDBRANCH  25  27
ENDBRANCH  21  25
ENDBRANCH   1  20
TORSDOF 6
ENDMDL
MODEL 9
REMARK VINA RESULT:      -7.0      4.571      8.610
REMARK  6 active torsions:
REMARK  status: ('A' for Active; 'I' for Inactive)
REMARK    1  A    between atoms: C_2  and  N_3 
REMARK    2  A    between atoms: C_2  and  C_25 
REMARK    3  A    between atoms: C_7  and  N_8 
REMARK       I    between atoms: N_8  and  C_9 
REMARK       I    between atoms: C_9  and  N_10 
REMARK    4  A    between atoms: N_10  and  C_11 
REMARK    5  A    between atoms: C_11  and  C_12 
REMARK    6  A    between atoms: C_20  and  O_21 
ROOT
HETATM    1  N   UNL     1      43.543 -12.673   4.811  1.00  0.00    -0.293 N 
HETATM    2  C   UNL     1      44.203 -11.709   5.595  1.00  0.00     0.322 C 
HETATM    3  N   UNL     1      43.824 -11.555   6.891  1.00  0.00    -0.337 N 
HETATM    4  O   UNL     1      45.125 -11.151   5.026  1.00  0.00    -0.247 OA
HETATM    5  H   UNL     1      44.006 -12.764   3.916  1.00  0.00     0.172 HD
HETATM    6  H   UNL     1      43.210 -12.260   7.255  1.00  0.00     0.164 HD
ENDROOT
BRANCH   3   7
HETATM    7  C   UNL     1      44.748 -11.029   7.878  1.00  0.00     0.181 C 
BRANCH   7   8
HETATM    8  C   UNL     1      44.132 -10.507   9.131  1.00  0.00     0.028 A 
HETATM    9  N   UNL     1      42.778 -10.342   9.313  1.00  0.00    -0.357 N 
HETATM   10  H   UNL     1      42.067 -10.606   8.642  1.00  0.00     0.166 HD
HETATM   11  C   UNL     1      42.513  -9.603  10.438  1.00  0.00     0.043 A 
HETATM   12  C   UNL     1      43.736  -9.316  11.035  1.00  0.00    -0.005 A 
HETATM   13  C   UNL     1      41.294  -9.142  10.942  1.00  0.00     0.033 A 
HETATM   14  C   UNL     1      44.741  -9.937  10.238  1.00  0.00     0.040 A 
HETATM   15  C   UNL     1      43.747  -8.496  12.180  1.00  0.00     0.050 A 
HETATM   16  C   UNL     1      42.542  -7.970  12.670  1.00  0.00     0.069 A 
HETATM   17  C   UNL     1      41.331  -8.315  12.070  1.00  0.00     0.039 A 
BRANCH  16  18
HETATM   18  O   UNL     1      42.676  -7.130  13.744  1.00  0.00    -0.356 OA
HETATM   19  C   UNL     1      42.022  -7.539  14.942  1.00  0.00     0.210 C 
ENDBRANCH  16  18
ENDBRANCH   7   8
ENDBRANCH   3   7
BRANCH   1  20
HETATM   20  C   UNL     1      42.472 -13.503   5.061  1.00  0.00     0.129 A 
HETATM   21  N   UNL     1      42.262 -14.736   4.470  1.00  0.00    -0.249 N 
HETATM   22  N   UNL     1      41.120 -15.321   4.883  1.00  0.00    -0.183 NA
HETATM   23  C   UNL     1      40.577 -14.433   5.715  1.00  0.00     0.142 A 
HETATM   24  C   UNL     1      41.373 -13.281   5.861  1.00  0.00     0.071 A 
BRANCH  21  25
HETATM   25  C   UNL     1      43.134 -15.490   3.561  1.00  0.00     0.111 C 
HETATM   26  C   UNL     1      43.013 -15.050   2.095  1.00  0.00     0.035 C 
BRANCH  25  27
HETATM   27  C   UNL     1      43.054 -17.027   3.793  1.00  0.00     0.002 C 
HETATM   28  C   UNL     1      43.249 -17.876   2.534  1.00  0.00     0.011 C 
HETATM   29  C   UNL     1      44.049 -17.487   4.865  1.00  0.00     0.011 C 
ENDBRANCH  25  27
ENDBRANCH  21  25
ENDBRANCH   1  20
TORSDOF 6
ENDMDL
MODEL 10
REMARK VINA RESULT:      -7.0      3.112      6.578
REMARK  6 active torsions:
REMARK  status: ('A' for Active; 'I' for Inactive)
REMARK    1  A    between atoms: C_2  and  N_3 
REMARK    2  A    between atoms: C_2  and  C_25 
REMARK    3  A    between atoms: C_7  and  N_8 
REMARK       I    between atoms: N_8  and  C_9 
REMARK       I    between atoms: C_9  and  N_10 
REMARK    4  A    between atoms: N_10  and  C_11 
REMARK    5  A    between atoms: C_11  and  C_12 
REMARK    6  A    between atoms: C_20  and  O_21 
ROOT
HETATM    1  N   UNL     1      41.076 -15.631   6.105  1.00  0.00    -0.293 N 
HETATM    2  C   UNL     1      40.712 -14.287   6.305  1.00  0.00     0.322 C 
HETATM    3  N   UNL     1      41.687 -13.341   6.291  1.00  0.00    -0.337 N 
HETATM    4  O   UNL     1      39.511 -14.105   6.396  1.00  0.00    -0.247 OA
HETATM    5  H   UNL     1      40.245 -16.202   6.017  1.00  0.00     0.172 HD
HETATM    6  H   UNL     1      42.588 -13.644   5.969  1.00  0.00     0.164 HD
ENDROOT
BRANCH   3   7
HETATM    7  C   UNL     1      41.383 -11.965   5.944  1.00  0.00     0.181 C 
BRANCH   7   8
HETATM    8  C   UNL     1      40.988 -11.724   4.527  1.00  0.00     0.028 A 
HETATM    9  N   UNL     1      39.688 -11.750   4.075  1.00  0.00    -0.357 N 
HETATM   10  H   UNL     1      38.873 -11.880   4.662  1.00  0.00     0.166 HD
HETATM   11  C   UNL     1      39.638 -11.764   2.704  1.00  0.00     0.043 A 
HETATM   12  C   UNL     1      40.949 -11.698   2.247  1.00  0.00    -0.005 A 
HETATM   13  C   UNL     1      38.538 -11.867   1.848  1.00  0.00     0.033 A 
HETATM   14  C   UNL     1      41.786 -11.616   3.399  1.00  0.00     0.040 A 
HETATM   15  C   UNL     1      41.181 -11.773   0.860  1.00  0.00     0.050 A 
HETATM   16  C   UNL     1      40.098 -11.939  -0.017  1.00  0.00     0.069 A 
HETATM   17  C   UNL     1      38.793 -11.957   0.475  1.00  0.00     0.039 A 
BRANCH  16  18
HETATM   18  O   UNL     1      40.443 -12.071  -1.337  1.00  0.00    -0.356 OA
HETATM   19  C   UNL     1      40.199 -13.347  -1.921  1.00  0.00     0.210 C 
ENDBRANCH  16  18
ENDBRANCH   7   8
ENDBRANCH   3   7
BRANCH   1  20
HETATM   20  C   UNL     1      42.296 -16.255   5.962  1.00  0.00     0.129 A 
HETATM   21  N   UNL     1      42.763 -16.837   4.798  1.00  0.00    -0.249 N 
HETATM   22  N   UNL     1      43.981 -17.396   4.951  1.00  0.00    -0.183 NA
HETATM   23  C   UNL     1      44.273 -17.203   6.236  1.00  0.00     0.142 A 
HETATM   24  C   UNL     1      43.258 -16.502   6.915  1.00  0.00     0.071 A 
BRANCH  21  25
HETATM   25  C   UNL     1      42.167 -16.841   3.456  1.00  0.00     0.111 C 
HETATM   26  C   UNL     1      42.830 -17.840   2.498  1.00  0.00     0.035 C 
BRANCH  25  27
HETATM   27  C   UNL     1      41.976 -15.408   2.882  1.00  0.00     0.002 C 
HETATM   28  C   UNL     1      43.114 -14.923   1.979  1.00  0.00     0.011 C 
HETATM   29  C   UNL     1      40.648 -15.276   2.126  1.00  0.00     0.011 C 
ENDBRANCH  25  27
ENDBRANCH  21  25
ENDBRANCH   1  20
TORSDOF 6
ENDMDL
