MODEL 1
REMARK VINA RESULT:      -9.9      0.000      0.000
REMARK  8 active torsions:
REMARK  status: ('A' for Active; 'I' for Inactive)
REMARK    1  A    between atoms: C_4  and  S_5 
REMARK    2  A    between atoms: S_5  and  C_6 
REMARK    3  A    between atoms: C_6  and  C_7 
REMARK       I    between atoms: C_7  and  N_8 
REMARK    4  A    between atoms: N_8  and  C_9 
REMARK    5  A    between atoms: C_10  and  O_11 
REMARK    6  A    between atoms: C_22  and  C_23 
REMARK    7  A    between atoms: C_29  and  C_30 
REMARK       I    between atoms: C_30  and  N_31 
REMARK    8  A    between atoms: N_31  and  C_32 
ROOT
HETATM    1  C   UNL     1      42.878 -15.638   7.957  1.00  0.00     0.069 C 
HETATM    2  C   UNL     1      42.878 -14.662   6.803  1.00  0.00     0.019 A 
HETATM    3  N   UNL     1      43.019 -13.331   7.156  1.00  0.00    -0.353 N 
HETATM    4  C   UNL     1      43.136 -12.273   6.274  1.00  0.00     0.088 A 
HETATM    5  C   UNL     1      43.064 -12.509   4.943  1.00  0.00     0.069 A 
HETATM    6  C   UNL     1      43.270 -11.485   3.967  1.00  0.00     0.099 C 
HETATM    7  N   UNL     1      43.454 -10.693   3.139  1.00  0.00    -0.192 NA
HETATM    8  C   UNL     1      42.841 -13.932   4.413  1.00  0.00     0.106 A 
HETATM    9  C   UNL     1      42.781 -15.012   5.496  1.00  0.00     0.046 A 
HETATM   10  H   UNL     1      43.387 -13.143   8.090  1.00  0.00     0.166 HD
ENDROOT
BRANCH   4  11
HETATM   11  S   UNL     1      43.454 -10.653   6.874  1.00  0.00    -0.102 SA
BRANCH  11  12
HETATM   12  C   UNL     1      44.893 -10.945   7.952  1.00  0.00     0.184 C 
BRANCH  12  13
HETATM   13  C   UNL     1      45.683  -9.670   8.211  1.00  0.00     0.231 C 
HETATM   14  N   UNL     1      45.087  -8.574   8.761  1.00  0.00    -0.324 N 
HETATM   15  H   UNL     1      45.573  -7.709   8.534  1.00  0.00     0.169 HD
HETATM   16  O   UNL     1      46.854  -9.541   7.835  1.00  0.00    -0.272 OA
BRANCH  14  17
HETATM   17  C   UNL     1      43.972  -8.397   9.600  1.00  0.00     0.070 A 
HETATM   18  C   UNL     1      42.948  -7.546   9.125  1.00  0.00     0.095 A 
HETATM   19  C   UNL     1      41.833  -7.283   9.925  1.00  0.00     0.041 A 
HETATM   20  C   UNL     1      41.741  -7.845  11.199  1.00  0.00     0.026 A 
HETATM   21  C   UNL     1      42.770  -8.652  11.678  1.00  0.00     0.036 A 
HETATM   22 CL   UNL     1      42.672  -9.299  13.269  1.00  0.00    -0.084 Cl
HETATM   23  C   UNL     1      43.890  -8.923  10.890  1.00  0.00     0.056 A 
BRANCH  18  24
HETATM   24  O   UNL     1      43.149  -7.030   7.866  1.00  0.00    -0.354 OA
HETATM   25  C   UNL     1      42.025  -6.983   6.994  1.00  0.00     0.210 C 
ENDBRANCH  18  24
ENDBRANCH  14  17
ENDBRANCH  12  13
ENDBRANCH  11  12
ENDBRANCH   4  11
BRANCH   8  26
HETATM   26  C   UNL     1      41.642 -13.982   3.464  1.00  0.00    -0.044 A 
HETATM   27  C   UNL     1      41.804 -14.482   2.159  1.00  0.00     0.008 A 
HETATM   28  C   UNL     1      40.729 -14.512   1.270  1.00  0.00     0.001 A 
HETATM   29  C   UNL     1      39.481 -14.044   1.671  1.00  0.00     0.000 A 
HETATM   30  C   UNL     1      39.307 -13.538   2.957  1.00  0.00     0.001 A 
HETATM   31  C   UNL     1      40.381 -13.503   3.848  1.00  0.00     0.008 A 
ENDBRANCH   8  26
BRANCH   9  32
HETATM   32  C   UNL     1      42.583 -16.458   5.114  1.00  0.00     0.255 C 
HETATM   33  N   UNL     1      43.662 -17.049   4.490  1.00  0.00    -0.323 N 
HETATM   34  H   UNL     1      44.444 -16.472   4.226  1.00  0.00     0.169 HD
HETATM   35  O   UNL     1      41.511 -17.009   5.341  1.00  0.00    -0.268 OA
BRANCH  33  36
HETATM   36  C   UNL     1      43.798 -18.406   4.117  1.00  0.00     0.035 A 
HETATM   37  C   UNL     1      43.619 -18.882   2.817  1.00  0.00     0.029 A 
HETATM   38  C   UNL     1      43.735 -20.248   2.538  1.00  0.00     0.002 A 
HETATM   39  C   UNL     1      44.037 -21.149   3.557  1.00  0.00     0.000 A 
HETATM   40  C   UNL     1      44.219 -20.686   4.856  1.00  0.00     0.002 A 
HETATM   41  C   UNL     1      44.096 -19.322   5.135  1.00  0.00     0.029 A 
ENDBRANCH  33  36
ENDBRANCH   9  32
TORSDOF 8
ENDMDL
MODEL 2
REMARK VINA RESULT:      -9.6      5.199      8.565
REMARK  8 active torsions:
REMARK  status: ('A' for Active; 'I' for Inactive)
REMARK    1  A    between atoms: C_4  and  S_5 
REMARK    2  A    between atoms: S_5  and  C_6 
REMARK    3  A    between atoms: C_6  and  C_7 
REMARK       I    between atoms: C_7  and  N_8 
REMARK    4  A    between atoms: N_8  and  C_9 
REMARK    5  A    between atoms: C_10  and  O_11 
REMARK    6  A    between atoms: C_22  and  C_23 
REMARK    7  A    between atoms: C_29  and  C_30 
REMARK       I    between atoms: C_30  and  N_31 
REMARK    8  A    between atoms: N_31  and  C_32 
ROOT
HETATM    1  C   UNL     1      39.853 -15.041   0.690  1.00  0.00     0.069 C 
HETATM    2  C   UNL     1      39.862 -13.994   1.780  1.00  0.00     0.019 A 
HETATM    3  N   UNL     1      39.360 -12.757   1.414  1.00  0.00    -0.353 N 
HETATM    4  C   UNL     1      39.185 -11.678   2.259  1.00  0.00     0.088 A 
HETATM    5  C   UNL     1      39.568 -11.782   3.554  1.00  0.00     0.069 A 
HETATM    6  C   UNL     1      39.334 -10.746   4.511  1.00  0.00     0.099 C 
HETATM    7  N   UNL     1      39.144  -9.944   5.328  1.00  0.00    -0.192 NA
HETATM    8  C   UNL     1      40.203 -13.076   4.079  1.00  0.00     0.106 A 
HETATM    9  C   UNL     1      40.288 -14.206   3.050  1.00  0.00     0.046 A 
HETATM   10  H   UNL     1      38.784 -12.730   0.571  1.00  0.00     0.166 HD
ENDROOT
BRANCH   4  11
HETATM   11  S   UNL     1      38.402 -10.218   1.677  1.00  0.00    -0.102 SA
BRANCH  11  12
HETATM   12  C   UNL     1      36.982 -10.908   0.770  1.00  0.00     0.184 C 
BRANCH  12  13
HETATM   13  C   UNL     1      36.796 -10.248  -0.590  1.00  0.00     0.231 C 
HETATM   14  N   UNL     1      37.666 -10.488  -1.611  1.00  0.00    -0.324 N 
HETATM   15  H   UNL     1      37.676  -9.738  -2.300  1.00  0.00     0.169 HD
HETATM   16  O   UNL     1      35.923  -9.395  -0.786  1.00  0.00    -0.272 OA
BRANCH  14  17
HETATM   17  C   UNL     1      38.517 -11.562  -1.927  1.00  0.00     0.070 A 
HETATM   18  C   UNL     1      39.904 -11.292  -1.944  1.00  0.00     0.095 A 
HETATM   19  C   UNL     1      40.807 -12.297  -2.297  1.00  0.00     0.041 A 
HETATM   20  C   UNL     1      40.336 -13.563  -2.653  1.00  0.00     0.026 A 
HETATM   21  C   UNL     1      38.967 -13.814  -2.672  1.00  0.00     0.036 A 
HETATM   22 CL   UNL     1      38.394 -15.361  -3.161  1.00  0.00    -0.084 Cl
HETATM   23  C   UNL     1      38.054 -12.819  -2.321  1.00  0.00     0.056 A 
BRANCH  18  24
HETATM   24  O   UNL     1      40.257 -10.008  -1.596  1.00  0.00    -0.354 OA
HETATM   25  C   UNL     1      41.384  -9.850  -0.742  1.00  0.00     0.210 C 
ENDBRANCH  18  24
ENDBRANCH  14  17
ENDBRANCH  12  13
ENDBRANCH  11  12
ENDBRANCH   4  11
BRANCH   8  26
HETATM   26  C   UNL     1      41.545 -12.794   4.757  1.00  0.00    -0.044 A 
HETATM   27  C   UNL     1      42.531 -12.059   4.074  1.00  0.00     0.008 A 
HETATM   28  C   UNL     1      43.771 -11.812   4.664  1.00  0.00     0.001 A 
HETATM   29  C   UNL     1      44.043 -12.296   5.941  1.00  0.00     0.000 A 
HETATM   30  C   UNL     1      43.080 -13.033   6.626  1.00  0.00     0.001 A 
HETATM   31  C   UNL     1      41.839 -13.285   6.037  1.00  0.00     0.008 A 
ENDBRANCH   8  26
BRANCH   9  32
HETATM   32  C   UNL     1      40.875 -15.540   3.438  1.00  0.00     0.255 C 
HETATM   33  N   UNL     1      42.171 -15.753   3.014  1.00  0.00    -0.323 N 
HETATM   34  H   UNL     1      42.591 -15.083   2.390  1.00  0.00     0.169 HD
HETATM   35  O   UNL     1      40.196 -16.349   4.062  1.00  0.00    -0.268 OA
BRANCH  33  36
HETATM   36  C   UNL     1      43.001 -16.857   3.317  1.00  0.00     0.035 A 
HETATM   37  C   UNL     1      43.190 -17.950   2.470  1.00  0.00     0.029 A 
HETATM   38  C   UNL     1      44.001 -19.020   2.862  1.00  0.00     0.002 A 
HETATM   39  C   UNL     1      44.635 -19.004   4.102  1.00  0.00     0.000 A 
HETATM   40  C   UNL     1      44.456 -17.918   4.953  1.00  0.00     0.002 A 
HETATM   41  C   UNL     1      43.640 -16.853   4.564  1.00  0.00     0.029 A 
ENDBRANCH  33  36
ENDBRANCH   9  32
TORSDOF 8
ENDMDL
MODEL 3
REMARK VINA RESULT:      -9.5      2.040      4.761
REMARK  8 active torsions:
REMARK  status: ('A' for Active; 'I' for Inactive)
REMARK    1  A    between atoms: C_4  and  S_5 
REMARK    2  A    between atoms: S_5  and  C_6 
REMARK    3  A    between atoms: C_6  and  C_7 
REMARK       I    between atoms: C_7  and  N_8 
REMARK    4  A    between atoms: N_8  and  C_9 
REMARK    5  A    between atoms: C_10  and  O_11 
REMARK    6  A    between atoms: C_22  and  C_23 
REMARK    7  A    between atoms: C_29  and  C_30 
REMARK       I    between atoms: C_30  and  N_31 
REMARK    8  A    between atoms: N_31  and  C_32 
ROOT
HETATM    1  C   UNL     1      41.400 -10.113   3.277  1.00  0.00     0.069 C 
HETATM    2  C   UNL     1      41.871 -11.401   3.913  1.00  0.00     0.019 A 
HETATM    3  N   UNL     1      42.919 -11.268   4.808  1.00  0.00    -0.353 N 
HETATM    4  C   UNL     1      43.456 -12.286   5.574  1.00  0.00     0.088 A 
HETATM    5  C   UNL     1      42.977 -13.544   5.433  1.00  0.00     0.069 A 
HETATM    6  C   UNL     1      43.413 -14.630   6.254  1.00  0.00     0.099 C 
HETATM    7  N   UNL     1      43.718 -15.536   6.913  1.00  0.00    -0.192 NA
HETATM    8  C   UNL     1      41.860 -13.846   4.425  1.00  0.00     0.106 A 
HETATM    9  C   UNL     1      41.324 -12.620   3.683  1.00  0.00     0.046 A 
HETATM   10  H   UNL     1      43.090 -10.329   5.174  1.00  0.00     0.166 HD
ENDROOT
BRANCH   4  11
HETATM   11  S   UNL     1      44.690 -11.932   6.773  1.00  0.00    -0.102 SA
BRANCH  11  12
HETATM   12  C   UNL     1      44.073 -10.369   7.474  1.00  0.00     0.184 C 
BRANCH  12  13
HETATM   13  C   UNL     1      45.193  -9.526   8.069  1.00  0.00     0.231 C 
HETATM   14  N   UNL     1      44.918  -8.479   8.897  1.00  0.00    -0.324 N 
HETATM   15  H   UNL     1      45.665  -7.787   8.913  1.00  0.00     0.169 HD
HETATM   16  O   UNL     1      46.373  -9.686   7.740  1.00  0.00    -0.272 OA
BRANCH  14  17
HETATM   17  C   UNL     1      43.845  -8.178   9.754  1.00  0.00     0.070 A 
HETATM   18  C   UNL     1      42.871  -7.278   9.263  1.00  0.00     0.095 A 
HETATM   19  C   UNL     1      41.803  -6.894  10.076  1.00  0.00     0.041 A 
HETATM   20  C   UNL     1      41.709  -7.382  11.381  1.00  0.00     0.026 A 
HETATM   21  C   UNL     1      42.691  -8.238  11.874  1.00  0.00     0.036 A 
HETATM   22 CL   UNL     1      42.594  -8.794  13.499  1.00  0.00    -0.084 Cl
HETATM   23  C   UNL     1      43.764  -8.630  11.072  1.00  0.00     0.056 A 
BRANCH  18  24
HETATM   24  O   UNL     1      43.071  -6.843   7.973  1.00  0.00    -0.354 OA
HETATM   25  C   UNL     1      41.978  -6.960   7.069  1.00  0.00     0.210 C 
ENDBRANCH  18  24
ENDBRANCH  14  17
ENDBRANCH  12  13
ENDBRANCH  11  12
ENDBRANCH   4  11
BRANCH   8  26
HETATM   26  C   UNL     1      42.267 -14.977   3.478  1.00  0.00    -0.044 A 
HETATM   27  C   UNL     1      43.243 -14.745   2.492  1.00  0.00     0.008 A 
HETATM   28  C   UNL     1      43.609 -15.756   1.602  1.00  0.00     0.001 A 
HETATM   29  C   UNL     1      43.006 -17.007   1.684  1.00  0.00     0.000 A 
HETATM   30  C   UNL     1      42.032 -17.250   2.649  1.00  0.00     0.001 A 
HETATM   31  C   UNL     1      41.660 -16.240   3.539  1.00  0.00     0.008 A 
ENDBRANCH   8  26
BRANCH   9  32
HETATM   32  C   UNL     1      40.212 -12.772   2.675  1.00  0.00     0.255 C 
HETATM   33  N   UNL     1      40.616 -12.767   1.356  1.00  0.00    -0.323 N 
HETATM   34  H   UNL     1      41.576 -12.547   1.146  1.00  0.00     0.169 HD
HETATM   35  O   UNL     1      39.049 -12.863   3.056  1.00  0.00    -0.268 OA
BRANCH  33  36
HETATM   36  C   UNL     1      39.814 -12.991   0.213  1.00  0.00     0.035 A 
HETATM   37  C   UNL     1      38.881 -12.078  -0.280  1.00  0.00     0.029 A 
HETATM   38  C   UNL     1      38.099 -12.395  -1.397  1.00  0.00     0.002 A 
HETATM   39  C   UNL     1      38.249 -13.625  -2.033  1.00  0.00     0.000 A 
HETATM   40  C   UNL     1      39.178 -14.542  -1.551  1.00  0.00     0.002 A 
HETATM   41  C   UNL     1      39.952 -14.228  -0.431  1.00  0.00     0.029 A 
ENDBRANCH  33  36
ENDBRANCH   9  32
TORSDOF 8
ENDMDL
MODEL 4
REMARK VINA RESULT:      -9.2      2.281      3.143
REMARK  8 active torsions:
REMARK  status: ('A' for Active; 'I' for Inactive)
REMARK    1  A    between atoms: C_4  and  S_5 
REMARK    2  A    between atoms: S_5  and  C_6 
REMARK    3  A    between atoms: C_6  and  C_7 
REMARK       I    between atoms: C_7  and  N_8 
REMARK    4  A    between atoms: N_8  and  C_9 
REMARK    5  A    between atoms: C_10  and  O_11 
REMARK    6  A    between atoms: C_22  and  C_23 
REMARK    7  A    between atoms: C_29  and  C_30 
REMARK       I    between atoms: C_30  and  N_31 
REMARK    8  A    between atoms: N_31  and  C_32 
ROOT
HETATM    1  C   UNL     1      43.071 -14.981   8.097  1.00  0.00     0.069 C 
HETATM    2  C   UNL     1      42.926 -14.263   6.775  1.00  0.00     0.019 A 
HETATM    3  N   UNL     1      42.371 -12.998   6.848  1.00  0.00    -0.353 N 
HETATM    4  C   UNL     1      42.223 -12.122   5.789  1.00  0.00     0.088 A 
HETATM    5  C   UNL     1      42.597 -12.514   4.548  1.00  0.00     0.069 A 
HETATM    6  C   UNL     1      42.563 -11.635   3.421  1.00  0.00     0.099 C 
HETATM    7  N   UNL     1      42.577 -10.952   2.482  1.00  0.00    -0.192 NA
HETATM    8  C   UNL     1      43.166 -13.919   4.312  1.00  0.00     0.106 A 
HETATM    9  C   UNL     1      43.323 -14.763   5.579  1.00  0.00     0.046 A 
HETATM   10  H   UNL     1      42.373 -12.551   7.767  1.00  0.00     0.166 HD
ENDROOT
BRANCH   4  11
HETATM   11  S   UNL     1      41.631 -10.492   6.067  1.00  0.00    -0.102 SA
BRANCH  11  12
HETATM   12  C   UNL     1      40.337 -10.787   7.313  1.00  0.00     0.184 C 
BRANCH  12  13
HETATM   13  C   UNL     1      39.900  -9.501   8.002  1.00  0.00     0.231 C 
HETATM   14  N   UNL     1      40.530  -9.059   9.128  1.00  0.00    -0.324 N 
HETATM   15  H   UNL     1      39.941  -8.450   9.691  1.00  0.00     0.169 HD
HETATM   16  O   UNL     1      38.899  -8.873   7.637  1.00  0.00    -0.272 OA
BRANCH  14  17
HETATM   17  C   UNL     1      41.824  -9.238   9.646  1.00  0.00     0.070 A 
HETATM   18  C   UNL     1      41.918  -9.653  10.995  1.00  0.00     0.095 A 
HETATM   19  C   UNL     1      43.171  -9.803  11.593  1.00  0.00     0.041 A 
HETATM   20  C   UNL     1      44.329  -9.524  10.865  1.00  0.00     0.026 A 
HETATM   21  C   UNL     1      44.232  -9.079   9.549  1.00  0.00     0.036 A 
HETATM   22 CL   UNL     1      45.662  -8.689   8.676  1.00  0.00    -0.084 Cl
HETATM   23  C   UNL     1      42.986  -8.924   8.938  1.00  0.00     0.056 A 
BRANCH  18  24
HETATM   24  O   UNL     1      40.716  -9.881  11.624  1.00  0.00    -0.354 OA
HETATM   25  C   UNL     1      40.385  -9.038  12.722  1.00  0.00     0.210 C 
ENDBRANCH  18  24
ENDBRANCH  14  17
ENDBRANCH  12  13
ENDBRANCH  11  12
ENDBRANCH   4  11
BRANCH   8  26
HETATM   26  C   UNL     1      42.391 -14.647   3.211  1.00  0.00    -0.044 A 
HETATM   27  C   UNL     1      41.017 -14.899   3.374  1.00  0.00     0.008 A 
HETATM   28  C   UNL     1      40.298 -15.584   2.393  1.00  0.00     0.001 A 
HETATM   29  C   UNL     1      40.941 -16.026   1.241  1.00  0.00     0.000 A 
HETATM   30  C   UNL     1      42.303 -15.791   1.069  1.00  0.00     0.001 A 
HETATM   31  C   UNL     1      43.026 -15.110   2.049  1.00  0.00     0.008 A 
ENDBRANCH   8  26
BRANCH   9  32
HETATM   32  C   UNL     1      43.888 -16.160   5.492  1.00  0.00     0.255 C 
HETATM   33  N   UNL     1      43.082 -17.076   4.848  1.00  0.00    -0.323 N 
HETATM   34  H   UNL     1      42.148 -16.800   4.591  1.00  0.00     0.169 HD
HETATM   35  O   UNL     1      44.977 -16.411   5.998  1.00  0.00    -0.268 OA
BRANCH  33  36
HETATM   36  C   UNL     1      43.394 -18.418   4.532  1.00  0.00     0.035 A 
HETATM   37  C   UNL     1      43.709 -19.393   5.480  1.00  0.00     0.029 A 
HETATM   38  C   UNL     1      44.042 -20.691   5.080  1.00  0.00     0.002 A 
HETATM   39  C   UNL     1      44.058 -21.027   3.728  1.00  0.00     0.000 A 
HETATM   40  C   UNL     1      43.743 -20.064   2.774  1.00  0.00     0.002 A 
HETATM   41  C   UNL     1      43.418 -18.766   3.174  1.00  0.00     0.029 A 
ENDBRANCH  33  36
ENDBRANCH   9  32
TORSDOF 8
ENDMDL
MODEL 5
REMARK VINA RESULT:      -9.2      1.533      2.187
REMARK  8 active torsions:
REMARK  status: ('A' for Active; 'I' for Inactive)
REMARK    1  A    between atoms: C_4  and  S_5 
REMARK    2  A    between atoms: S_5  and  C_6 
REMARK    3  A    between atoms: C_6  and  C_7 
REMARK       I    between atoms: C_7  and  N_8 
REMARK    4  A    between atoms: N_8  and  C_9 
REMARK    5  A    between atoms: C_10  and  O_11 
REMARK    6  A    between atoms: C_22  and  C_23 
REMARK    7  A    between atoms: C_29  and  C_30 
REMARK       I    between atoms: C_30  and  N_31 
REMARK    8  A    between atoms: N_31  and  C_32 
ROOT
HETATM    1  C   UNL     1      42.974 -15.625   8.130  1.00  0.00     0.069 C 
HETATM    2  C   UNL     1      42.976 -14.650   6.975  1.00  0.00     0.019 A 
HETATM    3  N   UNL     1      43.158 -13.323   7.325  1.00  0.00    -0.353 N 
HETATM    4  C   UNL     1      43.284 -12.268   6.441  1.00  0.00     0.088 A 
HETATM    5  C   UNL     1      43.181 -12.503   5.111  1.00  0.00     0.069 A 
HETATM    6  C   UNL     1      43.394 -11.484   4.131  1.00  0.00     0.099 C 
HETATM    7  N   UNL     1      43.582 -10.697   3.299  1.00  0.00    -0.192 NA
HETATM    8  C   UNL     1      42.912 -13.920   4.587  1.00  0.00     0.106 A 
HETATM    9  C   UNL     1      42.846 -14.998   5.672  1.00  0.00     0.046 A 
HETATM   10  H   UNL     1      43.548 -13.145   8.252  1.00  0.00     0.166 HD
ENDROOT
BRANCH   4  11
HETATM   11  S   UNL     1      43.654 -10.657   7.034  1.00  0.00    -0.102 SA
BRANCH  11  12
HETATM   12  C   UNL     1      42.025 -10.112   7.636  1.00  0.00     0.184 C 
BRANCH  12  13
HETATM   13  C   UNL     1      41.889  -8.596   7.630  1.00  0.00     0.231 C 
HETATM   14  N   UNL     1      41.389  -7.932   8.711  1.00  0.00    -0.324 N 
HETATM   15  H   UNL     1      40.995  -7.027   8.465  1.00  0.00     0.169 HD
HETATM   16  O   UNL     1      42.119  -7.925   6.618  1.00  0.00    -0.272 OA
BRANCH  14  17
HETATM   17  C   UNL     1      41.340  -8.221  10.086  1.00  0.00     0.070 A 
HETATM   18  C   UNL     1      40.147  -8.805  10.571  1.00  0.00     0.095 A 
HETATM   19  C   UNL     1      40.006  -9.074  11.935  1.00  0.00     0.041 A 
HETATM   20  C   UNL     1      41.035  -8.746  12.820  1.00  0.00     0.026 A 
HETATM   21  C   UNL     1      42.192  -8.134  12.344  1.00  0.00     0.036 A 
HETATM   22 CL   UNL     1      43.432  -7.688  13.448  1.00  0.00    -0.084 Cl
HETATM   23  C   UNL     1      42.346  -7.860  10.984  1.00  0.00     0.056 A 
BRANCH  18  24
HETATM   24  O   UNL     1      39.192  -9.069   9.617  1.00  0.00    -0.354 OA
HETATM   25  C   UNL     1      38.796 -10.425   9.448  1.00  0.00     0.210 C 
ENDBRANCH  18  24
ENDBRANCH  14  17
ENDBRANCH  12  13
ENDBRANCH  11  12
ENDBRANCH   4  11
BRANCH   8  26
HETATM   26  C   UNL     1      41.694 -13.940   3.660  1.00  0.00    -0.044 A 
HETATM   27  C   UNL     1      41.825 -14.420   2.345  1.00  0.00     0.008 A 
HETATM   28  C   UNL     1      40.732 -14.423   1.477  1.00  0.00     0.001 A 
HETATM   29  C   UNL     1      39.499 -13.947   1.909  1.00  0.00     0.000 A 
HETATM   30  C   UNL     1      39.356 -13.460   3.206  1.00  0.00     0.001 A 
HETATM   31  C   UNL     1      40.447 -13.451   4.077  1.00  0.00     0.008 A 
ENDBRANCH   8  26
BRANCH   9  32
HETATM   32  C   UNL     1      42.605 -16.438   5.293  1.00  0.00     0.255 C 
HETATM   33  N   UNL     1      43.665 -17.064   4.671  1.00  0.00    -0.323 N 
HETATM   34  H   UNL     1      44.463 -16.510   4.405  1.00  0.00     0.169 HD
HETATM   35  O   UNL     1      41.516 -16.956   5.523  1.00  0.00    -0.268 OA
BRANCH  33  36
HETATM   36  C   UNL     1      43.759 -18.425   4.302  1.00  0.00     0.035 A 
HETATM   37  C   UNL     1      44.016 -19.464   5.198  1.00  0.00     0.029 A 
HETATM   38  C   UNL     1      44.130 -20.782   4.743  1.00  0.00     0.002 A 
HETATM   39  C   UNL     1      43.983 -21.073   3.388  1.00  0.00     0.000 A 
HETATM   40  C   UNL     1      43.725 -20.045   2.486  1.00  0.00     0.002 A 
HETATM   41  C   UNL     1      43.619 -18.728   2.940  1.00  0.00     0.029 A 
ENDBRANCH  33  36
ENDBRANCH   9  32
TORSDOF 8
ENDMDL
MODEL 6
REMARK VINA RESULT:      -9.2      2.828      5.371
REMARK  8 active torsions:
REMARK  status: ('A' for Active; 'I' for Inactive)
REMARK    1  A    between atoms: C_4  and  S_5 
REMARK    2  A    between atoms: S_5  and  C_6 
REMARK    3  A    between atoms: C_6  and  C_7 
REMARK       I    between atoms: C_7  and  N_8 
REMARK    4  A    between atoms: N_8  and  C_9 
REMARK    5  A    between atoms: C_10  and  O_11 
REMARK    6  A    between atoms: C_22  and  C_23 
REMARK    7  A    between atoms: C_29  and  C_30 
REMARK       I    between atoms: C_30  and  N_31 
REMARK    8  A    between atoms: N_31  and  C_32 
ROOT
HETATM    1  C   UNL     1      41.438 -10.057   3.331  1.00  0.00     0.069 C 
HETATM    2  C   UNL     1      41.909 -11.347   3.963  1.00  0.00     0.019 A 
HETATM    3  N   UNL     1      42.963 -11.218   4.851  1.00  0.00    -0.353 N 
HETATM    4  C   UNL     1      43.501 -12.238   5.613  1.00  0.00     0.088 A 
HETATM    5  C   UNL     1      43.017 -13.495   5.474  1.00  0.00     0.069 A 
HETATM    6  C   UNL     1      43.455 -14.582   6.292  1.00  0.00     0.099 C 
HETATM    7  N   UNL     1      43.761 -15.490   6.948  1.00  0.00    -0.192 NA
HETATM    8  C   UNL     1      41.892 -13.792   4.474  1.00  0.00     0.106 A 
HETATM    9  C   UNL     1      41.355 -12.563   3.736  1.00  0.00     0.046 A 
HETATM   10  H   UNL     1      43.140 -10.280   5.216  1.00  0.00     0.166 HD
ENDROOT
BRANCH   4  11
HETATM   11  S   UNL     1      44.744 -11.889   6.804  1.00  0.00    -0.102 SA
BRANCH  11  12
HETATM   12  C   UNL     1      44.194 -10.272   7.436  1.00  0.00     0.184 C 
BRANCH  12  13
HETATM   13  C   UNL     1      43.496 -10.391   8.784  1.00  0.00     0.231 C 
HETATM   14  N   UNL     1      42.342  -9.713   9.038  1.00  0.00    -0.324 N 
HETATM   15  H   UNL     1      42.189  -9.560  10.032  1.00  0.00     0.169 HD
HETATM   16  O   UNL     1      44.002 -11.010   9.727  1.00  0.00    -0.272 OA
BRANCH  14  17
HETATM   17  C   UNL     1      41.308  -9.221   8.221  1.00  0.00     0.070 A 
HETATM   18  C   UNL     1      40.965  -7.859   8.381  1.00  0.00     0.095 A 
HETATM   19  C   UNL     1      39.915  -7.312   7.640  1.00  0.00     0.041 A 
HETATM   20  C   UNL     1      39.193  -8.116   6.757  1.00  0.00     0.026 A 
HETATM   21  C   UNL     1      39.508  -9.467   6.631  1.00  0.00     0.036 A 
HETATM   22 CL   UNL     1      38.579 -10.461   5.579  1.00  0.00    -0.084 Cl
HETATM   23  C   UNL     1      40.555 -10.026   7.366  1.00  0.00     0.056 A 
BRANCH  18  24
HETATM   24  O   UNL     1      41.728  -7.164   9.290  1.00  0.00    -0.354 OA
HETATM   25  C   UNL     1      41.049  -6.559  10.385  1.00  0.00     0.210 C 
ENDBRANCH  18  24
ENDBRANCH  14  17
ENDBRANCH  12  13
ENDBRANCH  11  12
ENDBRANCH   4  11
BRANCH   8  26
HETATM   26  C   UNL     1      42.289 -14.924   3.524  1.00  0.00    -0.044 A 
HETATM   27  C   UNL     1      43.242 -14.688   2.517  1.00  0.00     0.008 A 
HETATM   28  C   UNL     1      43.599 -15.700   1.624  1.00  0.00     0.001 A 
HETATM   29  C   UNL     1      43.008 -16.956   1.723  1.00  0.00     0.000 A 
HETATM   30  C   UNL     1      42.056 -17.202   2.709  1.00  0.00     0.001 A 
HETATM   31  C   UNL     1      41.693 -16.191   3.602  1.00  0.00     0.008 A 
ENDBRANCH   8  26
BRANCH   9  32
HETATM   32  C   UNL     1      40.236 -12.711   2.736  1.00  0.00     0.255 C 
HETATM   33  N   UNL     1      40.628 -12.684   1.413  1.00  0.00    -0.323 N 
HETATM   34  H   UNL     1      41.585 -12.454   1.198  1.00  0.00     0.169 HD
HETATM   35  O   UNL     1      39.077 -12.817   3.125  1.00  0.00    -0.268 OA
BRANCH  33  36
HETATM   36  C   UNL     1      39.819 -12.900   0.275  1.00  0.00     0.035 A 
HETATM   37  C   UNL     1      38.884 -11.982  -0.207  1.00  0.00     0.029 A 
HETATM   38  C   UNL     1      38.095 -12.290  -1.321  1.00  0.00     0.002 A 
HETATM   39  C   UNL     1      38.238 -13.516  -1.965  1.00  0.00     0.000 A 
HETATM   40  C   UNL     1      39.168 -14.438  -1.495  1.00  0.00     0.002 A 
HETATM   41  C   UNL     1      39.950 -14.133  -0.378  1.00  0.00     0.029 A 
ENDBRANCH  33  36
ENDBRANCH   9  32
TORSDOF 8
ENDMDL
MODEL 7
REMARK VINA RESULT:      -8.9      4.981      8.196
REMARK  8 active torsions:
REMARK  status: ('A' for Active; 'I' for Inactive)
REMARK    1  A    between atoms: C_4  and  S_5 
REMARK    2  A    between atoms: S_5  and  C_6 
REMARK    3  A    between atoms: C_6  and  C_7 
REMARK       I    between atoms: C_7  and  N_8 
REMARK    4  A    between atoms: N_8  and  C_9 
REMARK    5  A    between atoms: C_10  and  O_11 
REMARK    6  A    between atoms: C_22  and  C_23 
REMARK    7  A    between atoms: C_29  and  C_30 
REMARK       I    between atoms: C_30  and  N_31 
REMARK    8  A    between atoms: N_31  and  C_32 
ROOT
HETATM    1  C   UNL     1      39.915 -15.216   0.687  1.00  0.00     0.069 C 
HETATM    2  C   UNL     1      39.906 -14.147   1.756  1.00  0.00     0.019 A 
HETATM    3  N   UNL     1      39.423 -12.914   1.352  1.00  0.00    -0.353 N 
HETATM    4  C   UNL     1      39.236 -11.816   2.171  1.00  0.00     0.088 A 
HETATM    5  C   UNL     1      39.589 -11.896   3.476  1.00  0.00     0.069 A 
HETATM    6  C   UNL     1      39.340 -10.839   4.405  1.00  0.00     0.099 C 
HETATM    7  N   UNL     1      39.137 -10.018   5.202  1.00  0.00    -0.192 NA
HETATM    8  C   UNL     1      40.201 -13.184   4.042  1.00  0.00     0.106 A 
HETATM    9  C   UNL     1      40.302 -14.335   3.039  1.00  0.00     0.046 A 
HETATM   10  H   UNL     1      38.866 -12.900   0.495  1.00  0.00     0.166 HD
ENDROOT
BRANCH   4  11
HETATM   11  S   UNL     1      38.478 -10.363   1.541  1.00  0.00    -0.102 SA
BRANCH  11  12
HETATM   12  C   UNL     1      39.922  -9.283   1.288  1.00  0.00     0.184 C 
BRANCH  12  13
HETATM   13  C   UNL     1      41.062 -10.007   0.584  1.00  0.00     0.231 C 
HETATM   14  N   UNL     1      40.936 -10.429  -0.705  1.00  0.00    -0.324 N 
HETATM   15  H   UNL     1      41.563 -11.200  -0.928  1.00  0.00     0.169 HD
HETATM   16  O   UNL     1      42.093 -10.335   1.183  1.00  0.00    -0.272 OA
BRANCH  14  17
HETATM   17  C   UNL     1      40.154 -10.000  -1.792  1.00  0.00     0.070 A 
HETATM   18  C   UNL     1      39.160 -10.894  -2.253  1.00  0.00     0.095 A 
HETATM   19  C   UNL     1      38.378 -10.557  -3.361  1.00  0.00     0.041 A 
HETATM   20  C   UNL     1      38.591  -9.347  -4.022  1.00  0.00     0.026 A 
HETATM   21  C   UNL     1      39.597  -8.486  -3.589  1.00  0.00     0.036 A 
HETATM   22 CL   UNL     1      39.886  -7.021  -4.442  1.00  0.00    -0.084 Cl
HETATM   23  C   UNL     1      40.386  -8.810  -2.484  1.00  0.00     0.056 A 
BRANCH  18  24
HETATM   24  O   UNL     1      39.048 -12.066  -1.541  1.00  0.00    -0.354 OA
HETATM   25  C   UNL     1      37.957 -12.922  -1.862  1.00  0.00     0.210 C 
ENDBRANCH  18  24
ENDBRANCH  14  17
ENDBRANCH  12  13
ENDBRANCH  11  12
ENDBRANCH   4  11
BRANCH   8  26
HETATM   26  C   UNL     1      41.530 -12.896   4.745  1.00  0.00    -0.044 A 
HETATM   27  C   UNL     1      42.528 -12.163   4.078  1.00  0.00     0.008 A 
HETATM   28  C   UNL     1      43.756 -11.913   4.692  1.00  0.00     0.001 A 
HETATM   29  C   UNL     1      44.003 -12.390   5.975  1.00  0.00     0.000 A 
HETATM   30  C   UNL     1      43.028 -13.125   6.645  1.00  0.00     0.001 A 
HETATM   31  C   UNL     1      41.799 -13.382   6.033  1.00  0.00     0.008 A 
ENDBRANCH   8  26
BRANCH   9  32
HETATM   32  C   UNL     1      40.870 -15.665   3.468  1.00  0.00     0.255 C 
HETATM   33  N   UNL     1      42.131 -15.944   2.983  1.00  0.00    -0.323 N 
HETATM   34  H   UNL     1      42.533 -15.324   2.298  1.00  0.00     0.169 HD
HETATM   35  O   UNL     1      40.204 -16.414   4.175  1.00  0.00    -0.268 OA
BRANCH  33  36
HETATM   36  C   UNL     1      42.943 -17.057   3.299  1.00  0.00     0.035 A 
HETATM   37  C   UNL     1      43.121 -18.160   2.462  1.00  0.00     0.029 A 
HETATM   38  C   UNL     1      43.914 -19.239   2.868  1.00  0.00     0.002 A 
HETATM   39  C   UNL     1      44.541 -19.221   4.112  1.00  0.00     0.000 A 
HETATM   40  C   UNL     1      44.373 -18.125   4.953  1.00  0.00     0.002 A 
HETATM   41  C   UNL     1      43.575 -17.052   4.551  1.00  0.00     0.029 A 
ENDBRANCH  33  36
ENDBRANCH   9  32
TORSDOF 8
ENDMDL
MODEL 8
REMARK VINA RESULT:      -8.8      1.934      2.409
REMARK  8 active torsions:
REMARK  status: ('A' for Active; 'I' for Inactive)
REMARK    1  A    between atoms: C_4  and  S_5 
REMARK    2  A    between atoms: S_5  and  C_6 
REMARK    3  A    between atoms: C_6  and  C_7 
REMARK       I    between atoms: C_7  and  N_8 
REMARK    4  A    between atoms: N_8  and  C_9 
REMARK    5  A    between atoms: C_10  and  O_11 
REMARK    6  A    between atoms: C_22  and  C_23 
REMARK    7  A    between atoms: C_29  and  C_30 
REMARK       I    between atoms: C_30  and  N_31 
REMARK    8  A    between atoms: N_31  and  C_32 
ROOT
HETATM    1  C   UNL     1      43.163 -15.283   8.198  1.00  0.00     0.069 C 
HETATM    2  C   UNL     1      43.049 -14.452   6.940  1.00  0.00     0.019 A 
HETATM    3  N   UNL     1      42.501 -13.193   7.113  1.00  0.00    -0.353 N 
HETATM    4  C   UNL     1      42.380 -12.227   6.132  1.00  0.00     0.088 A 
HETATM    5  C   UNL     1      42.774 -12.513   4.869  1.00  0.00     0.069 A 
HETATM    6  C   UNL     1      42.769 -11.539   3.822  1.00  0.00     0.099 C 
HETATM    7  N   UNL     1      42.806 -10.777   2.947  1.00  0.00    -0.192 NA
HETATM    8  C   UNL     1      43.338 -13.897   4.521  1.00  0.00     0.106 A 
HETATM    9  C   UNL     1      43.465 -14.850   5.713  1.00  0.00     0.046 A 
HETATM   10  H   UNL     1      42.488 -12.828   8.068  1.00  0.00     0.166 HD
ENDROOT
BRANCH   4  11
HETATM   11  S   UNL     1      41.794 -10.622   6.540  1.00  0.00    -0.102 SA
BRANCH  11  12
HETATM   12  C   UNL     1      43.266  -9.890   7.322  1.00  0.00     0.184 C 
BRANCH  12  13
HETATM   13  C   UNL     1      43.435 -10.346   8.765  1.00  0.00     0.231 C 
HETATM   14  N   UNL     1      43.261  -9.476   9.800  1.00  0.00    -0.324 N 
HETATM   15  H   UNL     1      43.756  -9.766  10.641  1.00  0.00     0.169 HD
HETATM   16  O   UNL     1      43.841 -11.479   9.047  1.00  0.00    -0.272 OA
BRANCH  14  17
HETATM   17  C   UNL     1      42.515  -8.295   9.957  1.00  0.00     0.070 A 
HETATM   18  C   UNL     1      41.107  -8.426   9.953  1.00  0.00     0.095 A 
HETATM   19  C   UNL     1      40.300  -7.290  10.054  1.00  0.00     0.041 A 
HETATM   20  C   UNL     1      40.885  -6.026  10.139  1.00  0.00     0.026 A 
HETATM   21  C   UNL     1      42.271  -5.897  10.103  1.00  0.00     0.036 A 
HETATM   22 CL   UNL     1      42.980  -4.331  10.156  1.00  0.00    -0.084 Cl
HETATM   23  C   UNL     1      43.089  -7.023  10.002  1.00  0.00     0.056 A 
BRANCH  18  24
HETATM   24  O   UNL     1      40.638  -9.715   9.846  1.00  0.00    -0.354 OA
HETATM   25  C   UNL     1      39.322  -9.889   9.332  1.00  0.00     0.210 C 
ENDBRANCH  18  24
ENDBRANCH  14  17
ENDBRANCH  12  13
ENDBRANCH  11  12
ENDBRANCH   4  11
BRANCH   8  26
HETATM   26  C   UNL     1      42.580 -14.519   3.347  1.00  0.00    -0.044 A 
HETATM   27  C   UNL     1      41.194 -14.738   3.448  1.00  0.00     0.008 A 
HETATM   28  C   UNL     1      40.488 -15.327   2.398  1.00  0.00     0.001 A 
HETATM   29  C   UNL     1      41.156 -15.708   1.238  1.00  0.00     0.000 A 
HETATM   30  C   UNL     1      42.530 -15.506   1.127  1.00  0.00     0.001 A 
HETATM   31  C   UNL     1      43.240 -14.920   2.176  1.00  0.00     0.008 A 
ENDBRANCH   8  26
BRANCH   9  32
HETATM   32  C   UNL     1      44.021 -16.238   5.515  1.00  0.00     0.255 C 
HETATM   33  N   UNL     1      43.144 -17.144   4.954  1.00  0.00    -0.323 N 
HETATM   34  H   UNL     1      42.183 -16.870   4.828  1.00  0.00     0.169 HD
HETATM   35  O   UNL     1      45.168 -16.494   5.870  1.00  0.00    -0.268 OA
BRANCH  33  36
HETATM   36  C   UNL     1      43.420 -18.474   4.564  1.00  0.00     0.035 A 
HETATM   37  C   UNL     1      43.706 -19.509   5.456  1.00  0.00     0.029 A 
HETATM   38  C   UNL     1      44.005 -20.791   4.983  1.00  0.00     0.002 A 
HETATM   39  C   UNL     1      44.014 -21.051   3.614  1.00  0.00     0.000 A 
HETATM   40  C   UNL     1      43.727 -20.028   2.716  1.00  0.00     0.002 A 
HETATM   41  C   UNL     1      43.436 -18.745   3.189  1.00  0.00     0.029 A 
ENDBRANCH  33  36
ENDBRANCH   9  32
TORSDOF 8
ENDMDL
MODEL 9
REMARK VINA RESULT:      -8.7      2.579      5.337
REMARK  8 active torsions:
REMARK  status: ('A' for Active; 'I' for Inactive)
REMARK    1  A    between atoms: C_4  and  S_5 
REMARK    2  A    between atoms: S_5  and  C_6 
REMARK    3  A    between atoms: C_6  and  C_7 
REMARK       I    between atoms: C_7  and  N_8 
REMARK    4  A    between atoms: N_8  and  C_9 
REMARK    5  A    between atoms: C_10  and  O_11 
REMARK    6  A    between atoms: C_22  and  C_23 
REMARK    7  A    between atoms: C_29  and  C_30 
REMARK       I    between atoms: C_30  and  N_31 
REMARK    8  A    between atoms: N_31  and  C_32 
ROOT
HETATM    1  C   UNL     1      40.006  -9.842   2.432  1.00  0.00     0.069 C 
HETATM    2  C   UNL     1      40.612 -10.955   3.256  1.00  0.00     0.019 A 
HETATM    3  N   UNL     1      41.470 -10.545   4.261  1.00  0.00    -0.353 N 
HETATM    4  C   UNL     1      42.069 -11.370   5.194  1.00  0.00     0.088 A 
HETATM    5  C   UNL     1      41.863 -12.707   5.125  1.00  0.00     0.069 A 
HETATM    6  C   UNL     1      42.369 -13.615   6.106  1.00  0.00     0.099 C 
HETATM    7  N   UNL     1      42.738 -14.387   6.890  1.00  0.00    -0.192 NA
HETATM    8  C   UNL     1      40.987 -13.306   4.017  1.00  0.00     0.106 A 
HETATM    9  C   UNL     1      40.345 -12.274   3.086  1.00  0.00     0.046 A 
HETATM   10  H   UNL     1      41.404  -9.565   4.546  1.00  0.00     0.166 HD
ENDROOT
BRANCH   4  11
HETATM   11  S   UNL     1      43.021 -10.683   6.501  1.00  0.00    -0.102 SA
BRANCH  11  12
HETATM   12  C   UNL     1      41.763  -9.714   7.392  1.00  0.00     0.184 C 
BRANCH  12  13
HETATM   13  C   UNL     1      42.298  -8.365   7.853  1.00  0.00     0.231 C 
HETATM   14  N   UNL     1      42.236  -7.997   9.164  1.00  0.00    -0.324 N 
HETATM   15  H   UNL     1      42.254  -6.987   9.287  1.00  0.00     0.169 HD
HETATM   16  O   UNL     1      42.702  -7.516   7.050  1.00  0.00    -0.272 OA
BRANCH  14  17
HETATM   17  C   UNL     1      42.193  -8.718  10.370  1.00  0.00     0.070 A 
HETATM   18  C   UNL     1      43.421  -9.231  10.848  1.00  0.00     0.095 A 
HETATM   19  C   UNL     1      43.449 -10.000  12.015  1.00  0.00     0.041 A 
HETATM   20  C   UNL     1      42.262 -10.277  12.695  1.00  0.00     0.026 A 
HETATM   21  C   UNL     1      41.051  -9.802  12.200  1.00  0.00     0.036 A 
HETATM   22 CL   UNL     1      39.588 -10.191  13.017  1.00  0.00    -0.084 Cl
HETATM   23  C   UNL     1      41.008  -9.033  11.036  1.00  0.00     0.056 A 
BRANCH  18  24
HETATM   24  O   UNL     1      44.525  -8.915  10.091  1.00  0.00    -0.354 OA
HETATM   25  C   UNL     1      45.297  -9.996   9.580  1.00  0.00     0.210 C 
ENDBRANCH  18  24
ENDBRANCH  14  17
ENDBRANCH  12  13
ENDBRANCH  11  12
ENDBRANCH   4  11
BRANCH   8  26
HETATM   26  C   UNL     1      41.737 -14.401   3.256  1.00  0.00    -0.044 A 
HETATM   27  C   UNL     1      42.855 -14.065   2.471  1.00  0.00     0.008 A 
HETATM   28  C   UNL     1      43.537 -15.045   1.749  1.00  0.00     0.001 A 
HETATM   29  C   UNL     1      43.113 -16.369   1.799  1.00  0.00     0.000 A 
HETATM   30  C   UNL     1      42.002 -16.716   2.565  1.00  0.00     0.001 A 
HETATM   31  C   UNL     1      41.314 -15.738   3.286  1.00  0.00     0.008 A 
ENDBRANCH   8  26
BRANCH   9  32
HETATM   32  C   UNL     1      39.445 -12.725   1.962  1.00  0.00     0.255 C 
HETATM   33  N   UNL     1      39.999 -12.639   0.701  1.00  0.00    -0.323 N 
HETATM   34  H   UNL     1      40.890 -12.183   0.596  1.00  0.00     0.169 HD
HETATM   35  O   UNL     1      38.305 -13.106   2.208  1.00  0.00    -0.268 OA
BRANCH  33  36
HETATM   36  C   UNL     1      39.431 -13.083  -0.515  1.00  0.00     0.035 A 
HETATM   37  C   UNL     1      38.644 -12.287  -1.348  1.00  0.00     0.029 A 
HETATM   38  C   UNL     1      38.089 -12.816  -2.519  1.00  0.00     0.002 A 
HETATM   39  C   UNL     1      38.322 -14.144  -2.868  1.00  0.00     0.000 A 
HETATM   40  C   UNL     1      39.108 -14.946  -2.047  1.00  0.00     0.002 A 
HETATM   41  C   UNL     1      39.655 -14.419  -0.874  1.00  0.00     0.029 A 
ENDBRANCH  33  36
ENDBRANCH   9  32
TORSDOF 8
ENDMDL
MODEL 10
REMARK VINA RESULT:      -8.7      3.498      7.053
REMARK  8 active torsions:
REMARK  status: ('A' for Active; 'I' for Inactive)
REMARK    1  A    between atoms: C_4  and  S_5 
REMARK    2  A    between atoms: S_5  and  C_6 
REMARK    3  A    between atoms: C_6  and  C_7 
REMARK       I    between atoms: C_7  and  N_8 
REMARK    4  A    between atoms: N_8  and  C_9 
REMARK    5  A    between atoms: C_10  and  O_11 
REMARK    6  A    between atoms: C_22  and  C_23 
REMARK    7  A    between atoms: C_29  and  C_30 
REMARK       I    between atoms: C_30  and  N_31 
REMARK    8  A    between atoms: N_31  and  C_32 
ROOT
HETATM    1  C   UNL     1      43.054 -11.306   3.511  1.00  0.00     0.069 C 
HETATM    2  C   UNL     1      42.729 -10.530   4.767  1.00  0.00     0.019 A 
HETATM    3  N   UNL     1      42.198  -9.269   4.559  1.00  0.00    -0.353 N 
HETATM    4  C   UNL     1      41.742  -8.415   5.546  1.00  0.00     0.088 A 
HETATM    5  C   UNL     1      41.850  -8.787   6.844  1.00  0.00     0.069 A 
HETATM    6  C   UNL     1      41.318  -8.003   7.915  1.00  0.00     0.099 C 
HETATM    7  N   UNL     1      40.881  -7.414   8.815  1.00  0.00    -0.192 NA
HETATM    8  C   UNL     1      42.482 -10.133   7.221  1.00  0.00     0.106 A 
HETATM    9  C   UNL     1      42.894 -10.999   6.028  1.00  0.00     0.046 A 
HETATM   10  H   UNL     1      41.813  -9.083   3.630  1.00  0.00     0.166 HD
ENDROOT
BRANCH   4  11
HETATM   11  S   UNL     1      40.962  -6.902   5.115  1.00  0.00    -0.102 SA
BRANCH  11  12
HETATM   12  C   UNL     1      39.735  -7.466   3.893  1.00  0.00     0.184 C 
BRANCH  12  13
HETATM   13  C   UNL     1      38.385  -7.763   4.530  1.00  0.00     0.231 C 
HETATM   14  N   UNL     1      37.879  -9.029   4.543  1.00  0.00    -0.324 N 
HETATM   15  H   UNL     1      36.865  -9.043   4.629  1.00  0.00     0.169 HD
HETATM   16  O   UNL     1      37.653  -6.863   4.957  1.00  0.00    -0.272 OA
BRANCH  14  17
HETATM   17  C   UNL     1      38.465 -10.306   4.500  1.00  0.00     0.070 A 
HETATM   18  C   UNL     1      38.827 -10.882   5.740  1.00  0.00     0.095 A 
HETATM   19  C   UNL     1      39.459 -12.127   5.773  1.00  0.00     0.041 A 
HETATM   20  C   UNL     1      39.752 -12.792   4.581  1.00  0.00     0.026 A 
HETATM   21  C   UNL     1      39.429 -12.204   3.361  1.00  0.00     0.036 A 
HETATM   22 CL   UNL     1      39.840 -13.008   1.896  1.00  0.00    -0.084 Cl
HETATM   23  C   UNL     1      38.797 -10.960   3.312  1.00  0.00     0.056 A 
BRANCH  18  24
HETATM   24  O   UNL     1      38.510 -10.133   6.850  1.00  0.00    -0.354 OA
HETATM   25  C   UNL     1      38.920 -10.638   8.115  1.00  0.00     0.210 C 
ENDBRANCH  18  24
ENDBRANCH  14  17
ENDBRANCH  12  13
ENDBRANCH  11  12
ENDBRANCH   4  11
BRANCH   8  26
HETATM   26  C   UNL     1      43.616  -9.943   8.231  1.00  0.00    -0.044 A 
HETATM   27  C   UNL     1      43.462 -10.409   9.549  1.00  0.00     0.008 A 
HETATM   28  C   UNL     1      44.475 -10.223  10.492  1.00  0.00     0.001 A 
HETATM   29  C   UNL     1      45.649  -9.568  10.132  1.00  0.00     0.000 A 
HETATM   30  C   UNL     1      45.812  -9.092   8.833  1.00  0.00     0.001 A 
HETATM   31  C   UNL     1      44.800  -9.274   7.888  1.00  0.00     0.008 A 
ENDBRANCH   8  26
BRANCH   9  32
HETATM   32  C   UNL     1      43.514 -12.355   6.256  1.00  0.00     0.255 C 
HETATM   33  N   UNL     1      42.625 -13.410   6.252  1.00  0.00    -0.323 N 
HETATM   34  H   UNL     1      41.638 -13.210   6.223  1.00  0.00     0.169 HD
HETATM   35  O   UNL     1      44.722 -12.451   6.449  1.00  0.00    -0.268 OA
BRANCH  33  36
HETATM   36  C   UNL     1      42.930 -14.788   6.338  1.00  0.00     0.035 A 
HETATM   37  C   UNL     1      43.088 -15.483   7.538  1.00  0.00     0.029 A 
HETATM   38  C   UNL     1      43.427 -16.840   7.534  1.00  0.00     0.002 A 
HETATM   39  C   UNL     1      43.606 -17.515   6.329  1.00  0.00     0.000 A 
HETATM   40  C   UNL     1      43.448 -16.834   5.126  1.00  0.00     0.002 A 
HETATM   41  C   UNL     1      43.117 -15.477   5.131  1.00  0.00     0.029 A 
ENDBRANCH  33  36
ENDBRANCH   9  32
TORSDOF 8
ENDMDL
