MODEL 1
REMARK VINA RESULT:      -7.8      0.000      0.000
REMARK  10 active torsions:
REMARK  status: ('A' for Active; 'I' for Inactive)
REMARK    1  A    between atoms: C_2  and  O_3 
REMARK    2  A    between atoms: O_3  and  C_4 
REMARK    3  A    between atoms: C_4  and  C_5 
REMARK    4  A    between atoms: C_10  and  N_11 
REMARK       I    between atoms: N_11  and  C_12 
REMARK    5  A    between atoms: C_12  and  C_13 
REMARK    6  A    between atoms: C_13  and  C_14 
REMARK    7  A    between atoms: C_14  and  N_15 
REMARK    8  A    between atoms: C_19  and  C_20 
REMARK    9  A    between atoms: C_20  and  O_21 
REMARK   10  A    between atoms: O_21  and  C_22 
ROOT
HETATM    1  N   UNL     1      41.949 -12.063   3.059  1.00  0.00    -0.324 N 
HETATM    2  C   UNL     1      42.703 -11.231   3.815  1.00  0.00     0.223 C 
HETATM    3  O   UNL     1      42.254 -10.111   4.080  1.00  0.00    -0.273 OA
HETATM    4  H   UNL     1      41.073 -11.596   2.807  1.00  0.00     0.169 HD
ENDROOT
BRANCH   1   5
HETATM    5  C   UNL     1      42.072 -13.344   2.521  1.00  0.00     0.080 A 
HETATM    6  C   UNL     1      41.636 -13.536   1.209  1.00  0.00     0.137 A 
HETATM    7  N   UNL     1      41.898 -14.834   0.862  1.00  0.00    -0.349 N 
HETATM    8  H   UNL     1      41.688 -15.231  -0.046  1.00  0.00     0.166 HD
HETATM    9  C   UNL     1      42.448 -15.518   1.911  1.00  0.00     0.045 A 
HETATM   10  C   UNL     1      42.555 -14.625   2.988  1.00  0.00     0.021 A 
HETATM   11  C   UNL     1      42.840 -16.864   1.961  1.00  0.00     0.032 A 
HETATM   12  C   UNL     1      43.065 -15.178   4.186  1.00  0.00     0.035 A 
HETATM   13  C   UNL     1      43.451 -16.524   4.257  1.00  0.00     0.012 A 
HETATM   14  C   UNL     1      43.349 -17.359   3.159  1.00  0.00     0.021 A 
HETATM   15 BR   UNL     1      44.117 -17.199   5.897  1.00  0.00    -0.051 Br
BRANCH   6  16
HETATM   16  C   UNL     1      41.010 -12.592   0.308  1.00  0.00     0.312 C 
HETATM   17  O   UNL     1      41.239 -11.391   0.305  1.00  0.00    -0.258 OA
BRANCH  16  18
HETATM   18  O   UNL     1      40.128 -13.237  -0.502  1.00  0.00    -0.317 OA
BRANCH  18  19
HETATM   19  C   UNL     1      40.326 -13.048  -1.912  1.00  0.00     0.175 C 
HETATM   20  C   UNL     1      39.682 -14.181  -2.689  1.00  0.00     0.034 C 
ENDBRANCH  18  19
ENDBRANCH  16  18
ENDBRANCH   6  16
ENDBRANCH   1   5
BRANCH   2  21
HETATM   21  C   UNL     1      44.049 -11.620   4.343  1.00  0.00     0.131 C 
BRANCH  21  22
HETATM   22  C   UNL     1      43.970 -11.771   5.858  1.00  0.00     0.244 C 
BRANCH  22  23
HETATM   23  N   UNL     1      44.432 -10.516   6.611  1.00  0.00    -0.071 N 
HETATM   24  H   UNL     1      44.645  -9.800   5.901  1.00  0.00     0.279 HD
HETATM   25  C   UNL     1      43.263  -9.998   7.433  1.00  0.00     0.235 C 
HETATM   26  C   UNL     1      43.662  -8.757   8.215  1.00  0.00     0.042 C 
HETATM   27  C   UNL     1      44.872  -9.018   9.113  1.00  0.00     0.088 C 
HETATM   28  C   UNL     1      46.035  -9.490   8.234  1.00  0.00     0.042 C 
HETATM   29  C   UNL     1      45.686 -10.739   7.430  1.00  0.00     0.235 C 
BRANCH  27  30
HETATM   30  C   UNL     1      44.576 -10.048  10.197  1.00  0.00     0.263 C 
HETATM   31  O   UNL     1      45.399 -10.858  10.601  1.00  0.00    -0.265 OA
BRANCH  30  32
HETATM   32  O   UNL     1      43.282  -9.982  10.595  1.00  0.00    -0.322 OA
BRANCH  32  33
HETATM   33  C   UNL     1      43.069  -9.824  12.010  1.00  0.00     0.174 C 
HETATM   34  C   UNL     1      43.360  -8.392  12.421  1.00  0.00     0.034 C 
ENDBRANCH  32  33
ENDBRANCH  30  32
ENDBRANCH  27  30
ENDBRANCH  22  23
ENDBRANCH  21  22
ENDBRANCH   2  21
TORSDOF 10
ENDMDL
MODEL 2
REMARK VINA RESULT:      -7.6      3.128      8.917
REMARK  10 active torsions:
REMARK  status: ('A' for Active; 'I' for Inactive)
REMARK    1  A    between atoms: C_2  and  O_3 
REMARK    2  A    between atoms: O_3  and  C_4 
REMARK    3  A    between atoms: C_4  and  C_5 
REMARK    4  A    between atoms: C_10  and  N_11 
REMARK       I    between atoms: N_11  and  C_12 
REMARK    5  A    between atoms: C_12  and  C_13 
REMARK    6  A    between atoms: C_13  and  C_14 
REMARK    7  A    between atoms: C_14  and  N_15 
REMARK    8  A    between atoms: C_19  and  C_20 
REMARK    9  A    between atoms: C_20  and  O_21 
REMARK   10  A    between atoms: O_21  and  C_22 
ROOT
HETATM    1  N   UNL     1      40.827 -14.638   3.951  1.00  0.00    -0.324 N 
HETATM    2  C   UNL     1      40.360 -14.286   2.730  1.00  0.00     0.223 C 
HETATM    3  O   UNL     1      39.247 -13.756   2.658  1.00  0.00    -0.273 OA
HETATM    4  H   UNL     1      40.132 -14.397   4.664  1.00  0.00     0.169 HD
ENDROOT
BRANCH   1   5
HETATM    5  C   UNL     1      41.964 -15.259   4.467  1.00  0.00     0.080 A 
HETATM    6  C   UNL     1      42.642 -14.606   5.498  1.00  0.00     0.137 A 
HETATM    7  N   UNL     1      43.681 -15.405   5.893  1.00  0.00    -0.349 N 
HETATM    8  H   UNL     1      44.327 -15.168   6.637  1.00  0.00     0.166 HD
HETATM    9  C   UNL     1      43.742 -16.539   5.131  1.00  0.00     0.045 A 
HETATM   10  C   UNL     1      42.693 -16.479   4.201  1.00  0.00     0.021 A 
HETATM   11  C   UNL     1      44.666 -17.591   5.210  1.00  0.00     0.032 A 
HETATM   12  C   UNL     1      42.630 -17.559   3.289  1.00  0.00     0.035 A 
HETATM   13  C   UNL     1      43.551 -18.614   3.347  1.00  0.00     0.012 A 
HETATM   14  C   UNL     1      44.554 -18.638   4.299  1.00  0.00     0.021 A 
HETATM   15 BR   UNL     1      43.411 -20.022   2.087  1.00  0.00    -0.051 Br
BRANCH   6  16
HETATM   16  C   UNL     1      42.367 -13.319   6.099  1.00  0.00     0.312 C 
HETATM   17  O   UNL     1      41.296 -12.734   6.010  1.00  0.00    -0.258 OA
BRANCH  16  18
HETATM   18  O   UNL     1      43.473 -12.862   6.747  1.00  0.00    -0.317 OA
BRANCH  18  19
HETATM   19  C   UNL     1      44.169 -11.782   6.105  1.00  0.00     0.175 C 
HETATM   20  C   UNL     1      45.450 -11.466   6.852  1.00  0.00     0.034 C 
ENDBRANCH  18  19
ENDBRANCH  16  18
ENDBRANCH   6  16
ENDBRANCH   1   5
BRANCH   2  21
HETATM   21  C   UNL     1      41.144 -14.509   1.473  1.00  0.00     0.131 C 
BRANCH  21  22
HETATM   22  C   UNL     1      41.347 -13.174   0.765  1.00  0.00     0.244 C 
BRANCH  22  23
HETATM   23  N   UNL     1      41.126 -13.260  -0.751  1.00  0.00    -0.071 N 
HETATM   24  H   UNL     1      41.969 -13.692  -1.155  1.00  0.00     0.279 HD
HETATM   25  C   UNL     1      39.967 -14.209  -1.009  1.00  0.00     0.235 C 
HETATM   26  C   UNL     1      39.688 -14.328  -2.499  1.00  0.00     0.042 C 
HETATM   27  C   UNL     1      39.412 -12.964  -3.134  1.00  0.00     0.088 C 
HETATM   28  C   UNL     1      40.626 -12.061  -2.889  1.00  0.00     0.042 C 
HETATM   29  C   UNL     1      40.945 -11.906  -1.405  1.00  0.00     0.235 C 
BRANCH  27  30
HETATM   30  C   UNL     1      38.149 -12.313  -2.581  1.00  0.00     0.263 C 
HETATM   31  O   UNL     1      37.291 -12.926  -1.961  1.00  0.00    -0.265 OA
BRANCH  30  32
HETATM   32  O   UNL     1      38.084 -11.003  -2.924  1.00  0.00    -0.322 OA
BRANCH  32  33
HETATM   33  C   UNL     1      37.221 -10.186  -2.112  1.00  0.00     0.174 C 
HETATM   34  C   UNL     1      37.972  -9.696  -0.887  1.00  0.00     0.034 C 
ENDBRANCH  32  33
ENDBRANCH  30  32
ENDBRANCH  27  30
ENDBRANCH  22  23
ENDBRANCH  21  22
ENDBRANCH   2  21
TORSDOF 10
ENDMDL
MODEL 3
REMARK VINA RESULT:      -7.5      2.528      8.877
REMARK  10 active torsions:
REMARK  status: ('A' for Active; 'I' for Inactive)
REMARK    1  A    between atoms: C_2  and  O_3 
REMARK    2  A    between atoms: O_3  and  C_4 
REMARK    3  A    between atoms: C_4  and  C_5 
REMARK    4  A    between atoms: C_10  and  N_11 
REMARK       I    between atoms: N_11  and  C_12 
REMARK    5  A    between atoms: C_12  and  C_13 
REMARK    6  A    between atoms: C_13  and  C_14 
REMARK    7  A    between atoms: C_14  and  N_15 
REMARK    8  A    between atoms: C_19  and  C_20 
REMARK    9  A    between atoms: C_20  and  O_21 
REMARK   10  A    between atoms: O_21  and  C_22 
ROOT
HETATM    1  N   UNL     1      42.870 -12.695   3.692  1.00  0.00    -0.324 N 
HETATM    2  C   UNL     1      42.091 -12.427   2.618  1.00  0.00     0.223 C 
HETATM    3  O   UNL     1      42.205 -11.325   2.071  1.00  0.00    -0.273 OA
HETATM    4  H   UNL     1      43.462 -11.884   3.895  1.00  0.00     0.169 HD
ENDROOT
BRANCH   1   5
HETATM    5  C   UNL     1      43.041 -13.749   4.589  1.00  0.00     0.080 A 
HETATM    6  C   UNL     1      43.156 -13.429   5.943  1.00  0.00     0.137 A 
HETATM    7  N   UNL     1      43.257 -14.599   6.647  1.00  0.00    -0.349 N 
HETATM    8  H   UNL     1      43.341 -14.649   7.655  1.00  0.00     0.166 HD
HETATM    9  C   UNL     1      43.260 -15.677   5.804  1.00  0.00     0.045 A 
HETATM   10  C   UNL     1      43.150 -15.188   4.493  1.00  0.00     0.021 A 
HETATM   11  C   UNL     1      43.364 -17.037   6.132  1.00  0.00     0.032 A 
HETATM   12  C   UNL     1      43.185 -16.169   3.475  1.00  0.00     0.035 A 
HETATM   13  C   UNL     1      43.299 -17.532   3.784  1.00  0.00     0.012 A 
HETATM   14  C   UNL     1      43.380 -17.966   5.095  1.00  0.00     0.021 A 
HETATM   15 BR   UNL     1      43.349 -18.790   2.369  1.00  0.00    -0.051 Br
BRANCH   6  16
HETATM   16  C   UNL     1      43.175 -12.128   6.576  1.00  0.00     0.312 C 
HETATM   17  O   UNL     1      42.575 -11.150   6.151  1.00  0.00    -0.258 OA
BRANCH  16  18
HETATM   18  O   UNL     1      43.967 -12.159   7.682  1.00  0.00    -0.317 OA
BRANCH  18  19
HETATM   19  C   UNL     1      44.903 -11.076   7.807  1.00  0.00     0.175 C 
HETATM   20  C   UNL     1      45.976 -11.183   6.741  1.00  0.00     0.034 C 
ENDBRANCH  18  19
ENDBRANCH  16  18
ENDBRANCH   6  16
ENDBRANCH   1   5
BRANCH   2  21
HETATM   21  C   UNL     1      41.109 -13.415   2.069  1.00  0.00     0.131 C 
BRANCH  21  22
HETATM   22  C   UNL     1      39.809 -12.694   1.729  1.00  0.00     0.244 C 
BRANCH  22  23
HETATM   23  N   UNL     1      39.091 -13.293   0.512  1.00  0.00    -0.071 N 
HETATM   24  H   UNL     1      38.284 -13.824   0.869  1.00  0.00     0.279 HD
HETATM   25  C   UNL     1      38.542 -12.149  -0.325  1.00  0.00     0.235 C 
HETATM   26  C   UNL     1      37.826 -12.678  -1.558  1.00  0.00     0.042 C 
HETATM   27  C   UNL     1      38.739 -13.567  -2.404  1.00  0.00     0.088 C 
HETATM   28  C   UNL     1      39.227 -14.729  -1.532  1.00  0.00     0.042 C 
HETATM   29  C   UNL     1      39.957 -14.249  -0.281  1.00  0.00     0.235 C 
BRANCH  27  30
HETATM   30  C   UNL     1      39.926 -12.800  -2.976  1.00  0.00     0.263 C 
HETATM   31  O   UNL     1      40.984 -13.328  -3.286  1.00  0.00    -0.265 OA
BRANCH  30  32
HETATM   32  O   UNL     1      39.668 -11.470  -3.030  1.00  0.00    -0.322 OA
BRANCH  32  33
HETATM   33  C   UNL     1      40.819 -10.613  -3.139  1.00  0.00     0.174 C 
HETATM   34  C   UNL     1      41.369 -10.305  -1.757  1.00  0.00     0.034 C 
ENDBRANCH  32  33
ENDBRANCH  30  32
ENDBRANCH  27  30
ENDBRANCH  22  23
ENDBRANCH  21  22
ENDBRANCH   2  21
TORSDOF 10
ENDMDL
MODEL 4
REMARK VINA RESULT:      -7.4      1.391      1.502
REMARK  10 active torsions:
REMARK  status: ('A' for Active; 'I' for Inactive)
REMARK    1  A    between atoms: C_2  and  O_3 
REMARK    2  A    between atoms: O_3  and  C_4 
REMARK    3  A    between atoms: C_4  and  C_5 
REMARK    4  A    between atoms: C_10  and  N_11 
REMARK       I    between atoms: N_11  and  C_12 
REMARK    5  A    between atoms: C_12  and  C_13 
REMARK    6  A    between atoms: C_13  and  C_14 
REMARK    7  A    between atoms: C_14  and  N_15 
REMARK    8  A    between atoms: C_19  and  C_20 
REMARK    9  A    between atoms: C_20  and  O_21 
REMARK   10  A    between atoms: O_21  and  C_22 
ROOT
HETATM    1  N   UNL     1      40.954 -13.766   4.553  1.00  0.00    -0.324 N 
HETATM    2  C   UNL     1      41.435 -12.707   5.247  1.00  0.00     0.223 C 
HETATM    3  O   UNL     1      40.671 -12.113   6.014  1.00  0.00    -0.273 OA
HETATM    4  H   UNL     1      39.967 -13.908   4.789  1.00  0.00     0.169 HD
ENDROOT
BRANCH   1   5
HETATM    5  C   UNL     1      41.435 -14.664   3.601  1.00  0.00     0.080 A 
HETATM    6  C   UNL     1      41.204 -14.363   2.257  1.00  0.00     0.137 A 
HETATM    7  N   UNL     1      41.802 -15.332   1.498  1.00  0.00    -0.349 N 
HETATM    8  H   UNL     1      41.793 -15.345   0.485  1.00  0.00     0.166 HD
HETATM    9  C   UNL     1      42.379 -16.286   2.291  1.00  0.00     0.045 A 
HETATM   10  C   UNL     1      42.152 -15.920   3.626  1.00  0.00     0.021 A 
HETATM   11  C   UNL     1      43.070 -17.442   1.897  1.00  0.00     0.032 A 
HETATM   12  C   UNL     1      42.644 -16.825   4.595  1.00  0.00     0.035 A 
HETATM   13  C   UNL     1      43.327 -17.991   4.219  1.00  0.00     0.012 A 
HETATM   14  C   UNL     1      43.547 -18.296   2.888  1.00  0.00     0.021 A 
HETATM   15 BR   UNL     1      43.949 -19.163   5.571  1.00  0.00    -0.051 Br
BRANCH   6  16
HETATM   16  C   UNL     1      40.475 -13.253   1.683  1.00  0.00     0.312 C 
HETATM   17  O   UNL     1      39.634 -12.599   2.285  1.00  0.00    -0.258 OA
BRANCH  16  18
HETATM   18  O   UNL     1      40.851 -13.068   0.388  1.00  0.00    -0.317 OA
BRANCH  18  19
HETATM   19  C   UNL     1      39.779 -12.960  -0.561  1.00  0.00     0.175 C 
HETATM   20  C   UNL     1      39.449 -14.323  -1.138  1.00  0.00     0.034 C 
ENDBRANCH  18  19
ENDBRANCH  16  18
ENDBRANCH   6  16
ENDBRANCH   1   5
BRANCH   2  21
HETATM   21  C   UNL     1      42.852 -12.240   5.121  1.00  0.00     0.131 C 
BRANCH  21  22
HETATM   22  C   UNL     1      43.515 -12.273   6.494  1.00  0.00     0.244 C 
BRANCH  22  23
HETATM   23  N   UNL     1      44.142 -10.930   6.891  1.00  0.00    -0.071 N 
HETATM   24  H   UNL     1      44.256 -10.384   6.026  1.00  0.00     0.279 HD
HETATM   25  C   UNL     1      43.150 -10.183   7.766  1.00  0.00     0.235 C 
HETATM   26  C   UNL     1      43.719  -8.843   8.205  1.00  0.00     0.042 C 
HETATM   27  C   UNL     1      45.054  -9.006   8.932  1.00  0.00     0.088 C 
HETATM   28  C   UNL     1      46.033  -9.719   7.993  1.00  0.00     0.042 C 
HETATM   29  C   UNL     1      45.508 -11.075   7.527  1.00  0.00     0.235 C 
BRANCH  27  30
HETATM   30  C   UNL     1      44.912  -9.782  10.236  1.00  0.00     0.263 C 
HETATM   31  O   UNL     1      45.501 -10.829  10.466  1.00  0.00    -0.265 OA
BRANCH  30  32
HETATM   32  O   UNL     1      44.010  -9.192  11.059  1.00  0.00    -0.322 OA
BRANCH  32  33
HETATM   33  C   UNL     1      43.073 -10.078  11.698  1.00  0.00     0.174 C 
HETATM   34  C   UNL     1      41.653  -9.683  11.329  1.00  0.00     0.034 C 
ENDBRANCH  32  33
ENDBRANCH  30  32
ENDBRANCH  27  30
ENDBRANCH  22  23
ENDBRANCH  21  22
ENDBRANCH   2  21
TORSDOF 10
ENDMDL
MODEL 5
REMARK VINA RESULT:      -7.2      3.698      8.631
REMARK  10 active torsions:
REMARK  status: ('A' for Active; 'I' for Inactive)
REMARK    1  A    between atoms: C_2  and  O_3 
REMARK    2  A    between atoms: O_3  and  C_4 
REMARK    3  A    between atoms: C_4  and  C_5 
REMARK    4  A    between atoms: C_10  and  N_11 
REMARK       I    between atoms: N_11  and  C_12 
REMARK    5  A    between atoms: C_12  and  C_13 
REMARK    6  A    between atoms: C_13  and  C_14 
REMARK    7  A    between atoms: C_14  and  N_15 
REMARK    8  A    between atoms: C_19  and  C_20 
REMARK    9  A    between atoms: C_20  and  O_21 
REMARK   10  A    between atoms: O_21  and  C_22 
ROOT
HETATM    1  N   UNL     1      39.527 -13.287   3.816  1.00  0.00    -0.324 N 
HETATM    2  C   UNL     1      39.437 -12.681   2.608  1.00  0.00     0.223 C 
HETATM    3  O   UNL     1      38.314 -12.421   2.165  1.00  0.00    -0.273 OA
HETATM    4  H   UNL     1      38.586 -13.447   4.189  1.00  0.00     0.169 HD
ENDROOT
BRANCH   1   5
HETATM    5  C   UNL     1      40.543 -13.766   4.642  1.00  0.00     0.080 A 
HETATM    6  C   UNL     1      40.773 -13.088   5.840  1.00  0.00     0.137 A 
HETATM    7  N   UNL     1      41.760 -13.749   6.519  1.00  0.00    -0.349 N 
HETATM    8  H   UNL     1      42.110 -13.468   7.427  1.00  0.00     0.166 HD
HETATM    9  C   UNL     1      42.224 -14.812   5.792  1.00  0.00     0.045 A 
HETATM   10  C   UNL     1      41.503 -14.847   4.589  1.00  0.00     0.021 A 
HETATM   11  C   UNL     1      43.237 -15.720   6.131  1.00  0.00     0.032 A 
HETATM   12  C   UNL     1      41.885 -15.864   3.683  1.00  0.00     0.035 A 
HETATM   13  C   UNL     1      42.903 -16.775   4.000  1.00  0.00     0.012 A 
HETATM   14  C   UNL     1      43.569 -16.713   5.211  1.00  0.00     0.021 A 
HETATM   15 BR   UNL     1      43.368 -18.105   2.735  1.00  0.00    -0.051 Br
BRANCH   6  16
HETATM   16  C   UNL     1      40.131 -11.896   6.351  1.00  0.00     0.312 C 
HETATM   17  O   UNL     1      38.957 -11.840   6.690  1.00  0.00    -0.258 OA
BRANCH  16  18
HETATM   18  O   UNL     1      41.017 -10.863   6.374  1.00  0.00    -0.317 OA
BRANCH  18  19
HETATM   19  C   UNL     1      40.929  -9.944   5.274  1.00  0.00     0.175 C 
HETATM   20  C   UNL     1      42.141 -10.085   4.374  1.00  0.00     0.034 C 
ENDBRANCH  18  19
ENDBRANCH  16  18
ENDBRANCH   6  16
ENDBRANCH   1   5
BRANCH   2  21
HETATM   21  C   UNL     1      40.643 -12.314   1.800  1.00  0.00     0.131 C 
BRANCH  21  22
HETATM   22  C   UNL     1      41.112 -13.534   1.015  1.00  0.00     0.244 C 
BRANCH  22  23
HETATM   23  N   UNL     1      41.065 -13.325  -0.504  1.00  0.00    -0.071 N 
HETATM   24  H   UNL     1      41.985 -13.602  -0.875  1.00  0.00     0.279 HD
HETATM   25  C   UNL     1      40.039 -14.284  -1.084  1.00  0.00     0.235 C 
HETATM   26  C   UNL     1      39.935 -14.117  -2.592  1.00  0.00     0.042 C 
HETATM   27  C   UNL     1      39.598 -12.677  -2.980  1.00  0.00     0.088 C 
HETATM   28  C   UNL     1      40.685 -11.756  -2.415  1.00  0.00     0.042 C 
HETATM   29  C   UNL     1      40.825 -11.883  -0.901  1.00  0.00     0.235 C 
BRANCH  27  30
HETATM   30  C   UNL     1      38.226 -12.248  -2.474  1.00  0.00     0.263 C 
HETATM   31  O   UNL     1      37.355 -13.037  -2.135  1.00  0.00    -0.265 OA
BRANCH  30  32
HETATM   32  O   UNL     1      38.090 -10.899  -2.515  1.00  0.00    -0.322 OA
BRANCH  32  33
HETATM   33  C   UNL     1      37.057 -10.349  -1.677  1.00  0.00     0.174 C 
HETATM   34  C   UNL     1      37.624 -10.014  -0.308  1.00  0.00     0.034 C 
ENDBRANCH  32  33
ENDBRANCH  30  32
ENDBRANCH  27  30
ENDBRANCH  22  23
ENDBRANCH  21  22
ENDBRANCH   2  21
TORSDOF 10
ENDMDL
MODEL 6
REMARK VINA RESULT:      -7.2      3.212      6.192
REMARK  10 active torsions:
REMARK  status: ('A' for Active; 'I' for Inactive)
REMARK    1  A    between atoms: C_2  and  O_3 
REMARK    2  A    between atoms: O_3  and  C_4 
REMARK    3  A    between atoms: C_4  and  C_5 
REMARK    4  A    between atoms: C_10  and  N_11 
REMARK       I    between atoms: N_11  and  C_12 
REMARK    5  A    between atoms: C_12  and  C_13 
REMARK    6  A    between atoms: C_13  and  C_14 
REMARK    7  A    between atoms: C_14  and  N_15 
REMARK    8  A    between atoms: C_19  and  C_20 
REMARK    9  A    between atoms: C_20  and  O_21 
REMARK   10  A    between atoms: O_21  and  C_22 
ROOT
HETATM    1  N   UNL     1      42.332 -14.276   2.167  1.00  0.00    -0.324 N 
HETATM    2  C   UNL     1      41.122 -13.827   1.760  1.00  0.00     0.223 C 
HETATM    3  O   UNL     1      41.074 -13.068   0.787  1.00  0.00    -0.273 OA
HETATM    4  H   UNL     1      43.062 -13.881   1.566  1.00  0.00     0.169 HD
ENDROOT
BRANCH   1   5
HETATM    5  C   UNL     1      42.829 -15.085   3.188  1.00  0.00     0.080 A 
HETATM    6  C   UNL     1      43.093 -14.480   4.419  1.00  0.00     0.137 A 
HETATM    7  N   UNL     1      43.512 -15.452   5.287  1.00  0.00    -0.349 N 
HETATM    8  H   UNL     1      43.759 -15.280   6.254  1.00  0.00     0.166 HD
HETATM    9  C   UNL     1      43.579 -16.668   4.662  1.00  0.00     0.045 A 
HETATM   10  C   UNL     1      43.181 -16.481   3.330  1.00  0.00     0.021 A 
HETATM   11  C   UNL     1      43.977 -17.901   5.201  1.00  0.00     0.032 A 
HETATM   12  C   UNL     1      43.234 -17.635   2.514  1.00  0.00     0.035 A 
HETATM   13  C   UNL     1      43.639 -18.873   3.032  1.00  0.00     0.012 A 
HETATM   14  C   UNL     1      44.000 -19.011   4.360  1.00  0.00     0.021 A 
HETATM   15 BR   UNL     1      43.696 -20.374   1.878  1.00  0.00    -0.051 Br
BRANCH   6  16
HETATM   16  C   UNL     1      42.974 -13.088   4.796  1.00  0.00     0.312 C 
HETATM   17  O   UNL     1      42.900 -12.165   3.997  1.00  0.00    -0.258 OA
BRANCH  16  18
HETATM   18  O   UNL     1      42.978 -12.971   6.151  1.00  0.00    -0.317 OA
BRANCH  18  19
HETATM   19  C   UNL     1      43.592 -11.780   6.671  1.00  0.00     0.175 C 
HETATM   20  C   UNL     1      45.096 -11.958   6.753  1.00  0.00     0.034 C 
ENDBRANCH  18  19
ENDBRANCH  16  18
ENDBRANCH   6  16
ENDBRANCH   1   5
BRANCH   2  21
HETATM   21  C   UNL     1      39.847 -14.221   2.440  1.00  0.00     0.131 C 
BRANCH  21  22
HETATM   22  C   UNL     1      39.051 -12.967   2.781  1.00  0.00     0.244 C 
BRANCH  22  23
HETATM   23  N   UNL     1      39.839 -11.969   3.640  1.00  0.00    -0.071 N 
HETATM   24  H   UNL     1      40.826 -12.264   3.615  1.00  0.00     0.279 HD
HETATM   25  C   UNL     1      39.762 -10.605   2.975  1.00  0.00     0.235 C 
HETATM   26  C   UNL     1      40.518  -9.565   3.787  1.00  0.00     0.042 C 
HETATM   27  C   UNL     1      40.003  -9.488   5.226  1.00  0.00     0.088 C 
HETATM   28  C   UNL     1      40.147 -10.872   5.867  1.00  0.00     0.042 C 
HETATM   29  C   UNL     1      39.401 -11.953   5.089  1.00  0.00     0.235 C 
BRANCH  27  30
HETATM   30  C   UNL     1      38.555  -9.019   5.298  1.00  0.00     0.263 C 
HETATM   31  O   UNL     1      37.647  -9.700   5.754  1.00  0.00    -0.265 OA
BRANCH  30  32
HETATM   32  O   UNL     1      38.409  -7.793   4.737  1.00  0.00    -0.322 OA
BRANCH  32  33
HETATM   33  C   UNL     1      37.154  -7.553   4.074  1.00  0.00     0.174 C 
HETATM   34  C   UNL     1      37.271  -7.901   2.601  1.00  0.00     0.034 C 
ENDBRANCH  32  33
ENDBRANCH  30  32
ENDBRANCH  27  30
ENDBRANCH  22  23
ENDBRANCH  21  22
ENDBRANCH   2  21
TORSDOF 10
ENDMDL
MODEL 7
REMARK VINA RESULT:      -7.2     17.617     19.094
REMARK  10 active torsions:
REMARK  status: ('A' for Active; 'I' for Inactive)
REMARK    1  A    between atoms: C_2  and  O_3 
REMARK    2  A    between atoms: O_3  and  C_4 
REMARK    3  A    between atoms: C_4  and  C_5 
REMARK    4  A    between atoms: C_10  and  N_11 
REMARK       I    between atoms: N_11  and  C_12 
REMARK    5  A    between atoms: C_12  and  C_13 
REMARK    6  A    between atoms: C_13  and  C_14 
REMARK    7  A    between atoms: C_14  and  N_15 
REMARK    8  A    between atoms: C_19  and  C_20 
REMARK    9  A    between atoms: C_20  and  O_21 
REMARK   10  A    between atoms: O_21  and  C_22 
ROOT
HETATM    1  N   UNL     1      46.033 -31.336  -1.499  1.00  0.00    -0.324 N 
HETATM    2  C   UNL     1      47.241 -31.905  -1.277  1.00  0.00     0.223 C 
HETATM    3  O   UNL     1      47.708 -32.648  -2.147  1.00  0.00    -0.273 OA
HETATM    4  H   UNL     1      45.675 -31.639  -2.411  1.00  0.00     0.169 HD
ENDROOT
BRANCH   1   5
HETATM    5  C   UNL     1      45.160 -30.495  -0.809  1.00  0.00     0.080 A 
HETATM    6  C   UNL     1      45.361 -29.119  -0.932  1.00  0.00     0.137 A 
HETATM    7  N   UNL     1      44.372 -28.484  -0.231  1.00  0.00    -0.349 N 
HETATM    8  H   UNL     1      44.280 -27.477  -0.166  1.00  0.00     0.166 HD
HETATM    9  C   UNL     1      43.553 -29.389   0.388  1.00  0.00     0.045 A 
HETATM   10  C   UNL     1      44.027 -30.671   0.072  1.00  0.00     0.021 A 
HETATM   11  C   UNL     1      42.443 -29.138   1.207  1.00  0.00     0.032 A 
HETATM   12  C   UNL     1      43.323 -31.742   0.670  1.00  0.00     0.035 A 
HETATM   13  C   UNL     1      42.217 -31.510   1.501  1.00  0.00     0.012 A 
HETATM   14  C   UNL     1      41.774 -30.226   1.763  1.00  0.00     0.021 A 
HETATM   15 BR   UNL     1      41.328 -32.992   2.276  1.00  0.00    -0.051 Br
BRANCH   6  16
HETATM   16  C   UNL     1      46.398 -28.408  -1.648  1.00  0.00     0.312 C 
HETATM   17  O   UNL     1      47.156 -27.598  -1.132  1.00  0.00    -0.258 OA
BRANCH  16  18
HETATM   18  O   UNL     1      46.382 -28.760  -2.962  1.00  0.00    -0.317 OA
BRANCH  18  19
HETATM   19  C   UNL     1      45.268 -28.270  -3.724  1.00  0.00     0.175 C 
HETATM   20  C   UNL     1      44.622 -29.403  -4.498  1.00  0.00     0.034 C 
ENDBRANCH  18  19
ENDBRANCH  16  18
ENDBRANCH   6  16
ENDBRANCH   1   5
BRANCH   2  21
HETATM   21  C   UNL     1      48.028 -31.661  -0.027  1.00  0.00     0.131 C 
BRANCH  21  22
HETATM   22  C   UNL     1      49.014 -30.523  -0.268  1.00  0.00     0.244 C 
BRANCH  22  23
HETATM   23  N   UNL     1      49.402 -29.783   1.019  1.00  0.00    -0.071 N 
HETATM   24  H   UNL     1      49.878 -28.915   0.735  1.00  0.00     0.279 HD
HETATM   25  C   UNL     1      48.125 -29.380   1.739  1.00  0.00     0.235 C 
HETATM   26  C   UNL     1      48.444 -28.649   3.034  1.00  0.00     0.042 C 
HETATM   27  C   UNL     1      49.332 -29.489   3.953  1.00  0.00     0.088 C 
HETATM   28  C   UNL     1      50.624 -29.827   3.201  1.00  0.00     0.042 C 
HETATM   29  C   UNL     1      50.358 -30.567   1.893  1.00  0.00     0.235 C 
BRANCH  27  30
HETATM   30  C   UNL     1      48.641 -30.765   4.419  1.00  0.00     0.263 C 
HETATM   31  O   UNL     1      49.156 -31.872   4.354  1.00  0.00    -0.265 OA
BRANCH  30  32
HETATM   32  O   UNL     1      47.380 -30.509   4.846  1.00  0.00    -0.322 OA
BRANCH  32  33
HETATM   33  C   UNL     1      46.420 -31.558   4.624  1.00  0.00     0.174 C 
HETATM   34  C   UNL     1      45.401 -31.118   3.587  1.00  0.00     0.034 C 
ENDBRANCH  32  33
ENDBRANCH  30  32
ENDBRANCH  27  30
ENDBRANCH  22  23
ENDBRANCH  21  22
ENDBRANCH   2  21
TORSDOF 10
ENDMDL
MODEL 8
REMARK VINA RESULT:      -7.1      3.091      8.779
REMARK  10 active torsions:
REMARK  status: ('A' for Active; 'I' for Inactive)
REMARK    1  A    between atoms: C_2  and  O_3 
REMARK    2  A    between atoms: O_3  and  C_4 
REMARK    3  A    between atoms: C_4  and  C_5 
REMARK    4  A    between atoms: C_10  and  N_11 
REMARK       I    between atoms: N_11  and  C_12 
REMARK    5  A    between atoms: C_12  and  C_13 
REMARK    6  A    between atoms: C_13  and  C_14 
REMARK    7  A    between atoms: C_14  and  N_15 
REMARK    8  A    between atoms: C_19  and  C_20 
REMARK    9  A    between atoms: C_20  and  O_21 
REMARK   10  A    between atoms: O_21  and  C_22 
ROOT
HETATM    1  N   UNL     1      40.452 -14.379   2.985  1.00  0.00    -0.324 N 
HETATM    2  C   UNL     1      40.237 -13.647   1.866  1.00  0.00     0.223 C 
HETATM    3  O   UNL     1      39.073 -13.376   1.557  1.00  0.00    -0.273 OA
HETATM    4  H   UNL     1      39.552 -14.610   3.419  1.00  0.00     0.169 HD
ENDROOT
BRANCH   1   5
HETATM    5  C   UNL     1      41.549 -14.914   3.658  1.00  0.00     0.080 A 
HETATM    6  C   UNL     1      42.131 -14.135   4.661  1.00  0.00     0.137 A 
HETATM    7  N   UNL     1      43.144 -14.862   5.226  1.00  0.00    -0.349 N 
HETATM    8  H   UNL     1      43.722 -14.530   5.989  1.00  0.00     0.166 HD
HETATM    9  C   UNL     1      43.282 -16.072   4.604  1.00  0.00     0.045 A 
HETATM   10  C   UNL     1      42.314 -16.140   3.591  1.00  0.00     0.021 A 
HETATM   11  C   UNL     1      44.210 -17.089   4.877  1.00  0.00     0.032 A 
HETATM   12  C   UNL     1      42.341 -17.314   2.804  1.00  0.00     0.035 A 
HETATM   13  C   UNL     1      43.268 -18.336   3.055  1.00  0.00     0.012 A 
HETATM   14  C   UNL     1      44.188 -18.232   4.082  1.00  0.00     0.021 A 
HETATM   15 BR   UNL     1      43.251 -19.878   1.954  1.00  0.00    -0.051 Br
BRANCH   6  16
HETATM   16  C   UNL     1      41.790 -12.796   5.089  1.00  0.00     0.312 C 
HETATM   17  O   UNL     1      41.032 -12.053   4.481  1.00  0.00    -0.258 OA
BRANCH  16  18
HETATM   18  O   UNL     1      42.450 -12.493   6.240  1.00  0.00    -0.317 OA
BRANCH  18  19
HETATM   19  C   UNL     1      43.387 -11.408   6.153  1.00  0.00     0.175 C 
HETATM   20  C   UNL     1      44.704 -11.798   6.796  1.00  0.00     0.034 C 
ENDBRANCH  18  19
ENDBRANCH  16  18
ENDBRANCH   6  16
ENDBRANCH   1   5
BRANCH   2  21
HETATM   21  C   UNL     1      41.355 -13.154   1.001  1.00  0.00     0.131 C 
BRANCH  21  22
HETATM   22  C   UNL     1      41.336 -11.629   0.977  1.00  0.00     0.244 C 
BRANCH  22  23
HETATM   23  N   UNL     1      40.972 -11.055  -0.399  1.00  0.00    -0.071 N 
HETATM   24  H   UNL     1      41.574 -10.234  -0.552  1.00  0.00     0.279 HD
HETATM   25  C   UNL     1      41.340 -12.084  -1.456  1.00  0.00     0.235 C 
HETATM   26  C   UNL     1      40.992 -11.578  -2.846  1.00  0.00     0.042 C 
HETATM   27  C   UNL     1      39.513 -11.205  -2.958  1.00  0.00     0.088 C 
HETATM   28  C   UNL     1      39.203 -10.132  -1.908  1.00  0.00     0.042 C 
HETATM   29  C   UNL     1      39.533 -10.594  -0.492  1.00  0.00     0.235 C 
BRANCH  27  30
HETATM   30  C   UNL     1      38.597 -12.408  -2.772  1.00  0.00     0.263 C 
HETATM   31  O   UNL     1      37.583 -12.385  -2.088  1.00  0.00    -0.265 OA
BRANCH  30  32
HETATM   32  O   UNL     1      39.090 -13.500  -3.407  1.00  0.00    -0.322 OA
BRANCH  32  33
HETATM   33  C   UNL     1      38.625 -14.772  -2.916  1.00  0.00     0.174 C 
HETATM   34  C   UNL     1      39.269 -15.077  -1.575  1.00  0.00     0.034 C 
ENDBRANCH  32  33
ENDBRANCH  30  32
ENDBRANCH  27  30
ENDBRANCH  22  23
ENDBRANCH  21  22
ENDBRANCH   2  21
TORSDOF 10
ENDMDL
MODEL 9
REMARK VINA RESULT:      -6.9      2.880      4.154
REMARK  10 active torsions:
REMARK  status: ('A' for Active; 'I' for Inactive)
REMARK    1  A    between atoms: C_2  and  O_3 
REMARK    2  A    between atoms: O_3  and  C_4 
REMARK    3  A    between atoms: C_4  and  C_5 
REMARK    4  A    between atoms: C_10  and  N_11 
REMARK       I    between atoms: N_11  and  C_12 
REMARK    5  A    between atoms: C_12  and  C_13 
REMARK    6  A    between atoms: C_13  and  C_14 
REMARK    7  A    between atoms: C_14  and  N_15 
REMARK    8  A    between atoms: C_19  and  C_20 
REMARK    9  A    between atoms: C_20  and  O_21 
REMARK   10  A    between atoms: O_21  and  C_22 
ROOT
HETATM    1  N   UNL     1      42.572 -14.830   5.061  1.00  0.00    -0.324 N 
HETATM    2  C   UNL     1      43.208 -14.354   6.158  1.00  0.00     0.223 C 
HETATM    3  O   UNL     1      43.781 -15.159   6.899  1.00  0.00    -0.273 OA
HETATM    4  H   UNL     1      42.670 -15.850   5.025  1.00  0.00     0.169 HD
ENDROOT
BRANCH   1   5
HETATM    5  C   UNL     1      41.809 -14.306   4.018  1.00  0.00     0.080 A 
HETATM    6  C   UNL     1      41.954 -14.890   2.758  1.00  0.00     0.137 A 
HETATM    7  N   UNL     1      41.083 -14.272   1.903  1.00  0.00    -0.349 N 
HETATM    8  H   UNL     1      40.980 -14.515   0.925  1.00  0.00     0.166 HD
HETATM    9  C   UNL     1      40.402 -13.271   2.539  1.00  0.00     0.045 A 
HETATM   10  C   UNL     1      40.845 -13.239   3.870  1.00  0.00     0.021 A 
HETATM   11  C   UNL     1      39.440 -12.399   2.007  1.00  0.00     0.032 A 
HETATM   12  C   UNL     1      40.276 -12.223   4.674  1.00  0.00     0.035 A 
HETATM   13  C   UNL     1      39.321 -11.336   4.156  1.00  0.00     0.012 A 
HETATM   14  C   UNL     1      38.899 -11.424   2.842  1.00  0.00     0.021 A 
HETATM   15 BR   UNL     1      38.610  -9.994   5.288  1.00  0.00    -0.051 Br
BRANCH   6  16
HETATM   16  C   UNL     1      42.839 -15.957   2.344  1.00  0.00     0.312 C 
HETATM   17  O   UNL     1      43.689 -15.844   1.471  1.00  0.00    -0.258 OA
BRANCH  16  18
HETATM   18  O   UNL     1      42.567 -17.089   3.049  1.00  0.00    -0.317 OA
BRANCH  18  19
HETATM   19  C   UNL     1      43.605 -18.081   3.057  1.00  0.00     0.175 C 
HETATM   20  C   UNL     1      43.214 -19.258   2.184  1.00  0.00     0.034 C 
ENDBRANCH  18  19
ENDBRANCH  16  18
ENDBRANCH   6  16
ENDBRANCH   1   5
BRANCH   2  21
HETATM   21  C   UNL     1      43.246 -12.896   6.496  1.00  0.00     0.131 C 
BRANCH  21  22
HETATM   22  C   UNL     1      44.681 -12.392   6.385  1.00  0.00     0.244 C 
BRANCH  22  23
HETATM   23  N   UNL     1      44.838 -10.927   6.813  1.00  0.00    -0.071 N 
HETATM   24  H   UNL     1      44.992 -10.378   5.955  1.00  0.00     0.279 HD
HETATM   25  C   UNL     1      43.521 -10.464   7.413  1.00  0.00     0.235 C 
HETATM   26  C   UNL     1      43.615  -9.017   7.869  1.00  0.00     0.042 C 
HETATM   27  C   UNL     1      44.757  -8.811   8.866  1.00  0.00     0.088 C 
HETATM   28  C   UNL     1      46.066  -9.246   8.199  1.00  0.00     0.042 C 
HETATM   29  C   UNL     1      46.024 -10.696   7.726  1.00  0.00     0.235 C 
BRANCH  27  30
HETATM   30  C   UNL     1      44.540  -9.585  10.161  1.00  0.00     0.263 C 
HETATM   31  O   UNL     1      45.336 -10.405  10.598  1.00  0.00    -0.265 OA
BRANCH  30  32
HETATM   32  O   UNL     1      43.338  -9.288  10.712  1.00  0.00    -0.322 OA
BRANCH  32  33
HETATM   33  C   UNL     1      43.331  -9.110  12.141  1.00  0.00     0.174 C 
HETATM   34  C   UNL     1      42.229  -9.949  12.763  1.00  0.00     0.034 C 
ENDBRANCH  32  33
ENDBRANCH  30  32
ENDBRANCH  27  30
ENDBRANCH  22  23
ENDBRANCH  21  22
ENDBRANCH   2  21
TORSDOF 10
ENDMDL
MODEL 10
REMARK VINA RESULT:      -6.9      1.952      2.296
REMARK  10 active torsions:
REMARK  status: ('A' for Active; 'I' for Inactive)
REMARK    1  A    between atoms: C_2  and  O_3 
REMARK    2  A    between atoms: O_3  and  C_4 
REMARK    3  A    between atoms: C_4  and  C_5 
REMARK    4  A    between atoms: C_10  and  N_11 
REMARK       I    between atoms: N_11  and  C_12 
REMARK    5  A    between atoms: C_12  and  C_13 
REMARK    6  A    between atoms: C_13  and  C_14 
REMARK    7  A    between atoms: C_14  and  N_15 
REMARK    8  A    between atoms: C_19  and  C_20 
REMARK    9  A    between atoms: C_20  and  O_21 
REMARK   10  A    between atoms: O_21  and  C_22 
ROOT
HETATM    1  N   UNL     1      39.893 -13.885   4.496  1.00  0.00    -0.324 N 
HETATM    2  C   UNL     1      40.019 -12.838   5.345  1.00  0.00     0.223 C 
HETATM    3  O   UNL     1      39.056 -12.542   6.059  1.00  0.00    -0.273 OA
HETATM    4  H   UNL     1      38.954 -14.285   4.585  1.00  0.00     0.169 HD
ENDROOT
BRANCH   1   5
HETATM    5  C   UNL     1      40.680 -14.518   3.534  1.00  0.00     0.080 A 
HETATM    6  C   UNL     1      40.559 -14.079   2.214  1.00  0.00     0.137 A 
HETATM    7  N   UNL     1      41.450 -14.784   1.451  1.00  0.00    -0.349 N 
HETATM    8  H   UNL     1      41.573 -14.651   0.454  1.00  0.00     0.166 HD
HETATM    9  C   UNL     1      42.121 -15.704   2.209  1.00  0.00     0.045 A 
HETATM   10  C   UNL     1      41.650 -15.590   3.526  1.00  0.00     0.021 A 
HETATM   11  C   UNL     1      43.097 -16.624   1.798  1.00  0.00     0.032 A 
HETATM   12  C   UNL     1      42.205 -16.507   4.449  1.00  0.00     0.035 A 
HETATM   13  C   UNL     1      43.173 -17.440   4.054  1.00  0.00     0.012 A 
HETATM   14  C   UNL     1      43.623 -17.497   2.747  1.00  0.00     0.021 A 
HETATM   15 BR   UNL     1      43.865 -18.644   5.343  1.00  0.00    -0.051 Br
BRANCH   6  16
HETATM   16  C   UNL     1      39.680 -13.070   1.664  1.00  0.00     0.312 C 
HETATM   17  O   UNL     1      38.696 -12.628   2.242  1.00  0.00    -0.258 OA
BRANCH  16  18
HETATM   18  O   UNL     1      40.100 -12.714   0.420  1.00  0.00    -0.317 OA
BRANCH  18  19
HETATM   19  C   UNL     1      39.135 -12.876  -0.632  1.00  0.00     0.175 C 
HETATM   20  C   UNL     1      39.374 -14.180  -1.368  1.00  0.00     0.034 C 
ENDBRANCH  18  19
ENDBRANCH  16  18
ENDBRANCH   6  16
ENDBRANCH   1   5
BRANCH   2  21
HETATM   21  C   UNL     1      41.279 -12.036   5.451  1.00  0.00     0.131 C 
BRANCH  21  22
HETATM   22  C   UNL     1      40.924 -10.562   5.617  1.00  0.00     0.244 C 
BRANCH  22  23
HETATM   23  N   UNL     1      42.036  -9.749   6.294  1.00  0.00    -0.071 N 
HETATM   24  H   UNL     1      42.686  -9.452   5.552  1.00  0.00     0.279 HD
HETATM   25  C   UNL     1      41.415  -8.491   6.878  1.00  0.00     0.235 C 
HETATM   26  C   UNL     1      42.467  -7.644   7.576  1.00  0.00     0.042 C 
HETATM   27  C   UNL     1      43.198  -8.433   8.664  1.00  0.00     0.088 C 
HETATM   28  C   UNL     1      43.846  -9.663   8.018  1.00  0.00     0.042 C 
HETATM   29  C   UNL     1      42.828 -10.549   7.306  1.00  0.00     0.235 C 
BRANCH  27  30
HETATM   30  C   UNL     1      42.268  -8.858   9.794  1.00  0.00     0.263 C 
HETATM   31  O   UNL     1      41.118  -8.455   9.909  1.00  0.00    -0.265 OA
BRANCH  30  32
HETATM   32  O   UNL     1      42.903  -9.676  10.669  1.00  0.00    -0.322 OA
BRANCH  32  33
HETATM   33  C   UNL     1      42.608  -9.455  12.060  1.00  0.00     0.174 C 
HETATM   34  C   UNL     1      43.402  -8.268  12.576  1.00  0.00     0.034 C 
ENDBRANCH  32  33
ENDBRANCH  30  32
ENDBRANCH  27  30
ENDBRANCH  22  23
ENDBRANCH  21  22
ENDBRANCH   2  21
TORSDOF 10
ENDMDL
