MODEL 1
REMARK VINA RESULT:      -8.0      0.000      0.000
REMARK  5 active torsions:
REMARK  status: ('A' for Active; 'I' for Inactive)
REMARK    1  A    between atoms: C_4  and  N_5 
REMARK       I    between atoms: N_5  and  C_6 
REMARK       I    between atoms: C_6  and  N_7 
REMARK    2  A    between atoms: N_7  and  C_8 
REMARK    3  A    between atoms: C_8  and  C_9 
REMARK    4  A    between atoms: C_9  and  N_10 
REMARK    5  A    between atoms: C_9  and  C_14 
ROOT
HETATM    1  N   UNL     1      42.120 -16.037   6.576  1.00  0.00    -0.307 N 
HETATM    2  C   UNL     1      42.737 -15.085   7.309  1.00  0.00     0.320 C 
HETATM    3  N   UNL     1      42.808 -13.834   6.793  1.00  0.00    -0.340 N 
HETATM    4  O   UNL     1      43.167 -15.321   8.437  1.00  0.00    -0.247 OA
HETATM    5  H   UNL     1      41.860 -16.877   7.094  1.00  0.00     0.170 HD
HETATM    6  H   UNL     1      42.096 -13.603   6.109  1.00  0.00     0.164 HD
ENDROOT
BRANCH   1   7
HETATM    7  C   UNL     1      41.861 -16.171   5.186  1.00  0.00     0.066 A 
HETATM    8  C   UNL     1      40.931 -15.391   4.488  1.00  0.00     0.038 A 
HETATM    9  C   UNL     1      40.736 -15.568   3.114  1.00  0.00    -0.059 A 
HETATM   10  C   UNL     1      39.758 -14.711   2.364  1.00  0.00     0.048 C 
HETATM   11  C   UNL     1      41.524 -16.498   2.433  1.00  0.00     0.020 A 
HETATM   12  C   UNL     1      42.491 -17.254   3.115  1.00  0.00    -0.005 A 
HETATM   13  C   UNL     1      42.671 -17.096   4.506  1.00  0.00     0.093 A 
HETATM   14  C   UNL     1      43.310 -18.168   2.439  1.00  0.00     0.015 A 
HETATM   15  N   UNL     1      43.605 -17.802   5.188  1.00  0.00    -0.258 NA
HETATM   16  C   UNL     1      44.377 -18.672   4.499  1.00  0.00     0.117 A 
HETATM   17  C   UNL     1      44.269 -18.889   3.140  1.00  0.00     0.020 A 
ENDBRANCH   1   7
BRANCH   3  18
HETATM   18  C   UNL     1      43.681 -12.773   7.285  1.00  0.00     0.164 C 
BRANCH  18  19
HETATM   19  C   UNL     1      43.405 -11.324   6.770  1.00  0.00     0.261 C 
BRANCH  19  20
HETATM   20  N   UNL     1      44.501 -10.346   7.189  1.00  0.00    -0.067 N 
HETATM   21  H   UNL     1      44.539  -9.644   6.421  1.00  0.00     0.280 HD
HETATM   22  C   UNL     1      44.227  -9.540   8.421  1.00  0.00     0.270 C 
HETATM   23  C   UNL     1      45.860 -10.976   7.229  1.00  0.00     0.270 C 
ENDBRANCH  19  20
BRANCH  19  24
HETATM   24  C   UNL     1      43.154 -11.312   5.292  1.00  0.00     0.085 A 
HETATM   25  O   UNL     1      43.719 -12.337   4.587  1.00  0.00    -0.325 OA
HETATM   26  C   UNL     1      43.379 -12.162   3.284  1.00  0.00     0.142 A 
HETATM   27  C   UNL     1      42.594 -11.045   3.138  1.00  0.00     0.027 A 
HETATM   28  C   UNL     1      42.442 -10.494   4.434  1.00  0.00     0.037 A 
ENDBRANCH  19  24
ENDBRANCH  18  19
ENDBRANCH   3  18
TORSDOF 5
ENDMDL
MODEL 2
REMARK VINA RESULT:      -8.0      2.081      3.017
REMARK  5 active torsions:
REMARK  status: ('A' for Active; 'I' for Inactive)
REMARK    1  A    between atoms: C_4  and  N_5 
REMARK       I    between atoms: N_5  and  C_6 
REMARK       I    between atoms: C_6  and  N_7 
REMARK    2  A    between atoms: N_7  and  C_8 
REMARK    3  A    between atoms: C_8  and  C_9 
REMARK    4  A    between atoms: C_9  and  N_10 
REMARK    5  A    between atoms: C_9  and  C_14 
ROOT
HETATM    1  N   UNL     1      43.278 -16.555   6.150  1.00  0.00    -0.307 N 
HETATM    2  C   UNL     1      42.453 -15.705   6.799  1.00  0.00     0.320 C 
HETATM    3  N   UNL     1      41.210 -15.518   6.296  1.00  0.00    -0.340 N 
HETATM    4  O   UNL     1      42.789 -15.162   7.851  1.00  0.00    -0.247 OA
HETATM    5  H   UNL     1      44.087 -16.864   6.689  1.00  0.00     0.170 HD
HETATM    6  H   UNL     1      40.852 -16.275   5.724  1.00  0.00     0.164 HD
ENDROOT
BRANCH   1   7
HETATM    7  C   UNL     1      43.324 -17.022   4.809  1.00  0.00     0.066 A 
HETATM    8  C   UNL     1      43.241 -16.184   3.690  1.00  0.00     0.038 A 
HETATM    9  C   UNL     1      43.308 -16.712   2.396  1.00  0.00    -0.059 A 
HETATM   10  C   UNL     1      43.246 -15.809   1.198  1.00  0.00     0.048 C 
HETATM   11  C   UNL     1      43.514 -18.084   2.234  1.00  0.00     0.020 A 
HETATM   12  C   UNL     1      43.643 -18.926   3.349  1.00  0.00    -0.005 A 
HETATM   13  C   UNL     1      43.550 -18.400   4.656  1.00  0.00     0.093 A 
HETATM   14  C   UNL     1      43.881 -20.299   3.202  1.00  0.00     0.015 A 
HETATM   15  N   UNL     1      43.684 -19.186   5.752  1.00  0.00    -0.258 NA
HETATM   16  C   UNL     1      43.915 -20.505   5.567  1.00  0.00     0.117 A 
HETATM   17  C   UNL     1      44.021 -21.102   4.327  1.00  0.00     0.020 A 
ENDBRANCH   1   7
BRANCH   3  18
HETATM   18  C   UNL     1      40.307 -14.435   6.671  1.00  0.00     0.164 C 
BRANCH  18  19
HETATM   19  C   UNL     1      40.472 -13.074   5.922  1.00  0.00     0.261 C 
BRANCH  19  20
HETATM   20  N   UNL     1      41.862 -12.470   6.124  1.00  0.00    -0.067 N 
HETATM   21  H   UNL     1      42.259 -12.985   6.937  1.00  0.00     0.280 HD
HETATM   22  C   UNL     1      42.844 -12.699   5.018  1.00  0.00     0.270 C 
HETATM   23  C   UNL     1      41.818 -11.032   6.538  1.00  0.00     0.270 C 
ENDBRANCH  19  20
BRANCH  19  24
HETATM   24  C   UNL     1      40.104 -13.204   4.474  1.00  0.00     0.085 A 
HETATM   25  O   UNL     1      40.352 -14.421   3.906  1.00  0.00    -0.325 OA
HETATM   26  C   UNL     1      39.951 -14.349   2.612  1.00  0.00     0.142 A 
HETATM   27  C   UNL     1      39.437 -13.105   2.336  1.00  0.00     0.027 A 
HETATM   28  C   UNL     1      39.531 -12.362   3.538  1.00  0.00     0.037 A 
ENDBRANCH  19  24
ENDBRANCH  18  19
ENDBRANCH   3  18
TORSDOF 5
ENDMDL
MODEL 3
REMARK VINA RESULT:      -7.9      1.654      3.034
REMARK  5 active torsions:
REMARK  status: ('A' for Active; 'I' for Inactive)
REMARK    1  A    between atoms: C_4  and  N_5 
REMARK       I    between atoms: N_5  and  C_6 
REMARK       I    between atoms: C_6  and  N_7 
REMARK    2  A    between atoms: N_7  and  C_8 
REMARK    3  A    between atoms: C_8  and  C_9 
REMARK    4  A    between atoms: C_9  and  N_10 
REMARK    5  A    between atoms: C_9  and  C_14 
ROOT
HETATM    1  N   UNL     1      43.068 -16.493   6.367  1.00  0.00    -0.307 N 
HETATM    2  C   UNL     1      43.007 -15.280   6.957  1.00  0.00     0.320 C 
HETATM    3  N   UNL     1      42.595 -14.229   6.208  1.00  0.00    -0.340 N 
HETATM    4  O   UNL     1      43.255 -15.134   8.154  1.00  0.00    -0.247 OA
HETATM    5  H   UNL     1      43.126 -17.282   7.013  1.00  0.00     0.170 HD
HETATM    6  H   UNL     1      42.014 -14.464   5.409  1.00  0.00     0.164 HD
ENDROOT
BRANCH   1   7
HETATM    7  C   UNL     1      43.194 -16.905   5.014  1.00  0.00     0.066 A 
HETATM    8  C   UNL     1      43.139 -16.026   3.925  1.00  0.00     0.038 A 
HETATM    9  C   UNL     1      43.285 -16.500   2.616  1.00  0.00    -0.059 A 
HETATM   10  C   UNL     1      43.254 -15.552   1.453  1.00  0.00     0.048 C 
HETATM   11  C   UNL     1      43.541 -17.858   2.413  1.00  0.00     0.020 A 
HETATM   12  C   UNL     1      43.642 -18.739   3.500  1.00  0.00    -0.005 A 
HETATM   13  C   UNL     1      43.470 -18.269   4.820  1.00  0.00     0.093 A 
HETATM   14  C   UNL     1      43.929 -20.098   3.312  1.00  0.00     0.015 A 
HETATM   15  N   UNL     1      43.574 -19.093   5.890  1.00  0.00    -0.258 NA
HETATM   16  C   UNL     1      43.855 -20.397   5.666  1.00  0.00     0.117 A 
HETATM   17  C   UNL     1      44.039 -20.941   4.411  1.00  0.00     0.020 A 
ENDBRANCH   1   7
BRANCH   3  18
HETATM   18  C   UNL     1      42.753 -12.825   6.572  1.00  0.00     0.164 C 
BRANCH  18  19
HETATM   19  C   UNL     1      43.986 -12.068   5.982  1.00  0.00     0.261 C 
BRANCH  19  20
HETATM   20  N   UNL     1      43.610 -11.213   4.772  1.00  0.00    -0.067 N 
HETATM   21  H   UNL     1      44.385 -10.523   4.684  1.00  0.00     0.280 HD
HETATM   22  C   UNL     1      43.584 -11.918   3.452  1.00  0.00     0.270 C 
HETATM   23  C   UNL     1      42.369 -10.404   4.993  1.00  0.00     0.270 C 
ENDBRANCH  19  20
BRANCH  19  24
HETATM   24  C   UNL     1      44.700 -11.286   7.042  1.00  0.00     0.085 A 
HETATM   25  O   UNL     1      45.967 -10.882   6.730  1.00  0.00    -0.325 OA
HETATM   26  C   UNL     1      46.443 -10.190   7.796  1.00  0.00     0.142 A 
HETATM   27  C   UNL     1      45.498 -10.132   8.791  1.00  0.00     0.027 A 
HETATM   28  C   UNL     1      44.367 -10.836   8.307  1.00  0.00     0.037 A 
ENDBRANCH  19  24
ENDBRANCH  18  19
ENDBRANCH   3  18
TORSDOF 5
ENDMDL
MODEL 4
REMARK VINA RESULT:      -7.8      1.273      2.747
REMARK  5 active torsions:
REMARK  status: ('A' for Active; 'I' for Inactive)
REMARK    1  A    between atoms: C_4  and  N_5 
REMARK       I    between atoms: N_5  and  C_6 
REMARK       I    between atoms: C_6  and  N_7 
REMARK    2  A    between atoms: N_7  and  C_8 
REMARK    3  A    between atoms: C_8  and  C_9 
REMARK    4  A    between atoms: C_9  and  N_10 
REMARK    5  A    between atoms: C_9  and  C_14 
ROOT
HETATM    1  N   UNL     1      42.037 -15.720   6.436  1.00  0.00    -0.307 N 
HETATM    2  C   UNL     1      42.857 -14.877   7.099  1.00  0.00     0.320 C 
HETATM    3  N   UNL     1      43.262 -13.753   6.462  1.00  0.00    -0.340 N 
HETATM    4  O   UNL     1      43.180 -15.082   8.269  1.00  0.00    -0.247 OA
HETATM    5  H   UNL     1      41.555 -16.401   7.023  1.00  0.00     0.170 HD
HETATM    6  H   UNL     1      42.653 -13.429   5.718  1.00  0.00     0.164 HD
ENDROOT
BRANCH   1   7
HETATM    7  C   UNL     1      41.792 -15.944   5.055  1.00  0.00     0.066 A 
HETATM    8  C   UNL     1      40.879 -15.201   4.296  1.00  0.00     0.038 A 
HETATM    9  C   UNL     1      40.697 -15.467   2.934  1.00  0.00    -0.059 A 
HETATM   10  C   UNL     1      39.738 -14.651   2.118  1.00  0.00     0.048 C 
HETATM   11  C   UNL     1      41.481 -16.450   2.326  1.00  0.00     0.020 A 
HETATM   12  C   UNL     1      42.432 -17.169   3.068  1.00  0.00    -0.005 A 
HETATM   13  C   UNL     1      42.598 -16.921   4.447  1.00  0.00     0.093 A 
HETATM   14  C   UNL     1      43.246 -18.136   2.464  1.00  0.00     0.015 A 
HETATM   15  N   UNL     1      43.516 -17.590   5.186  1.00  0.00    -0.258 NA
HETATM   16  C   UNL     1      44.285 -18.514   4.566  1.00  0.00     0.117 A 
HETATM   17  C   UNL     1      44.189 -18.819   3.223  1.00  0.00     0.020 A 
ENDBRANCH   1   7
BRANCH   3  18
HETATM   18  C   UNL     1      44.364 -12.897   6.889  1.00  0.00     0.164 C 
BRANCH  18  19
HETATM   19  C   UNL     1      44.185 -11.355   6.707  1.00  0.00     0.261 C 
BRANCH  19  20
HETATM   20  N   UNL     1      42.772 -10.990   6.254  1.00  0.00    -0.067 N 
HETATM   21  H   UNL     1      42.220 -11.864   6.377  1.00  0.00     0.280 HD
HETATM   22  C   UNL     1      42.057  -9.974   7.091  1.00  0.00     0.270 C 
HETATM   23  C   UNL     1      42.694 -10.661   4.795  1.00  0.00     0.270 C 
ENDBRANCH  19  20
BRANCH  19  24
HETATM   24  C   UNL     1      44.608 -10.611   7.937  1.00  0.00     0.085 A 
HETATM   25  O   UNL     1      44.227 -11.165   9.126  1.00  0.00    -0.325 OA
HETATM   26  C   UNL     1      44.702 -10.363  10.113  1.00  0.00     0.142 A 
HETATM   27  C   UNL     1      45.395  -9.304   9.580  1.00  0.00     0.027 A 
HETATM   28  C   UNL     1      45.341  -9.461   8.173  1.00  0.00     0.037 A 
ENDBRANCH  19  24
ENDBRANCH  18  19
ENDBRANCH   3  18
TORSDOF 5
ENDMDL
MODEL 5
REMARK VINA RESULT:      -7.5      1.985      6.221
REMARK  5 active torsions:
REMARK  status: ('A' for Active; 'I' for Inactive)
REMARK    1  A    between atoms: C_4  and  N_5 
REMARK       I    between atoms: N_5  and  C_6 
REMARK       I    between atoms: C_6  and  N_7 
REMARK    2  A    between atoms: N_7  and  C_8 
REMARK    3  A    between atoms: C_8  and  C_9 
REMARK    4  A    between atoms: C_9  and  N_10 
REMARK    5  A    between atoms: C_9  and  C_14 
ROOT
HETATM    1  N   UNL     1      42.008 -14.254   6.857  1.00  0.00    -0.307 N 
HETATM    2  C   UNL     1      42.034 -15.601   6.756  1.00  0.00     0.320 C 
HETATM    3  N   UNL     1      43.213 -16.192   6.448  1.00  0.00    -0.340 N 
HETATM    4  O   UNL     1      41.038 -16.282   6.997  1.00  0.00    -0.247 OA
HETATM    5  H   UNL     1      41.190 -13.875   7.335  1.00  0.00     0.170 HD
HETATM    6  H   UNL     1      44.043 -15.659   6.684  1.00  0.00     0.164 HD
ENDROOT
BRANCH   1   7
HETATM    7  C   UNL     1      42.831 -13.229   6.321  1.00  0.00     0.066 A 
HETATM    8  C   UNL     1      43.952 -12.706   6.980  1.00  0.00     0.038 A 
HETATM    9  C   UNL     1      44.728 -11.705   6.386  1.00  0.00    -0.059 A 
HETATM   10  C   UNL     1      45.944 -11.167   7.083  1.00  0.00     0.048 C 
HETATM   11  C   UNL     1      44.401 -11.269   5.100  1.00  0.00     0.020 A 
HETATM   12  C   UNL     1      43.307 -11.817   4.413  1.00  0.00    -0.005 A 
HETATM   13  C   UNL     1      42.507 -12.809   5.020  1.00  0.00     0.093 A 
HETATM   14  C   UNL     1      42.987 -11.411   3.111  1.00  0.00     0.015 A 
HETATM   15  N   UNL     1      41.453 -13.367   4.378  1.00  0.00    -0.258 NA
HETATM   16  C   UNL     1      41.178 -12.949   3.121  1.00  0.00     0.117 A 
HETATM   17  C   UNL     1      41.907 -11.986   2.453  1.00  0.00     0.020 A 
ENDBRANCH   1   7
BRANCH   3  18
HETATM   18  C   UNL     1      43.368 -17.574   6.004  1.00  0.00     0.164 C 
BRANCH  18  19
HETATM   19  C   UNL     1      44.061 -17.808   4.623  1.00  0.00     0.261 C 
BRANCH  19  20
HETATM   20  N   UNL     1      44.327 -19.289   4.357  1.00  0.00    -0.067 N 
HETATM   21  H   UNL     1      45.362 -19.364   4.285  1.00  0.00     0.280 HD
HETATM   22  C   UNL     1      43.958 -20.231   5.460  1.00  0.00     0.270 C 
HETATM   23  C   UNL     1      43.794 -19.747   3.034  1.00  0.00     0.270 C 
ENDBRANCH  19  20
BRANCH  19  24
HETATM   24  C   UNL     1      43.295 -17.150   3.515  1.00  0.00     0.085 A 
HETATM   25  O   UNL     1      41.937 -17.132   3.661  1.00  0.00    -0.325 OA
HETATM   26  C   UNL     1      41.425 -16.496   2.576  1.00  0.00     0.142 A 
HETATM   27  C   UNL     1      42.434 -16.092   1.735  1.00  0.00     0.027 A 
HETATM   28  C   UNL     1      43.645 -16.509   2.339  1.00  0.00     0.037 A 
ENDBRANCH  19  24
ENDBRANCH  18  19
ENDBRANCH   3  18
TORSDOF 5
ENDMDL
MODEL 6
REMARK VINA RESULT:      -7.5      0.887      2.689
REMARK  5 active torsions:
REMARK  status: ('A' for Active; 'I' for Inactive)
REMARK    1  A    between atoms: C_4  and  N_5 
REMARK       I    between atoms: N_5  and  C_6 
REMARK       I    between atoms: C_6  and  N_7 
REMARK    2  A    between atoms: N_7  and  C_8 
REMARK    3  A    between atoms: C_8  and  C_9 
REMARK    4  A    between atoms: C_9  and  N_10 
REMARK    5  A    between atoms: C_9  and  C_14 
ROOT
HETATM    1  N   UNL     1      42.462 -16.074   6.280  1.00  0.00    -0.307 N 
HETATM    2  C   UNL     1      42.999 -15.018   6.928  1.00  0.00     0.320 C 
HETATM    3  N   UNL     1      43.389 -13.952   6.189  1.00  0.00    -0.340 N 
HETATM    4  O   UNL     1      43.077 -14.989   8.155  1.00  0.00    -0.247 OA
HETATM    5  H   UNL     1      41.952 -16.728   6.875  1.00  0.00     0.170 HD
HETATM    6  H   UNL     1      42.925 -13.848   5.293  1.00  0.00     0.164 HD
ENDROOT
BRANCH   1   7
HETATM    7  C   UNL     1      42.561 -16.541   4.942  1.00  0.00     0.066 A 
HETATM    8  C   UNL     1      43.333 -17.644   4.559  1.00  0.00     0.038 A 
HETATM    9  C   UNL     1      43.375 -18.058   3.223  1.00  0.00    -0.059 A 
HETATM   10  C   UNL     1      44.182 -19.258   2.819  1.00  0.00     0.048 C 
HETATM   11  C   UNL     1      42.590 -17.388   2.282  1.00  0.00     0.020 A 
HETATM   12  C   UNL     1      41.777 -16.309   2.664  1.00  0.00    -0.005 A 
HETATM   13  C   UNL     1      41.754 -15.873   4.006  1.00  0.00     0.093 A 
HETATM   14  C   UNL     1      40.962 -15.647   1.737  1.00  0.00     0.015 A 
HETATM   15  N   UNL     1      40.971 -14.843   4.408  1.00  0.00    -0.258 NA
HETATM   16  C   UNL     1      40.196 -14.232   3.483  1.00  0.00     0.117 A 
HETATM   17  C   UNL     1      40.157 -14.593   2.151  1.00  0.00     0.020 A 
ENDBRANCH   1   7
BRANCH   3  18
HETATM   18  C   UNL     1      44.250 -12.873   6.662  1.00  0.00     0.164 C 
BRANCH  18  19
HETATM   19  C   UNL     1      43.622 -11.445   6.754  1.00  0.00     0.261 C 
BRANCH  19  20
HETATM   20  N   UNL     1      44.613 -10.414   7.294  1.00  0.00    -0.067 N 
HETATM   21  H   UNL     1      44.602  -9.644   6.595  1.00  0.00     0.280 HD
HETATM   22  C   UNL     1      44.236  -9.755   8.585  1.00  0.00     0.270 C 
HETATM   23  C   UNL     1      46.022 -10.919   7.321  1.00  0.00     0.270 C 
ENDBRANCH  19  20
BRANCH  19  24
HETATM   24  C   UNL     1      43.018 -11.034   5.445  1.00  0.00     0.085 A 
HETATM   25  O   UNL     1      43.510 -11.666   4.339  1.00  0.00    -0.325 OA
HETATM   26  C   UNL     1      42.844 -11.173   3.265  1.00  0.00     0.142 A 
HETATM   27  C   UNL     1      41.919 -10.238   3.660  1.00  0.00     0.027 A 
HETATM   28  C   UNL     1      42.024 -10.147   5.070  1.00  0.00     0.037 A 
ENDBRANCH  19  24
ENDBRANCH  18  19
ENDBRANCH   3  18
TORSDOF 5
ENDMDL
MODEL 7
REMARK VINA RESULT:      -7.4      2.655      3.935
REMARK  5 active torsions:
REMARK  status: ('A' for Active; 'I' for Inactive)
REMARK    1  A    between atoms: C_4  and  N_5 
REMARK       I    between atoms: N_5  and  C_6 
REMARK       I    between atoms: C_6  and  N_7 
REMARK    2  A    between atoms: N_7  and  C_8 
REMARK    3  A    between atoms: C_8  and  C_9 
REMARK    4  A    between atoms: C_9  and  N_10 
REMARK    5  A    between atoms: C_9  and  C_14 
ROOT
HETATM    1  N   UNL     1      39.865 -13.546   5.511  1.00  0.00    -0.307 N 
HETATM    2  C   UNL     1      39.668 -12.274   5.919  1.00  0.00     0.320 C 
HETATM    3  N   UNL     1      40.557 -11.334   5.518  1.00  0.00    -0.340 N 
HETATM    4  O   UNL     1      38.682 -11.958   6.582  1.00  0.00    -0.247 OA
HETATM    5  H   UNL     1      39.055 -14.159   5.610  1.00  0.00     0.170 HD
HETATM    6  H   UNL     1      41.064 -11.548   4.666  1.00  0.00     0.164 HD
ENDROOT
BRANCH   1   7
HETATM    7  C   UNL     1      41.017 -14.256   5.078  1.00  0.00     0.066 A 
HETATM    8  C   UNL     1      42.025 -14.702   5.942  1.00  0.00     0.038 A 
HETATM    9  C   UNL     1      43.128 -15.409   5.449  1.00  0.00    -0.059 A 
HETATM   10  C   UNL     1      44.193 -15.911   6.380  1.00  0.00     0.048 C 
HETATM   11  C   UNL     1      43.183 -15.712   4.086  1.00  0.00     0.020 A 
HETATM   12  C   UNL     1      42.155 -15.308   3.220  1.00  0.00    -0.005 A 
HETATM   13  C   UNL     1      41.055 -14.572   3.710  1.00  0.00     0.093 A 
HETATM   14  C   UNL     1      42.183 -15.632   1.857  1.00  0.00     0.015 A 
HETATM   15  N   UNL     1      40.042 -14.179   2.901  1.00  0.00    -0.258 NA
HETATM   16  C   UNL     1      40.105 -14.514   1.592  1.00  0.00     0.117 A 
HETATM   17  C   UNL     1      41.142 -15.230   1.029  1.00  0.00     0.020 A 
ENDBRANCH   1   7
BRANCH   3  18
HETATM   18  C   UNL     1      40.682  -9.998   6.093  1.00  0.00     0.164 C 
BRANCH  18  19
HETATM   19  C   UNL     1      41.892  -9.742   7.049  1.00  0.00     0.261 C 
BRANCH  19  20
HETATM   20  N   UNL     1      41.472  -9.727   8.518  1.00  0.00    -0.067 N 
HETATM   21  H   UNL     1      41.643 -10.697   8.853  1.00  0.00     0.280 HD
HETATM   22  C   UNL     1      42.292  -8.865   9.427  1.00  0.00     0.270 C 
HETATM   23  C   UNL     1      40.004  -9.488   8.701  1.00  0.00     0.270 C 
ENDBRANCH  19  20
BRANCH  19  24
HETATM   24  C   UNL     1      43.010 -10.704   6.778  1.00  0.00     0.085 A 
HETATM   25  O   UNL     1      43.374 -10.837   5.468  1.00  0.00    -0.325 OA
HETATM   26  C   UNL     1      44.393 -11.732   5.424  1.00  0.00     0.142 A 
HETATM   27  C   UNL     1      44.700 -12.174   6.687  1.00  0.00     0.027 A 
HETATM   28  C   UNL     1      43.811 -11.509   7.568  1.00  0.00     0.037 A 
ENDBRANCH  19  24
ENDBRANCH  18  19
ENDBRANCH   3  18
TORSDOF 5
ENDMDL
MODEL 8
REMARK VINA RESULT:      -7.4      4.058      6.523
REMARK  5 active torsions:
REMARK  status: ('A' for Active; 'I' for Inactive)
REMARK    1  A    between atoms: C_4  and  N_5 
REMARK       I    between atoms: N_5  and  C_6 
REMARK       I    between atoms: C_6  and  N_7 
REMARK    2  A    between atoms: N_7  and  C_8 
REMARK    3  A    between atoms: C_8  and  C_9 
REMARK    4  A    between atoms: C_9  and  N_10 
REMARK    5  A    between atoms: C_9  and  C_14 
ROOT
HETATM    1  N   UNL     1      40.085 -14.928   3.341  1.00  0.00    -0.307 N 
HETATM    2  C   UNL     1      39.811 -13.971   2.429  1.00  0.00     0.320 C 
HETATM    3  N   UNL     1      40.502 -13.989   1.263  1.00  0.00    -0.340 N 
HETATM    4  O   UNL     1      38.920 -13.143   2.614  1.00  0.00    -0.247 OA
HETATM    5  H   UNL     1      39.382 -15.038   4.073  1.00  0.00     0.170 HD
HETATM    6  H   UNL     1      40.879 -14.891   0.993  1.00  0.00     0.164 HD
ENDROOT
BRANCH   1   7
HETATM    7  C   UNL     1      41.223 -15.746   3.573  1.00  0.00     0.066 A 
HETATM    8  C   UNL     1      41.605 -16.804   2.739  1.00  0.00     0.038 A 
HETATM    9  C   UNL     1      42.748 -17.560   3.020  1.00  0.00    -0.059 A 
HETATM   10  C   UNL     1      43.169 -18.676   2.108  1.00  0.00     0.048 C 
HETATM   11  C   UNL     1      43.537 -17.211   4.119  1.00  0.00     0.020 A 
HETATM   12  C   UNL     1      43.187 -16.125   4.936  1.00  0.00    -0.005 A 
HETATM   13  C   UNL     1      42.021 -15.376   4.669  1.00  0.00     0.093 A 
HETATM   14  C   UNL     1      43.986 -15.744   6.022  1.00  0.00     0.015 A 
HETATM   15  N   UNL     1      41.665 -14.314   5.432  1.00  0.00    -0.258 NA
HETATM   16  C   UNL     1      42.464 -13.978   6.470  1.00  0.00     0.117 A 
HETATM   17  C   UNL     1      43.621 -14.654   6.802  1.00  0.00     0.020 A 
ENDBRANCH   1   7
BRANCH   3  18
HETATM   18  C   UNL     1      40.564 -12.887   0.308  1.00  0.00     0.164 C 
BRANCH  18  19
HETATM   19  C   UNL     1      39.232 -12.478  -0.399  1.00  0.00     0.261 C 
BRANCH  19  20
HETATM   20  N   UNL     1      39.235 -11.011  -0.827  1.00  0.00    -0.067 N 
HETATM   21  H   UNL     1      38.607 -10.976  -1.657  1.00  0.00     0.280 HD
HETATM   22  C   UNL     1      38.631 -10.043   0.142  1.00  0.00     0.270 C 
HETATM   23  C   UNL     1      40.574 -10.549  -1.312  1.00  0.00     0.270 C 
ENDBRANCH  19  20
BRANCH  19  24
HETATM   24  C   UNL     1      38.910 -13.409  -1.529  1.00  0.00     0.085 A 
HETATM   25  O   UNL     1      39.217 -14.724  -1.321  1.00  0.00    -0.325 OA
HETATM   26  C   UNL     1      38.850 -15.403  -2.437  1.00  0.00     0.142 A 
HETATM   27  C   UNL     1      38.301 -14.549  -3.361  1.00  0.00     0.027 A 
HETATM   28  C   UNL     1      38.333 -13.258  -2.778  1.00  0.00     0.037 A 
ENDBRANCH  19  24
ENDBRANCH  18  19
ENDBRANCH   3  18
TORSDOF 5
ENDMDL
MODEL 9
REMARK VINA RESULT:      -7.4      3.328      5.152
REMARK  5 active torsions:
REMARK  status: ('A' for Active; 'I' for Inactive)
REMARK    1  A    between atoms: C_4  and  N_5 
REMARK       I    between atoms: N_5  and  C_6 
REMARK       I    between atoms: C_6  and  N_7 
REMARK    2  A    between atoms: N_7  and  C_8 
REMARK    3  A    between atoms: C_8  and  C_9 
REMARK    4  A    between atoms: C_9  and  N_10 
REMARK    5  A    between atoms: C_9  and  C_14 
ROOT
HETATM    1  N   UNL     1      40.614 -15.867   1.582  1.00  0.00    -0.307 N 
HETATM    2  C   UNL     1      40.482 -14.915   0.634  1.00  0.00     0.320 C 
HETATM    3  N   UNL     1      41.252 -13.806   0.736  1.00  0.00    -0.340 N 
HETATM    4  O   UNL     1      39.734 -15.069  -0.331  1.00  0.00    -0.247 OA
HETATM    5  H   UNL     1      40.223 -16.777   1.335  1.00  0.00     0.170 HD
HETATM    6  H   UNL     1      42.112 -13.919   1.262  1.00  0.00     0.164 HD
ENDROOT
BRANCH   1   7
HETATM    7  C   UNL     1      41.082 -15.838   2.923  1.00  0.00     0.066 A 
HETATM    8  C   UNL     1      40.524 -15.033   3.924  1.00  0.00     0.038 A 
HETATM    9  C   UNL     1      41.027 -15.064   5.230  1.00  0.00    -0.059 A 
HETATM   10  C   UNL     1      40.409 -14.220   6.307  1.00  0.00     0.048 C 
HETATM   11  C   UNL     1      42.060 -15.953   5.536  1.00  0.00     0.020 A 
HETATM   12  C   UNL     1      42.596 -16.796   4.550  1.00  0.00    -0.005 A 
HETATM   13  C   UNL     1      42.108 -16.748   3.226  1.00  0.00     0.093 A 
HETATM   14  C   UNL     1      43.611 -17.714   4.850  1.00  0.00     0.015 A 
HETATM   15  N   UNL     1      42.596 -17.558   2.257  1.00  0.00    -0.258 NA
HETATM   16  C   UNL     1      43.574 -18.432   2.588  1.00  0.00     0.117 A 
HETATM   17  C   UNL     1      44.108 -18.546   3.855  1.00  0.00     0.020 A 
ENDBRANCH   1   7
BRANCH   3  18
HETATM   18  C   UNL     1      41.037 -12.564  -0.001  1.00  0.00     0.164 C 
BRANCH  18  19
HETATM   19  C   UNL     1      40.680 -11.291   0.832  1.00  0.00     0.261 C 
BRANCH  19  20
HETATM   20  N   UNL     1      39.173 -11.042   0.884  1.00  0.00    -0.067 N 
HETATM   21  H   UNL     1      38.868 -11.449   1.793  1.00  0.00     0.280 HD
HETATM   22  C   UNL     1      38.747  -9.608   0.953  1.00  0.00     0.270 C 
HETATM   23  C   UNL     1      38.421 -11.794  -0.170  1.00  0.00     0.270 C 
ENDBRANCH  19  20
BRANCH  19  24
HETATM   24  C   UNL     1      41.304 -11.342   2.194  1.00  0.00     0.085 A 
HETATM   25  O   UNL     1      42.670 -11.311   2.223  1.00  0.00    -0.325 OA
HETATM   26  C   UNL     1      43.045 -11.358   3.526  1.00  0.00     0.142 A 
HETATM   27  C   UNL     1      41.942 -11.407   4.343  1.00  0.00     0.027 A 
HETATM   28  C   UNL     1      40.813 -11.394   3.487  1.00  0.00     0.037 A 
ENDBRANCH  19  24
ENDBRANCH  18  19
ENDBRANCH   3  18
TORSDOF 5
ENDMDL
MODEL 10
REMARK VINA RESULT:      -7.4      2.790      5.440
REMARK  5 active torsions:
REMARK  status: ('A' for Active; 'I' for Inactive)
REMARK    1  A    between atoms: C_4  and  N_5 
REMARK       I    between atoms: N_5  and  C_6 
REMARK       I    between atoms: C_6  and  N_7 
REMARK    2  A    between atoms: N_7  and  C_8 
REMARK    3  A    between atoms: C_8  and  C_9 
REMARK    4  A    between atoms: C_9  and  N_10 
REMARK    5  A    between atoms: C_9  and  C_14 
ROOT
HETATM    1  N   UNL     1      43.349 -13.341   3.176  1.00  0.00    -0.307 N 
HETATM    2  C   UNL     1      42.479 -12.321   3.019  1.00  0.00     0.320 C 
HETATM    3  N   UNL     1      41.303 -12.381   3.689  1.00  0.00    -0.340 N 
HETATM    4  O   UNL     1      42.762 -11.333   2.342  1.00  0.00    -0.247 OA
HETATM    5  H   UNL     1      44.304 -13.142   2.874  1.00  0.00     0.170 HD
HETATM    6  H   UNL     1      41.306 -12.956   4.525  1.00  0.00     0.164 HD
ENDROOT
BRANCH   1   7
HETATM    7  C   UNL     1      43.189 -14.698   3.563  1.00  0.00     0.066 A 
HETATM    8  C   UNL     1      43.198 -15.771   2.662  1.00  0.00     0.038 A 
HETATM    9  C   UNL     1      43.048 -17.086   3.115  1.00  0.00    -0.059 A 
HETATM   10  C   UNL     1      43.087 -18.236   2.150  1.00  0.00     0.048 C 
HETATM   11  C   UNL     1      42.943 -17.321   4.488  1.00  0.00     0.020 A 
HETATM   12  C   UNL     1      42.977 -16.257   5.402  1.00  0.00    -0.005 A 
HETATM   13  C   UNL     1      43.102 -14.927   4.946  1.00  0.00     0.093 A 
HETATM   14  C   UNL     1      42.904 -16.481   6.783  1.00  0.00     0.015 A 
HETATM   15  N   UNL     1      43.151 -13.880   5.805  1.00  0.00    -0.258 NA
HETATM   16  C   UNL     1      43.080 -14.139   7.131  1.00  0.00     0.117 A 
HETATM   17  C   UNL     1      42.957 -15.407   7.663  1.00  0.00     0.020 A 
ENDBRANCH   1   7
BRANCH   3  18
HETATM   18  C   UNL     1      40.138 -11.546   3.415  1.00  0.00     0.164 C 
BRANCH  18  19
HETATM   19  C   UNL     1      39.102 -12.084   2.376  1.00  0.00     0.261 C 
BRANCH  19  20
HETATM   20  N   UNL     1      38.834 -11.078   1.257  1.00  0.00    -0.067 N 
HETATM   21  H   UNL     1      39.294 -11.486   0.418  1.00  0.00     0.280 HD
HETATM   22  C   UNL     1      37.401 -10.909   0.855  1.00  0.00     0.270 C 
HETATM   23  C   UNL     1      39.505  -9.758   1.487  1.00  0.00     0.270 C 
ENDBRANCH  19  20
BRANCH  19  24
HETATM   24  C   UNL     1      39.504 -13.431   1.857  1.00  0.00     0.085 A 
HETATM   25  O   UNL     1      39.393 -14.466   2.742  1.00  0.00    -0.325 OA
HETATM   26  C   UNL     1      39.790 -15.591   2.096  1.00  0.00     0.142 A 
HETATM   27  C   UNL     1      40.148 -15.302   0.802  1.00  0.00     0.027 A 
HETATM   28  C   UNL     1      39.961 -13.907   0.641  1.00  0.00     0.037 A 
ENDBRANCH  19  24
ENDBRANCH  18  19
ENDBRANCH   3  18
TORSDOF 5
ENDMDL
