MODEL 1
REMARK VINA RESULT:      -9.0      0.000      0.000
REMARK  7 active torsions:
REMARK  status: ('A' for Active; 'I' for Inactive)
REMARK    1  A    between atoms: O_2  and  C_3 
REMARK    2  A    between atoms: C_5  and  C_6 
REMARK    3  A    between atoms: C_6  and  O_7 
REMARK    4  A    between atoms: C_6  and  C_8 
REMARK    5  A    between atoms: C_8  and  N_9 
REMARK       I    between atoms: N_9  and  C_10 
REMARK    6  A    between atoms: C_10  and  C_11 
REMARK    7  A    between atoms: C_12  and  C_13 
ROOT
HETATM    1  C   UNL     1      42.505 -13.020   4.686  1.00  0.00     0.089 C 
HETATM    2  C   UNL     1      42.864 -14.086   5.751  1.00  0.00     0.068 C 
HETATM    3  C   UNL     1      44.141 -13.696   6.526  1.00  0.00     0.013 C 
HETATM    4  C   UNL     1      44.074 -12.290   7.105  1.00  0.00     0.001 C 
HETATM    5  C   UNL     1      43.780 -11.265   6.020  1.00  0.00     0.001 C 
HETATM    6  C   UNL     1      42.485 -11.606   5.296  1.00  0.00     0.015 C 
ENDROOT
BRANCH   1   7
HETATM    7  C   UNL     1      41.139 -13.299   4.052  1.00  0.00     0.222 C 
HETATM    8  N   UNL     1      41.175 -13.553   2.700  1.00  0.00    -0.358 N 
HETATM    9  H   UNL     1      42.084 -13.773   2.288  1.00  0.00     0.162 HD
HETATM   10  O   UNL     1      40.090 -13.301   4.689  1.00  0.00    -0.273 OA
BRANCH   8  11
HETATM   11  C   UNL     1      39.976 -13.948   1.971  1.00  0.00     0.159 C 
BRANCH  11  12
HETATM   12  C   UNL     1      40.307 -14.845   0.763  1.00  0.00     0.169 C 
BRANCH  12  13
HETATM   13  C   UNL     1      40.029 -14.137  -0.545  1.00  0.00    -0.025 A 
HETATM   14  C   UNL     1      40.531 -12.848  -0.804  1.00  0.00     0.046 A 
HETATM   15  C   UNL     1      40.293 -12.220  -2.029  1.00  0.00     0.068 A 
HETATM   16  C   UNL     1      39.550 -12.887  -3.005  1.00  0.00     0.037 A 
HETATM   17  C   UNL     1      39.048 -14.166  -2.766  1.00  0.00     0.003 A 
HETATM   18  C   UNL     1      39.290 -14.790  -1.544  1.00  0.00     0.010 A 
BRANCH  15  19
HETATM   19  O   UNL     1      40.731 -10.977  -2.395  1.00  0.00    -0.356 OA
HETATM   20  C   UNL     1      41.528 -10.275  -1.449  1.00  0.00     0.210 C 
ENDBRANCH  15  19
ENDBRANCH  12  13
BRANCH  12  21
HETATM   21  O   UNL     1      39.520 -16.041   0.840  1.00  0.00    -0.389 OA
HETATM   22  H   UNL     1      39.274 -16.240  -0.081  1.00  0.00     0.210 HD
ENDBRANCH  12  21
ENDBRANCH  11  12
ENDBRANCH   8  11
ENDBRANCH   1   7
BRANCH   2  23
HETATM   23  C   UNL     1      43.072 -15.455   5.157  1.00  0.00     0.110 A 
HETATM   24  N   UNL     1      42.931 -15.801   3.891  1.00  0.00    -0.233 NA
HETATM   25  C   UNL     1      43.265 -17.132   3.828  1.00  0.00     0.087 A 
HETATM   26  C   UNL     1      43.602 -17.617   5.086  1.00  0.00     0.062 A 
HETATM   27  C   UNL     1      43.299 -17.993   2.723  1.00  0.00     0.057 A 
HETATM   28  N   UNL     1      43.458 -16.534   5.917  1.00  0.00    -0.342 N 
HETATM   29  C   UNL     1      43.990 -18.937   5.323  1.00  0.00     0.034 A 
HETATM   30  H   UNL     1      43.628 -16.525   6.912  1.00  0.00     0.167 HD
HETATM   31  C   UNL     1      44.025 -19.786   4.210  1.00  0.00     0.026 A 
HETATM   32  C   UNL     1      43.683 -19.320   2.937  1.00  0.00     0.036 A 
HETATM   33 CL   UNL     1      43.740 -20.405   1.600  1.00  0.00    -0.084 Cl
ENDBRANCH   2  23
TORSDOF 7
ENDMDL
MODEL 2
REMARK VINA RESULT:      -8.9      3.818      7.337
REMARK  7 active torsions:
REMARK  status: ('A' for Active; 'I' for Inactive)
REMARK    1  A    between atoms: O_2  and  C_3 
REMARK    2  A    between atoms: C_5  and  C_6 
REMARK    3  A    between atoms: C_6  and  O_7 
REMARK    4  A    between atoms: C_6  and  C_8 
REMARK    5  A    between atoms: C_8  and  N_9 
REMARK       I    between atoms: N_9  and  C_10 
REMARK    6  A    between atoms: C_10  and  C_11 
REMARK    7  A    between atoms: C_12  and  C_13 
ROOT
HETATM    1  C   UNL     1      43.995 -18.451   3.975  1.00  0.00     0.089 C 
HETATM    2  C   UNL     1      42.626 -18.221   3.286  1.00  0.00     0.068 C 
HETATM    3  C   UNL     1      42.574 -18.901   1.902  1.00  0.00     0.013 C 
HETATM    4  C   UNL     1      42.964 -20.372   1.951  1.00  0.00     0.001 C 
HETATM    5  C   UNL     1      44.339 -20.551   2.578  1.00  0.00     0.001 C 
HETATM    6  C   UNL     1      44.378 -19.943   3.972  1.00  0.00     0.015 C 
ENDROOT
BRANCH   1   7
HETATM    7  C   UNL     1      43.985 -17.950   5.422  1.00  0.00     0.222 C 
HETATM    8  N   UNL     1      44.710 -16.800   5.637  1.00  0.00    -0.358 N 
HETATM    9  H   UNL     1      44.979 -16.255   4.815  1.00  0.00     0.162 HD
HETATM   10  O   UNL     1      43.380 -18.519   6.327  1.00  0.00    -0.273 OA
BRANCH   8  11
HETATM   11  C   UNL     1      44.707 -16.133   6.933  1.00  0.00     0.159 C 
BRANCH  11  12
HETATM   12  C   UNL     1      43.283 -15.759   7.385  1.00  0.00     0.169 C 
BRANCH  12  13
HETATM   13  C   UNL     1      42.890 -14.383   6.897  1.00  0.00    -0.025 A 
HETATM   14  C   UNL     1      43.830 -13.339   6.807  1.00  0.00     0.046 A 
HETATM   15  C   UNL     1      43.459 -12.082   6.323  1.00  0.00     0.068 A 
HETATM   16  C   UNL     1      42.138 -11.867   5.925  1.00  0.00     0.037 A 
HETATM   17  C   UNL     1      41.195 -12.890   6.005  1.00  0.00     0.003 A 
HETATM   18  C   UNL     1      41.570 -14.144   6.485  1.00  0.00     0.010 A 
BRANCH  15  19
HETATM   19  O   UNL     1      44.281 -10.997   6.187  1.00  0.00    -0.356 OA
HETATM   20  C   UNL     1      45.625 -11.153   6.626  1.00  0.00     0.210 C 
ENDBRANCH  15  19
ENDBRANCH  12  13
BRANCH  12  21
HETATM   21  O   UNL     1      43.224 -15.799   8.818  1.00  0.00    -0.389 OA
HETATM   22  H   UNL     1      42.320 -15.508   9.039  1.00  0.00     0.210 HD
ENDBRANCH  12  21
ENDBRANCH  11  12
ENDBRANCH   8  11
ENDBRANCH   1   7
BRANCH   2  23
HETATM   23  C   UNL     1      42.304 -16.760   3.107  1.00  0.00     0.110 A 
HETATM   24  N   UNL     1      43.163 -15.767   2.978  1.00  0.00    -0.233 NA
HETATM   25  C   UNL     1      42.403 -14.636   2.801  1.00  0.00     0.087 A 
HETATM   26  C   UNL     1      41.048 -14.940   2.840  1.00  0.00     0.062 A 
HETATM   27  C   UNL     1      42.810 -13.309   2.605  1.00  0.00     0.057 A 
HETATM   28  N   UNL     1      41.011 -16.295   3.050  1.00  0.00    -0.342 N 
HETATM   29  C   UNL     1      40.041 -13.985   2.684  1.00  0.00     0.034 A 
HETATM   30  H   UNL     1      40.176 -16.859   3.127  1.00  0.00     0.167 HD
HETATM   31  C   UNL     1      40.460 -12.665   2.483  1.00  0.00     0.026 A 
HETATM   32  C   UNL     1      41.818 -12.337   2.446  1.00  0.00     0.036 A 
HETATM   33 CL   UNL     1      42.282 -10.696   2.199  1.00  0.00    -0.084 Cl
ENDBRANCH   2  23
TORSDOF 7
ENDMDL
MODEL 3
REMARK VINA RESULT:      -8.7      3.355      8.160
REMARK  7 active torsions:
REMARK  status: ('A' for Active; 'I' for Inactive)
REMARK    1  A    between atoms: O_2  and  C_3 
REMARK    2  A    between atoms: C_5  and  C_6 
REMARK    3  A    between atoms: C_6  and  O_7 
REMARK    4  A    between atoms: C_6  and  C_8 
REMARK    5  A    between atoms: C_8  and  N_9 
REMARK       I    between atoms: N_9  and  C_10 
REMARK    6  A    between atoms: C_10  and  C_11 
REMARK    7  A    between atoms: C_12  and  C_13 
ROOT
HETATM    1  C   UNL     1      43.298 -16.741   4.117  1.00  0.00     0.089 C 
HETATM    2  C   UNL     1      42.058 -17.123   3.272  1.00  0.00     0.068 C 
HETATM    3  C   UNL     1      42.451 -17.990   2.058  1.00  0.00     0.013 C 
HETATM    4  C   UNL     1      43.290 -19.201   2.444  1.00  0.00     0.001 C 
HETATM    5  C   UNL     1      44.530 -18.781   3.219  1.00  0.00     0.001 C 
HETATM    6  C   UNL     1      44.146 -17.982   4.456  1.00  0.00     0.015 C 
ENDROOT
BRANCH   1   7
HETATM    7  C   UNL     1      42.896 -16.051   5.423  1.00  0.00     0.222 C 
HETATM    8  N   UNL     1      43.214 -14.714   5.488  1.00  0.00    -0.358 N 
HETATM    9  H   UNL     1      43.454 -14.246   4.611  1.00  0.00     0.162 HD
HETATM   10  O   UNL     1      42.333 -16.634   6.346  1.00  0.00    -0.273 OA
BRANCH   8  11
HETATM   11  C   UNL     1      42.797 -13.889   6.615  1.00  0.00     0.159 C 
BRANCH  11  12
HETATM   12  C   UNL     1      42.788 -12.390   6.259  1.00  0.00     0.169 C 
BRANCH  12  13
HETATM   13  C   UNL     1      43.927 -11.654   6.929  1.00  0.00    -0.025 A 
HETATM   14  C   UNL     1      43.778 -11.072   8.201  1.00  0.00     0.046 A 
HETATM   15  C   UNL     1      44.849 -10.424   8.822  1.00  0.00     0.068 A 
HETATM   16  C   UNL     1      46.080 -10.359   8.167  1.00  0.00     0.037 A 
HETATM   17  C   UNL     1      46.246 -10.933   6.907  1.00  0.00     0.003 A 
HETATM   18  C   UNL     1      45.176 -11.582   6.293  1.00  0.00     0.010 A 
BRANCH  15  19
HETATM   19  O   UNL     1      44.824  -9.826  10.052  1.00  0.00    -0.356 OA
HETATM   20  C   UNL     1      43.865 -10.313  10.982  1.00  0.00     0.210 C 
ENDBRANCH  15  19
ENDBRANCH  12  13
BRANCH  12  21
HETATM   21  O   UNL     1      41.538 -11.820   6.670  1.00  0.00    -0.389 OA
HETATM   22  H   UNL     1      41.588 -10.885   6.401  1.00  0.00     0.210 HD
ENDBRANCH  12  21
ENDBRANCH  11  12
ENDBRANCH   8  11
ENDBRANCH   1   7
BRANCH   2  23
HETATM   23  C   UNL     1      41.305 -15.919   2.768  1.00  0.00     0.110 A 
HETATM   24  N   UNL     1      40.509 -15.130   3.464  1.00  0.00    -0.233 NA
HETATM   25  C   UNL     1      40.090 -14.156   2.590  1.00  0.00     0.087 A 
HETATM   26  C   UNL     1      40.628 -14.362   1.326  1.00  0.00     0.062 A 
HETATM   27  C   UNL     1      39.243 -13.062   2.812  1.00  0.00     0.057 A 
HETATM   28  N   UNL     1      41.386 -15.497   1.461  1.00  0.00    -0.342 N 
HETATM   29  C   UNL     1      40.378 -13.523   0.238  1.00  0.00     0.034 A 
HETATM   30  H   UNL     1      41.929 -15.937   0.731  1.00  0.00     0.167 HD
HETATM   31  C   UNL     1      39.535 -12.431   0.474  1.00  0.00     0.026 A 
HETATM   32  C   UNL     1      38.978 -12.209   1.737  1.00  0.00     0.036 A 
HETATM   33 CL   UNL     1      37.944 -10.852   1.975  1.00  0.00    -0.084 Cl
ENDBRANCH   2  23
TORSDOF 7
ENDMDL
MODEL 4
REMARK VINA RESULT:      -8.6      3.282      6.748
REMARK  7 active torsions:
REMARK  status: ('A' for Active; 'I' for Inactive)
REMARK    1  A    between atoms: O_2  and  C_3 
REMARK    2  A    between atoms: C_5  and  C_6 
REMARK    3  A    between atoms: C_6  and  O_7 
REMARK    4  A    between atoms: C_6  and  C_8 
REMARK    5  A    between atoms: C_8  and  N_9 
REMARK       I    between atoms: N_9  and  C_10 
REMARK    6  A    between atoms: C_10  and  C_11 
REMARK    7  A    between atoms: C_12  and  C_13 
ROOT
HETATM    1  C   UNL     1      43.278 -16.754   4.378  1.00  0.00     0.089 C 
HETATM    2  C   UNL     1      42.405 -17.226   3.188  1.00  0.00     0.068 C 
HETATM    3  C   UNL     1      43.184 -18.190   2.269  1.00  0.00     0.013 C 
HETATM    4  C   UNL     1      43.813 -19.350   3.028  1.00  0.00     0.001 C 
HETATM    5  C   UNL     1      44.710 -18.847   4.149  1.00  0.00     0.001 C 
HETATM    6  C   UNL     1      43.931 -17.949   5.098  1.00  0.00     0.015 C 
ENDROOT
BRANCH   1   7
HETATM    7  C   UNL     1      42.456 -15.958   5.395  1.00  0.00     0.222 C 
HETATM    8  N   UNL     1      42.525 -14.592   5.247  1.00  0.00    -0.358 N 
HETATM    9  H   UNL     1      42.897 -14.235   4.364  1.00  0.00     0.162 HD
HETATM   10  O   UNL     1      41.783 -16.486   6.277  1.00  0.00    -0.273 OA
BRANCH   8  11
HETATM   11  C   UNL     1      41.712 -13.698   6.062  1.00  0.00     0.159 C 
BRANCH  11  12
HETATM   12  C   UNL     1      40.237 -13.696   5.618  1.00  0.00     0.169 C 
BRANCH  12  13
HETATM   13  C   UNL     1      39.703 -12.288   5.473  1.00  0.00    -0.025 A 
HETATM   14  C   UNL     1      39.507 -11.459   6.592  1.00  0.00     0.046 A 
HETATM   15  C   UNL     1      39.044 -10.149   6.440  1.00  0.00     0.068 A 
HETATM   16  C   UNL     1      38.778  -9.664   5.158  1.00  0.00     0.037 A 
HETATM   17  C   UNL     1      38.970 -10.472   4.038  1.00  0.00     0.003 A 
HETATM   18  C   UNL     1      39.435 -11.777   4.194  1.00  0.00     0.010 A 
BRANCH  15  19
HETATM   19  O   UNL     1      38.819  -9.252   7.448  1.00  0.00    -0.356 OA
HETATM   20  C   UNL     1      39.397  -9.551   8.712  1.00  0.00     0.210 C 
ENDBRANCH  15  19
ENDBRANCH  12  13
BRANCH  12  21
HETATM   21  O   UNL     1      39.458 -14.410   6.588  1.00  0.00    -0.389 OA
HETATM   22  H   UNL     1      38.833 -13.751   6.941  1.00  0.00     0.210 HD
ENDBRANCH  12  21
ENDBRANCH  11  12
ENDBRANCH   8  11
ENDBRANCH   1   7
BRANCH   2  23
HETATM   23  C   UNL     1      41.898 -16.081   2.350  1.00  0.00     0.110 A 
HETATM   24  N   UNL     1      42.344 -14.839   2.348  1.00  0.00    -0.233 NA
HETATM   25  C   UNL     1      41.604 -14.177   1.399  1.00  0.00     0.087 A 
HETATM   26  C   UNL     1      40.671 -15.027   0.818  1.00  0.00     0.062 A 
HETATM   27  C   UNL     1      41.674 -12.840   0.984  1.00  0.00     0.057 A 
HETATM   28  N   UNL     1      40.869 -16.229   1.450  1.00  0.00    -0.342 N 
HETATM   29  C   UNL     1      39.784 -14.627  -0.183  1.00  0.00     0.034 A 
HETATM   30  H   UNL     1      40.361 -17.083   1.269  1.00  0.00     0.167 HD
HETATM   31  C   UNL     1      39.869 -13.291  -0.593  1.00  0.00     0.026 A 
HETATM   32  C   UNL     1      40.795 -12.417  -0.017  1.00  0.00     0.036 A 
HETATM   33 CL   UNL     1      40.857 -10.781  -0.555  1.00  0.00    -0.084 Cl
ENDBRANCH   2  23
TORSDOF 7
ENDMDL
MODEL 5
REMARK VINA RESULT:      -8.5      2.640      6.647
REMARK  7 active torsions:
REMARK  status: ('A' for Active; 'I' for Inactive)
REMARK    1  A    between atoms: O_2  and  C_3 
REMARK    2  A    between atoms: C_5  and  C_6 
REMARK    3  A    between atoms: C_6  and  O_7 
REMARK    4  A    between atoms: C_6  and  C_8 
REMARK    5  A    between atoms: C_8  and  N_9 
REMARK       I    between atoms: N_9  and  C_10 
REMARK    6  A    between atoms: C_10  and  C_11 
REMARK    7  A    between atoms: C_12  and  C_13 
ROOT
HETATM    1  C   UNL     1      38.954 -12.706  -0.665  1.00  0.00     0.089 C 
HETATM    2  C   UNL     1      39.903 -13.906  -0.911  1.00  0.00     0.068 C 
HETATM    3  C   UNL     1      39.178 -15.052  -1.648  1.00  0.00     0.013 C 
HETATM    4  C   UNL     1      38.481 -14.589  -2.919  1.00  0.00     0.001 C 
HETATM    5  C   UNL     1      37.513 -13.451  -2.628  1.00  0.00     0.001 C 
HETATM    6  C   UNL     1      38.235 -12.289  -1.962  1.00  0.00     0.015 C 
ENDROOT
BRANCH   1   7
HETATM    7  C   UNL     1      39.713 -11.496  -0.115  1.00  0.00     0.222 C 
HETATM    8  N   UNL     1      39.174 -10.952   1.029  1.00  0.00    -0.358 N 
HETATM    9  H   UNL     1      38.491 -11.516   1.540  1.00  0.00     0.162 HD
HETATM   10  O   UNL     1      40.724 -11.039  -0.641  1.00  0.00    -0.273 OA
BRANCH   8  11
HETATM   11  C   UNL     1      39.840  -9.869   1.741  1.00  0.00     0.159 C 
BRANCH  11  12
HETATM   12  C   UNL     1      39.888 -10.121   3.260  1.00  0.00     0.169 C 
BRANCH  12  13
HETATM   13  C   UNL     1      41.056 -11.006   3.638  1.00  0.00    -0.025 A 
HETATM   14  C   UNL     1      41.078 -11.712   4.855  1.00  0.00     0.046 A 
HETATM   15  C   UNL     1      42.149 -12.550   5.176  1.00  0.00     0.068 A 
HETATM   16  C   UNL     1      43.204 -12.686   4.272  1.00  0.00     0.037 A 
HETATM   17  C   UNL     1      43.196 -11.995   3.061  1.00  0.00     0.003 A 
HETATM   18  C   UNL     1      42.125 -11.163   2.743  1.00  0.00     0.010 A 
BRANCH  15  19
HETATM   19  O   UNL     1      42.280 -13.286   6.321  1.00  0.00    -0.356 OA
HETATM   20  C   UNL     1      43.603 -13.634   6.712  1.00  0.00     0.210 C 
ENDBRANCH  15  19
ENDBRANCH  12  13
BRANCH  12  21
HETATM   21  O   UNL     1      38.661 -10.742   3.667  1.00  0.00    -0.389 OA
HETATM   22  H   UNL     1      38.456 -10.346   4.534  1.00  0.00     0.210 HD
ENDBRANCH  12  21
ENDBRANCH  11  12
ENDBRANCH   8  11
ENDBRANCH   1   7
BRANCH   2  23
HETATM   23  C   UNL     1      40.484 -14.458   0.365  1.00  0.00     0.110 A 
HETATM   24  N   UNL     1      39.853 -14.646   1.509  1.00  0.00    -0.233 NA
HETATM   25  C   UNL     1      40.778 -15.201   2.359  1.00  0.00     0.087 A 
HETATM   26  C   UNL     1      42.008 -15.342   1.728  1.00  0.00     0.062 A 
HETATM   27  C   UNL     1      40.635 -15.609   3.692  1.00  0.00     0.057 A 
HETATM   28  N   UNL     1      41.799 -14.849   0.465  1.00  0.00    -0.342 N 
HETATM   29  C   UNL     1      43.134 -15.884   2.350  1.00  0.00     0.034 A 
HETATM   30  H   UNL     1      42.486 -14.802  -0.274  1.00  0.00     0.167 HD
HETATM   31  C   UNL     1      42.976 -16.293   3.680  1.00  0.00     0.026 A 
HETATM   32  C   UNL     1      41.750 -16.154   4.335  1.00  0.00     0.036 A 
HETATM   33 CL   UNL     1      41.607 -16.669   5.973  1.00  0.00    -0.084 Cl
ENDBRANCH   2  23
TORSDOF 7
ENDMDL
MODEL 6
REMARK VINA RESULT:      -8.5      2.842      7.060
REMARK  7 active torsions:
REMARK  status: ('A' for Active; 'I' for Inactive)
REMARK    1  A    between atoms: O_2  and  C_3 
REMARK    2  A    between atoms: C_5  and  C_6 
REMARK    3  A    between atoms: C_6  and  O_7 
REMARK    4  A    between atoms: C_6  and  C_8 
REMARK    5  A    between atoms: C_8  and  N_9 
REMARK       I    between atoms: N_9  and  C_10 
REMARK    6  A    between atoms: C_10  and  C_11 
REMARK    7  A    between atoms: C_12  and  C_13 
ROOT
HETATM    1  C   UNL     1      41.184 -13.812   3.710  1.00  0.00     0.089 C 
HETATM    2  C   UNL     1      42.262 -14.301   2.712  1.00  0.00     0.068 C 
HETATM    3  C   UNL     1      41.746 -14.245   1.258  1.00  0.00     0.013 C 
HETATM    4  C   UNL     1      41.179 -12.883   0.884  1.00  0.00     0.001 C 
HETATM    5  C   UNL     1      40.082 -12.464   1.852  1.00  0.00     0.001 C 
HETATM    6  C   UNL     1      40.602 -12.451   3.282  1.00  0.00     0.015 C 
ENDROOT
BRANCH   1   7
HETATM    7  C   UNL     1      41.750 -13.678   5.126  1.00  0.00     0.222 C 
HETATM    8  N   UNL     1      42.999 -13.103   5.193  1.00  0.00    -0.358 N 
HETATM    9  H   UNL     1      43.331 -12.606   4.363  1.00  0.00     0.162 HD
HETATM   10  O   UNL     1      41.148 -14.048   6.130  1.00  0.00    -0.273 OA
BRANCH   8  11
HETATM   11  C   UNL     1      43.628 -12.801   6.473  1.00  0.00     0.159 C 
BRANCH  11  12
HETATM   12  C   UNL     1      44.828 -11.848   6.314  1.00  0.00     0.169 C 
BRANCH  12  13
HETATM   13  C   UNL     1      44.758 -10.701   7.299  1.00  0.00    -0.025 A 
HETATM   14  C   UNL     1      43.526 -10.207   7.765  1.00  0.00     0.046 A 
HETATM   15  C   UNL     1      43.479  -9.169   8.699  1.00  0.00     0.068 A 
HETATM   16  C   UNL     1      44.674  -8.622   9.172  1.00  0.00     0.037 A 
HETATM   17  C   UNL     1      45.903  -9.102   8.723  1.00  0.00     0.003 A 
HETATM   18  C   UNL     1      45.945 -10.140   7.794  1.00  0.00     0.010 A 
BRANCH  15  19
HETATM   19  O   UNL     1      42.347  -8.610   9.226  1.00  0.00    -0.356 OA
HETATM   20  C   UNL     1      41.105  -9.157   8.800  1.00  0.00     0.210 C 
ENDBRANCH  15  19
ENDBRANCH  12  13
BRANCH  12  21
HETATM   21  O   UNL     1      44.841 -11.334   4.975  1.00  0.00    -0.389 OA
HETATM   22  H   UNL     1      45.498 -10.615   4.990  1.00  0.00     0.210 HD
ENDBRANCH  12  21
ENDBRANCH  11  12
ENDBRANCH   8  11
ENDBRANCH   1   7
BRANCH   2  23
HETATM   23  C   UNL     1      42.721 -15.707   2.996  1.00  0.00     0.110 A 
HETATM   24  N   UNL     1      43.179 -16.178   4.140  1.00  0.00    -0.233 NA
HETATM   25  C   UNL     1      43.430 -17.511   3.923  1.00  0.00     0.087 A 
HETATM   26  C   UNL     1      43.136 -17.862   2.611  1.00  0.00     0.062 A 
HETATM   27  C   UNL     1      43.916 -18.484   4.807  1.00  0.00     0.057 A 
HETATM   28  N   UNL     1      42.700 -16.694   2.038  1.00  0.00    -0.342 N 
HETATM   29  C   UNL     1      43.289 -19.155   2.108  1.00  0.00     0.034 A 
HETATM   30  H   UNL     1      42.394 -16.583   1.081  1.00  0.00     0.167 HD
HETATM   31  C   UNL     1      43.770 -20.119   3.003  1.00  0.00     0.026 A 
HETATM   32  C   UNL     1      44.078 -19.786   4.325  1.00  0.00     0.036 A 
HETATM   33 CL   UNL     1      44.670 -21.008   5.385  1.00  0.00    -0.084 Cl
ENDBRANCH   2  23
TORSDOF 7
ENDMDL
MODEL 7
REMARK VINA RESULT:      -8.5      5.423      8.702
REMARK  7 active torsions:
REMARK  status: ('A' for Active; 'I' for Inactive)
REMARK    1  A    between atoms: O_2  and  C_3 
REMARK    2  A    between atoms: C_5  and  C_6 
REMARK    3  A    between atoms: C_6  and  O_7 
REMARK    4  A    between atoms: C_6  and  C_8 
REMARK    5  A    between atoms: C_8  and  N_9 
REMARK       I    between atoms: N_9  and  C_10 
REMARK    6  A    between atoms: C_10  and  C_11 
REMARK    7  A    between atoms: C_12  and  C_13 
ROOT
HETATM    1  C   UNL     1      44.011 -10.874   7.602  1.00  0.00     0.089 C 
HETATM    2  C   UNL     1      43.983  -9.402   8.083  1.00  0.00     0.068 C 
HETATM    3  C   UNL     1      45.309  -9.011   8.769  1.00  0.00     0.013 C 
HETATM    4  C   UNL     1      46.530  -9.324   7.916  1.00  0.00     0.001 C 
HETATM    5  C   UNL     1      46.554 -10.791   7.513  1.00  0.00     0.001 C 
HETATM    6  C   UNL     1      45.278 -11.167   6.775  1.00  0.00     0.015 C 
ENDROOT
BRANCH   1   7
HETATM    7  C   UNL     1      42.783 -11.209   6.751  1.00  0.00     0.222 C 
HETATM    8  N   UNL     1      42.473 -12.549   6.692  1.00  0.00    -0.358 N 
HETATM    9  H   UNL     1      42.909 -13.161   7.386  1.00  0.00     0.162 HD
HETATM   10  O   UNL     1      42.119 -10.359   6.164  1.00  0.00    -0.273 OA
BRANCH   8  11
HETATM   11  C   UNL     1      41.269 -13.020   6.019  1.00  0.00     0.159 C 
BRANCH  11  12
HETATM   12  C   UNL     1      40.980 -14.501   6.326  1.00  0.00     0.169 C 
BRANCH  12  13
HETATM   13  C   UNL     1      41.599 -15.413   5.290  1.00  0.00    -0.025 A 
HETATM   14  C   UNL     1      42.798 -16.104   5.542  1.00  0.00     0.046 A 
HETATM   15  C   UNL     1      43.340 -16.968   4.587  1.00  0.00     0.068 A 
HETATM   16  C   UNL     1      42.677 -17.144   3.371  1.00  0.00     0.037 A 
HETATM   17  C   UNL     1      41.486 -16.469   3.107  1.00  0.00     0.003 A 
HETATM   18  C   UNL     1      40.947 -15.611   4.063  1.00  0.00     0.010 A 
BRANCH  15  19
HETATM   19  O   UNL     1      44.492 -17.694   4.719  1.00  0.00    -0.356 OA
HETATM   20  C   UNL     1      44.399 -19.093   4.485  1.00  0.00     0.210 C 
ENDBRANCH  15  19
ENDBRANCH  12  13
BRANCH  12  21
HETATM   21  O   UNL     1      39.560 -14.702   6.359  1.00  0.00    -0.389 OA
HETATM   22  H   UNL     1      39.233 -14.066   7.021  1.00  0.00     0.210 HD
ENDBRANCH  12  21
ENDBRANCH  11  12
ENDBRANCH   8  11
ENDBRANCH   1   7
BRANCH   2  23
HETATM   23  C   UNL     1      42.856  -9.127   9.044  1.00  0.00     0.110 A 
HETATM   24  N   UNL     1      41.988  -8.134   8.988  1.00  0.00    -0.233 NA
HETATM   25  C   UNL     1      41.134  -8.323  10.048  1.00  0.00     0.087 A 
HETATM   26  C   UNL     1      41.497  -9.447  10.780  1.00  0.00     0.062 A 
HETATM   27  C   UNL     1      40.025  -7.566  10.446  1.00  0.00     0.057 A 
HETATM   28  N   UNL     1      42.603  -9.932  10.130  1.00  0.00    -0.342 N 
HETATM   29  C   UNL     1      40.804  -9.884  11.910  1.00  0.00     0.034 A 
HETATM   30  H   UNL     1      43.129 -10.755  10.391  1.00  0.00     0.167 HD
HETATM   31  C   UNL     1      39.694  -9.122  12.295  1.00  0.00     0.026 A 
HETATM   32  C   UNL     1      39.316  -7.985  11.576  1.00  0.00     0.036 A 
HETATM   33 CL   UNL     1      37.944  -7.080  12.092  1.00  0.00    -0.084 Cl
ENDBRANCH   2  23
TORSDOF 7
ENDMDL
MODEL 8
REMARK VINA RESULT:      -8.4      6.184     10.740
REMARK  7 active torsions:
REMARK  status: ('A' for Active; 'I' for Inactive)
REMARK    1  A    between atoms: O_2  and  C_3 
REMARK    2  A    between atoms: C_5  and  C_6 
REMARK    3  A    between atoms: C_6  and  O_7 
REMARK    4  A    between atoms: C_6  and  C_8 
REMARK    5  A    between atoms: C_8  and  N_9 
REMARK       I    between atoms: N_9  and  C_10 
REMARK    6  A    between atoms: C_10  and  C_11 
REMARK    7  A    between atoms: C_12  and  C_13 
ROOT
HETATM    1  C   UNL     1      43.798  -9.725   7.953  1.00  0.00     0.089 C 
HETATM    2  C   UNL     1      44.281 -11.185   7.772  1.00  0.00     0.068 C 
HETATM    3  C   UNL     1      45.691 -11.236   7.147  1.00  0.00     0.013 C 
HETATM    4  C   UNL     1      46.700 -10.376   7.895  1.00  0.00     0.001 C 
HETATM    5  C   UNL     1      46.218  -8.936   8.000  1.00  0.00     0.001 C 
HETATM    6  C   UNL     1      44.857  -8.872   8.677  1.00  0.00     0.015 C 
ENDROOT
BRANCH   1   7
HETATM    7  C   UNL     1      42.491  -9.662   8.748  1.00  0.00     0.222 C 
HETATM    8  N   UNL     1      42.625  -9.911  10.095  1.00  0.00    -0.358 N 
HETATM    9  H   UNL     1      43.569  -9.874  10.487  1.00  0.00     0.162 HD
HETATM   10  O   UNL     1      41.404  -9.407   8.237  1.00  0.00    -0.273 OA
BRANCH   8  11
HETATM   11  C   UNL     1      41.497  -9.777  11.008  1.00  0.00     0.159 C 
BRANCH  11  12
HETATM   12  C   UNL     1      41.858 -10.219  12.439  1.00  0.00     0.169 C 
BRANCH  12  13
HETATM   13  C   UNL     1      42.055  -9.030  13.353  1.00  0.00    -0.025 A 
HETATM   14  C   UNL     1      41.169  -8.766  14.415  1.00  0.00     0.046 A 
HETATM   15  C   UNL     1      41.382  -7.683  15.271  1.00  0.00     0.068 A 
HETATM   16  C   UNL     1      42.490  -6.858  15.066  1.00  0.00     0.037 A 
HETATM   17  C   UNL     1      43.378  -7.108  14.021  1.00  0.00     0.003 A 
HETATM   18  C   UNL     1      43.164  -8.191  13.171  1.00  0.00     0.010 A 
BRANCH  15  19
HETATM   19  O   UNL     1      40.596  -7.330  16.333  1.00  0.00    -0.356 OA
HETATM   20  C   UNL     1      41.004  -7.796  17.614  1.00  0.00     0.210 C 
ENDBRANCH  15  19
ENDBRANCH  12  13
BRANCH  12  21
HETATM   21  O   UNL     1      43.061 -10.999  12.395  1.00  0.00    -0.389 OA
HETATM   22  H   UNL     1      43.203 -11.290  13.314  1.00  0.00     0.210 HD
ENDBRANCH  12  21
ENDBRANCH  11  12
ENDBRANCH   8  11
ENDBRANCH   1   7
BRANCH   2  23
HETATM   23  C   UNL     1      43.353 -12.001   6.909  1.00  0.00     0.110 A 
HETATM   24  N   UNL     1      42.756 -11.615   5.797  1.00  0.00    -0.233 NA
HETATM   25  C   UNL     1      42.050 -12.706   5.352  1.00  0.00     0.087 A 
HETATM   26  C   UNL     1      42.204 -13.781   6.220  1.00  0.00     0.062 A 
HETATM   27  C   UNL     1      41.250 -12.847   4.211  1.00  0.00     0.057 A 
HETATM   28  N   UNL     1      43.026 -13.303   7.209  1.00  0.00    -0.342 N 
HETATM   29  C   UNL     1      41.604 -15.025   6.016  1.00  0.00     0.034 A 
HETATM   30  H   UNL     1      43.353 -13.825   8.010  1.00  0.00     0.167 HD
HETATM   31  C   UNL     1      40.812 -15.155   4.870  1.00  0.00     0.026 A 
HETATM   32  C   UNL     1      40.639 -14.085   3.988  1.00  0.00     0.036 A 
HETATM   33 CL   UNL     1      39.651 -14.295   2.592  1.00  0.00    -0.084 Cl
ENDBRANCH   2  23
TORSDOF 7
ENDMDL
MODEL 9
REMARK VINA RESULT:      -8.2      3.197      7.040
REMARK  7 active torsions:
REMARK  status: ('A' for Active; 'I' for Inactive)
REMARK    1  A    between atoms: O_2  and  C_3 
REMARK    2  A    between atoms: C_5  and  C_6 
REMARK    3  A    between atoms: C_6  and  O_7 
REMARK    4  A    between atoms: C_6  and  C_8 
REMARK    5  A    between atoms: C_8  and  N_9 
REMARK       I    between atoms: N_9  and  C_10 
REMARK    6  A    between atoms: C_10  and  C_11 
REMARK    7  A    between atoms: C_12  and  C_13 
ROOT
HETATM    1  C   UNL     1      43.650 -17.055   4.259  1.00  0.00     0.089 C 
HETATM    2  C   UNL     1      42.538 -17.397   3.237  1.00  0.00     0.068 C 
HETATM    3  C   UNL     1      43.028 -18.429   2.199  1.00  0.00     0.013 C 
HETATM    4  C   UNL     1      43.633 -19.669   2.841  1.00  0.00     0.001 C 
HETATM    5  C   UNL     1      44.761 -19.298   3.791  1.00  0.00     0.001 C 
HETATM    6  C   UNL     1      44.268 -18.332   4.859  1.00  0.00     0.015 C 
ENDROOT
BRANCH   1   7
HETATM    7  C   UNL     1      43.114 -16.187   5.401  1.00  0.00     0.222 C 
HETATM    8  N   UNL     1      41.794 -15.818   5.272  1.00  0.00    -0.358 N 
HETATM    9  H   UNL     1      41.230 -16.330   4.590  1.00  0.00     0.162 HD
HETATM   10  O   UNL     1      43.797 -15.843   6.362  1.00  0.00    -0.273 OA
BRANCH   8  11
HETATM   11  C   UNL     1      41.104 -15.090   6.328  1.00  0.00     0.159 C 
BRANCH  11  12
HETATM   12  C   UNL     1      40.697 -13.673   5.879  1.00  0.00     0.169 C 
BRANCH  12  13
HETATM   13  C   UNL     1      41.892 -12.748   5.815  1.00  0.00    -0.025 A 
HETATM   14  C   UNL     1      42.838 -12.696   6.856  1.00  0.00     0.046 A 
HETATM   15  C   UNL     1      43.954 -11.860   6.767  1.00  0.00     0.068 A 
HETATM   16  C   UNL     1      44.127 -11.071   5.628  1.00  0.00     0.037 A 
HETATM   17  C   UNL     1      43.202 -11.113   4.587  1.00  0.00     0.003 A 
HETATM   18  C   UNL     1      42.092 -11.950   4.677  1.00  0.00     0.010 A 
BRANCH  15  19
HETATM   19  O   UNL     1      44.937 -11.727   7.709  1.00  0.00    -0.356 OA
HETATM   20  C   UNL     1      46.035 -10.888   7.375  1.00  0.00     0.210 C 
ENDBRANCH  15  19
ENDBRANCH  12  13
BRANCH  12  21
HETATM   21  O   UNL     1      39.732 -13.151   6.802  1.00  0.00    -0.389 OA
HETATM   22  H   UNL     1      39.121 -13.891   6.971  1.00  0.00     0.210 HD
ENDBRANCH  12  21
ENDBRANCH  11  12
ENDBRANCH   8  11
ENDBRANCH   1   7
BRANCH   2  23
HETATM   23  C   UNL     1      42.037 -16.184   2.496  1.00  0.00     0.110 A 
HETATM   24  N   UNL     1      42.575 -14.978   2.489  1.00  0.00    -0.233 NA
HETATM   25  C   UNL     1      41.794 -14.225   1.646  1.00  0.00     0.087 A 
HETATM   26  C   UNL     1      40.745 -14.981   1.138  1.00  0.00     0.062 A 
HETATM   27  C   UNL     1      41.924 -12.881   1.272  1.00  0.00     0.057 A 
HETATM   28  N   UNL     1      40.913 -16.219   1.704  1.00  0.00    -0.342 N 
HETATM   29  C   UNL     1      39.794 -14.476   0.249  1.00  0.00     0.034 A 
HETATM   30  H   UNL     1      40.325 -17.026   1.548  1.00  0.00     0.167 HD
HETATM   31  C   UNL     1      39.938 -13.133  -0.122  1.00  0.00     0.026 A 
HETATM   32  C   UNL     1      40.982 -12.354   0.384  1.00  0.00     0.036 A 
HETATM   33 CL   UNL     1      41.114 -10.706  -0.101  1.00  0.00    -0.084 Cl
ENDBRANCH   2  23
TORSDOF 7
ENDMDL
MODEL 10
REMARK VINA RESULT:      -8.0     14.940     17.714
REMARK  7 active torsions:
REMARK  status: ('A' for Active; 'I' for Inactive)
REMARK    1  A    between atoms: O_2  and  C_3 
REMARK    2  A    between atoms: C_5  and  C_6 
REMARK    3  A    between atoms: C_6  and  O_7 
REMARK    4  A    between atoms: C_6  and  C_8 
REMARK    5  A    between atoms: C_8  and  N_9 
REMARK       I    between atoms: N_9  and  C_10 
REMARK    6  A    between atoms: C_10  and  C_11 
REMARK    7  A    between atoms: C_12  and  C_13 
ROOT
HETATM    1  C   UNL     1      45.494 -28.487  -1.304  1.00  0.00     0.089 C 
HETATM    2  C   UNL     1      44.745 -29.811  -1.595  1.00  0.00     0.068 C 
HETATM    3  C   UNL     1      43.811 -29.670  -2.816  1.00  0.00     0.013 C 
HETATM    4  C   UNL     1      44.524 -29.120  -4.044  1.00  0.00     0.001 C 
HETATM    5  C   UNL     1      45.196 -27.790  -3.735  1.00  0.00     0.001 C 
HETATM    6  C   UNL     1      46.170 -27.937  -2.575  1.00  0.00     0.015 C 
ENDROOT
BRANCH   1   7
HETATM    7  C   UNL     1      46.562 -28.673  -0.223  1.00  0.00     0.222 C 
HETATM    8  N   UNL     1      46.240 -28.136   1.002  1.00  0.00    -0.358 N 
HETATM    9  H   UNL     1      45.261 -27.886   1.162  1.00  0.00     0.162 HD
HETATM   10  O   UNL     1      47.625 -29.256  -0.421  1.00  0.00    -0.273 OA
BRANCH   8  11
HETATM   11  C   UNL     1      47.098 -28.327   2.164  1.00  0.00     0.159 C 
BRANCH  11  12
HETATM   12  C   UNL     1      46.677 -29.554   2.995  1.00  0.00     0.169 C 
BRANCH  12  13
HETATM   13  C   UNL     1      47.854 -30.158   3.729  1.00  0.00    -0.025 A 
HETATM   14  C   UNL     1      47.712 -31.312   4.522  1.00  0.00     0.046 A 
HETATM   15  C   UNL     1      48.815 -31.876   5.168  1.00  0.00     0.068 A 
HETATM   16  C   UNL     1      50.070 -31.284   5.018  1.00  0.00     0.037 A 
HETATM   17  C   UNL     1      50.228 -30.142   4.235  1.00  0.00     0.003 A 
HETATM   18  C   UNL     1      49.126 -29.583   3.590  1.00  0.00     0.010 A 
BRANCH  15  19
HETATM   19  O   UNL     1      48.800 -32.993   5.957  1.00  0.00    -0.356 OA
HETATM   20  C   UNL     1      48.165 -32.874   7.224  1.00  0.00     0.210 C 
ENDBRANCH  15  19
ENDBRANCH  12  13
BRANCH  12  21
HETATM   21  O   UNL     1      46.099 -30.534   2.121  1.00  0.00    -0.389 OA
HETATM   22  H   UNL     1      45.267 -30.133   1.812  1.00  0.00     0.210 HD
ENDBRANCH  12  21
ENDBRANCH  11  12
ENDBRANCH   8  11
ENDBRANCH   1   7
BRANCH   2  23
HETATM   23  C   UNL     1      43.922 -30.282  -0.424  1.00  0.00     0.110 A 
HETATM   24  N   UNL     1      43.423 -29.540   0.547  1.00  0.00    -0.233 NA
HETATM   25  C   UNL     1      42.720 -30.401   1.354  1.00  0.00     0.087 A 
HETATM   26  C   UNL     1      42.804 -31.704   0.876  1.00  0.00     0.062 A 
HETATM   27  C   UNL     1      41.987 -30.137   2.518  1.00  0.00     0.057 A 
HETATM   28  N   UNL     1      43.585 -31.604  -0.247  1.00  0.00    -0.342 N 
HETATM   29  C   UNL     1      42.181 -32.790   1.494  1.00  0.00     0.034 A 
HETATM   30  H   UNL     1      43.849 -32.367  -0.854  1.00  0.00     0.167 HD
HETATM   31  C   UNL     1      41.447 -32.512   2.652  1.00  0.00     0.026 A 
HETATM   32  C   UNL     1      41.356 -31.210   3.153  1.00  0.00     0.036 A 
HETATM   33 CL   UNL     1      40.442 -30.920   4.585  1.00  0.00    -0.084 Cl
ENDBRANCH   2  23
TORSDOF 7
ENDMDL
