MODEL 1
REMARK VINA RESULT:      -8.3      0.000      0.000
REMARK  9 active torsions:
REMARK  status: ('A' for Active; 'I' for Inactive)
REMARK    1  A    between atoms: C_2  and  N_3 
REMARK    2  A    between atoms: C_4  and  S_5 
REMARK    3  A    between atoms: S_5  and  C_6 
REMARK    4  A    between atoms: C_6  and  C_7 
REMARK       I    between atoms: C_7  and  N_8 
REMARK    5  A    between atoms: N_8  and  C_9 
REMARK    6  A    between atoms: C_9  and  C_10 
REMARK    7  A    between atoms: C_10  and  O_11 
REMARK    8  A    between atoms: O_11  and  C_12 
REMARK    9  A    between atoms: C_22  and  C_23 
ROOT
HETATM    1  C   UNL     1      44.329 -12.128   7.060  1.00  0.00     0.185 C 
ENDROOT
BRANCH   1   2
HETATM    2  S   UNL     1      43.653 -10.463   7.324  1.00  0.00    -0.081 SA
BRANCH   2   3
HETATM    3  C   UNL     1      43.723 -10.404   9.052  1.00  0.00     0.192 A 
HETATM    4  N   UNL     1      42.922  -9.618   9.839  1.00  0.00    -0.308 N 
HETATM    5  C   UNL     1      43.358  -9.830  11.135  1.00  0.00     0.164 A 
HETATM    6  N   UNL     1      44.347 -10.708  11.100  1.00  0.00    -0.128 NA
HETATM    7  N   UNL     1      44.563 -11.078   9.799  1.00  0.00    -0.122 NA
BRANCH   4   8
HETATM    8  C   UNL     1      41.929  -8.663   9.393  1.00  0.00     0.128 C 
HETATM    9  C   UNL     1      40.603  -9.312   9.028  1.00  0.00     0.027 C 
ENDBRANCH   4   8
BRANCH   5  10
HETATM   10  C   UNL     1      42.893  -9.154  12.344  1.00  0.00     0.012 A 
HETATM   11  C   UNL     1      43.550  -7.991  12.769  1.00  0.00     0.015 A 
HETATM   12  C   UNL     1      43.140  -7.321  13.924  1.00  0.00     0.001 A 
HETATM   13  C   UNL     1      42.073  -7.813  14.672  1.00  0.00     0.000 A 
HETATM   14  C   UNL     1      41.425  -8.980  14.272  1.00  0.00     0.001 A 
HETATM   15  C   UNL     1      41.837  -9.652  13.117  1.00  0.00     0.015 A 
ENDBRANCH   5  10
ENDBRANCH   2   3
ENDBRANCH   1   2
BRANCH   1  16
HETATM   16  C   UNL     1      43.210 -13.098   6.731  1.00  0.00     0.227 C 
HETATM   17  N   UNL     1      43.202 -14.249   7.495  1.00  0.00    -0.358 N 
HETATM   18  H   UNL     1      43.941 -14.400   8.170  1.00  0.00     0.162 HD
HETATM   19  O   UNL     1      42.381 -12.880   5.851  1.00  0.00    -0.273 OA
BRANCH  17  20
HETATM   20  C   UNL     1      42.322 -15.362   7.189  1.00  0.00     0.149 C 
BRANCH  20  21
HETATM   21  C   UNL     1      43.010 -16.727   7.149  1.00  0.00     0.195 C 
BRANCH  21  22
HETATM   22  O   UNL     1      44.101 -16.632   6.229  1.00  0.00    -0.350 OA
BRANCH  22  23
HETATM   23  C   UNL     1      43.880 -17.056   4.947  1.00  0.00     0.069 A 
HETATM   24  C   UNL     1      43.403 -16.274   3.893  1.00  0.00     0.043 A 
HETATM   25  C   UNL     1      43.226 -16.832   2.616  1.00  0.00    -0.059 A 
HETATM   26  C   UNL     1      42.705 -16.003   1.479  1.00  0.00     0.048 C 
HETATM   27  C   UNL     1      43.519 -18.186   2.411  1.00  0.00     0.007 A 
HETATM   28  C   UNL     1      43.990 -18.970   3.462  1.00  0.00     0.003 A 
HETATM   29  C   UNL     1      44.168 -18.405   4.724  1.00  0.00     0.037 A 
ENDBRANCH  22  23
ENDBRANCH  21  22
ENDBRANCH  20  21
ENDBRANCH  17  20
ENDBRANCH   1  16
TORSDOF 9
ENDMDL
MODEL 2
REMARK VINA RESULT:      -8.3      0.953      2.054
REMARK  9 active torsions:
REMARK  status: ('A' for Active; 'I' for Inactive)
REMARK    1  A    between atoms: C_2  and  N_3 
REMARK    2  A    between atoms: C_4  and  S_5 
REMARK    3  A    between atoms: S_5  and  C_6 
REMARK    4  A    between atoms: C_6  and  C_7 
REMARK       I    between atoms: C_7  and  N_8 
REMARK    5  A    between atoms: N_8  and  C_9 
REMARK    6  A    between atoms: C_9  and  C_10 
REMARK    7  A    between atoms: C_10  and  O_11 
REMARK    8  A    between atoms: O_11  and  C_12 
REMARK    9  A    between atoms: C_22  and  C_23 
ROOT
HETATM    1  C   UNL     1      44.083 -11.853   7.169  1.00  0.00     0.185 C 
ENDROOT
BRANCH   1   2
HETATM    2  S   UNL     1      43.595 -10.140   7.523  1.00  0.00    -0.081 SA
BRANCH   2   3
HETATM    3  C   UNL     1      43.566 -10.209   9.251  1.00  0.00     0.192 A 
HETATM    4  N   UNL     1      42.925  -9.306  10.058  1.00  0.00    -0.308 N 
HETATM    5  C   UNL     1      43.214  -9.699  11.353  1.00  0.00     0.164 A 
HETATM    6  N   UNL     1      43.967 -10.784  11.297  1.00  0.00    -0.128 NA
HETATM    7  N   UNL     1      44.172 -11.112   9.983  1.00  0.00    -0.122 NA
BRANCH   4   8
HETATM    8  C   UNL     1      42.217  -8.113   9.641  1.00  0.00     0.128 C 
HETATM    9  C   UNL     1      43.127  -6.905   9.490  1.00  0.00     0.027 C 
ENDBRANCH   4   8
BRANCH   5  10
HETATM   10  C   UNL     1      42.846  -9.008  12.587  1.00  0.00     0.012 A 
HETATM   11  C   UNL     1      41.762  -9.486  13.337  1.00  0.00     0.015 A 
HETATM   12  C   UNL     1      41.375  -8.849  14.518  1.00  0.00     0.001 A 
HETATM   13  C   UNL     1      42.063  -7.719  14.956  1.00  0.00     0.000 A 
HETATM   14  C   UNL     1      43.128  -7.221  14.208  1.00  0.00     0.001 A 
HETATM   15  C   UNL     1      43.514  -7.859  13.025  1.00  0.00     0.015 A 
ENDBRANCH   5  10
ENDBRANCH   2   3
ENDBRANCH   1   2
BRANCH   1  16
HETATM   16  C   UNL     1      42.955 -12.580   6.460  1.00  0.00     0.227 C 
HETATM   17  N   UNL     1      42.756 -13.881   6.879  1.00  0.00    -0.358 N 
HETATM   18  H   UNL     1      43.379 -14.279   7.570  1.00  0.00     0.162 HD
HETATM   19  O   UNL     1      42.278 -12.055   5.579  1.00  0.00    -0.273 OA
BRANCH  17  20
HETATM   20  C   UNL     1      41.851 -14.776   6.182  1.00  0.00     0.149 C 
BRANCH  20  21
HETATM   21  C   UNL     1      42.289 -15.152   4.766  1.00  0.00     0.195 C 
BRANCH  21  22
HETATM   22  O   UNL     1      43.544 -15.831   4.870  1.00  0.00    -0.350 OA
BRANCH  22  23
HETATM   23  C   UNL     1      43.616 -17.099   4.364  1.00  0.00     0.069 A 
HETATM   24  C   UNL     1      43.989 -18.246   5.069  1.00  0.00     0.043 A 
HETATM   25  C   UNL     1      44.016 -19.497   4.430  1.00  0.00    -0.059 A 
HETATM   26  C   UNL     1      44.423 -20.733   5.177  1.00  0.00     0.048 C 
HETATM   27  C   UNL     1      43.681 -19.583   3.074  1.00  0.00     0.007 A 
HETATM   28  C   UNL     1      43.315 -18.440   2.367  1.00  0.00     0.003 A 
HETATM   29  C   UNL     1      43.285 -17.205   3.011  1.00  0.00     0.037 A 
ENDBRANCH  22  23
ENDBRANCH  21  22
ENDBRANCH  20  21
ENDBRANCH  17  20
ENDBRANCH   1  16
TORSDOF 9
ENDMDL
MODEL 3
REMARK VINA RESULT:      -8.3      2.558     10.092
REMARK  9 active torsions:
REMARK  status: ('A' for Active; 'I' for Inactive)
REMARK    1  A    between atoms: C_2  and  N_3 
REMARK    2  A    between atoms: C_4  and  S_5 
REMARK    3  A    between atoms: S_5  and  C_6 
REMARK    4  A    between atoms: C_6  and  C_7 
REMARK       I    between atoms: C_7  and  N_8 
REMARK    5  A    between atoms: N_8  and  C_9 
REMARK    6  A    between atoms: C_9  and  C_10 
REMARK    7  A    between atoms: C_10  and  O_11 
REMARK    8  A    between atoms: O_11  and  C_12 
REMARK    9  A    between atoms: C_22  and  C_23 
ROOT
HETATM    1  C   UNL     1      42.044 -12.556   6.023  1.00  0.00     0.185 C 
ENDROOT
BRANCH   1   2
HETATM    2  S   UNL     1      41.037 -12.824   4.536  1.00  0.00    -0.081 SA
BRANCH   2   3
HETATM    3  C   UNL     1      41.984 -14.057   3.776  1.00  0.00     0.192 A 
HETATM    4  N   UNL     1      41.853 -15.400   4.016  1.00  0.00    -0.308 N 
HETATM    5  C   UNL     1      42.838 -16.007   3.257  1.00  0.00     0.164 A 
HETATM    6  N   UNL     1      43.492 -15.065   2.599  1.00  0.00    -0.128 NA
HETATM    7  N   UNL     1      42.946 -13.848   2.911  1.00  0.00    -0.122 NA
BRANCH   4   8
HETATM    8  C   UNL     1      40.966 -16.034   4.970  1.00  0.00     0.128 C 
HETATM    9  C   UNL     1      41.587 -16.183   6.350  1.00  0.00     0.027 C 
ENDBRANCH   4   8
BRANCH   5  10
HETATM   10  C   UNL     1      43.184 -17.427   3.233  1.00  0.00     0.012 A 
HETATM   11  C   UNL     1      43.967 -17.954   4.271  1.00  0.00     0.015 A 
HETATM   12  C   UNL     1      44.325 -19.304   4.279  1.00  0.00     0.001 A 
HETATM   13  C   UNL     1      43.913 -20.139   3.243  1.00  0.00     0.000 A 
HETATM   14  C   UNL     1      43.153 -19.622   2.195  1.00  0.00     0.001 A 
HETATM   15  C   UNL     1      42.796 -18.271   2.187  1.00  0.00     0.015 A 
ENDBRANCH   5  10
ENDBRANCH   2   3
ENDBRANCH   1   2
BRANCH   1  16
HETATM   16  C   UNL     1      43.300 -11.783   5.668  1.00  0.00     0.227 C 
HETATM   17  N   UNL     1      44.432 -12.176   6.355  1.00  0.00    -0.358 N 
HETATM   18  H   UNL     1      44.356 -12.894   7.064  1.00  0.00     0.162 HD
HETATM   19  O   UNL     1      43.308 -10.873   4.842  1.00  0.00    -0.273 OA
BRANCH  17  20
HETATM   20  C   UNL     1      45.671 -11.424   6.279  1.00  0.00     0.149 C 
BRANCH  20  21
HETATM   21  C   UNL     1      46.074 -10.724   7.578  1.00  0.00     0.195 C 
BRANCH  21  22
HETATM   22  O   UNL     1      45.079 -11.032   8.558  1.00  0.00    -0.350 OA
BRANCH  22  23
HETATM   23  C   UNL     1      44.512  -9.984   9.228  1.00  0.00     0.069 A 
HETATM   24  C   UNL     1      44.088  -9.992  10.559  1.00  0.00     0.043 A 
HETATM   25  C   UNL     1      43.524  -8.840  11.133  1.00  0.00    -0.059 A 
HETATM   26  C   UNL     1      43.058  -8.840  12.559  1.00  0.00     0.048 C 
HETATM   27  C   UNL     1      43.377  -7.686  10.355  1.00  0.00     0.007 A 
HETATM   28  C   UNL     1      43.793  -7.677   9.025  1.00  0.00     0.003 A 
HETATM   29  C   UNL     1      44.357  -8.823   8.467  1.00  0.00     0.037 A 
ENDBRANCH  22  23
ENDBRANCH  21  22
ENDBRANCH  20  21
ENDBRANCH  17  20
ENDBRANCH   1  16
TORSDOF 9
ENDMDL
MODEL 4
REMARK VINA RESULT:      -8.2      1.386      1.956
REMARK  9 active torsions:
REMARK  status: ('A' for Active; 'I' for Inactive)
REMARK    1  A    between atoms: C_2  and  N_3 
REMARK    2  A    between atoms: C_4  and  S_5 
REMARK    3  A    between atoms: S_5  and  C_6 
REMARK    4  A    between atoms: C_6  and  C_7 
REMARK       I    between atoms: C_7  and  N_8 
REMARK    5  A    between atoms: N_8  and  C_9 
REMARK    6  A    between atoms: C_9  and  C_10 
REMARK    7  A    between atoms: C_10  and  O_11 
REMARK    8  A    between atoms: O_11  and  C_12 
REMARK    9  A    between atoms: C_22  and  C_23 
ROOT
HETATM    1  C   UNL     1      43.770 -11.971   6.754  1.00  0.00     0.185 C 
ENDROOT
BRANCH   1   2
HETATM    2  S   UNL     1      43.615 -10.205   7.146  1.00  0.00    -0.081 SA
BRANCH   2   3
HETATM    3  C   UNL     1      43.606 -10.301   8.873  1.00  0.00     0.192 A 
HETATM    4  N   UNL     1      42.911  -9.455   9.698  1.00  0.00    -0.308 N 
HETATM    5  C   UNL     1      43.238  -9.846  10.984  1.00  0.00     0.164 A 
HETATM    6  N   UNL     1      44.064 -10.876  10.907  1.00  0.00    -0.128 NA
HETATM    7  N   UNL     1      44.280 -11.169   9.586  1.00  0.00    -0.122 NA
BRANCH   4   8
HETATM    8  C   UNL     1      42.118  -8.308   9.305  1.00  0.00     0.128 C 
HETATM    9  C   UNL     1      40.645  -8.459   9.650  1.00  0.00     0.027 C 
ENDBRANCH   4   8
BRANCH   5  10
HETATM   10  C   UNL     1      42.834  -9.201  12.232  1.00  0.00     0.012 A 
HETATM   11  C   UNL     1      43.513  -8.048  12.654  1.00  0.00     0.015 A 
HETATM   12  C   UNL     1      43.161  -7.408  13.844  1.00  0.00     0.001 A 
HETATM   13  C   UNL     1      42.133  -7.920  14.631  1.00  0.00     0.000 A 
HETATM   14  C   UNL     1      41.465  -9.077  14.234  1.00  0.00     0.001 A 
HETATM   15  C   UNL     1      41.818  -9.718  13.043  1.00  0.00     0.015 A 
ENDBRANCH   5  10
ENDBRANCH   2   3
ENDBRANCH   1   2
BRANCH   1  16
HETATM   16  C   UNL     1      42.602 -12.418   5.895  1.00  0.00     0.227 C 
HETATM   17  N   UNL     1      42.952 -13.190   4.805  1.00  0.00    -0.358 N 
HETATM   18  H   UNL     1      43.930 -13.367   4.617  1.00  0.00     0.162 HD
HETATM   19  O   UNL     1      41.439 -12.111   6.145  1.00  0.00    -0.273 OA
BRANCH  17  20
HETATM   20  C   UNL     1      41.988 -13.544   3.779  1.00  0.00     0.149 C 
BRANCH  20  21
HETATM   21  C   UNL     1      41.593 -15.021   3.755  1.00  0.00     0.195 C 
BRANCH  21  22
HETATM   22  O   UNL     1      42.400 -15.665   2.765  1.00  0.00    -0.350 OA
BRANCH  22  23
HETATM   23  C   UNL     1      42.974 -16.859   3.102  1.00  0.00     0.069 A 
HETATM   24  C   UNL     1      43.023 -18.003   2.302  1.00  0.00     0.043 A 
HETATM   25  C   UNL     1      43.651 -19.170   2.766  1.00  0.00    -0.059 A 
HETATM   26  C   UNL     1      43.703 -20.406   1.917  1.00  0.00     0.048 C 
HETATM   27  C   UNL     1      44.218 -19.183   4.046  1.00  0.00     0.007 A 
HETATM   28  C   UNL     1      44.164 -18.046   4.849  1.00  0.00     0.003 A 
HETATM   29  C   UNL     1      43.543 -16.891   4.377  1.00  0.00     0.037 A 
ENDBRANCH  22  23
ENDBRANCH  21  22
ENDBRANCH  20  21
ENDBRANCH  17  20
ENDBRANCH   1  16
TORSDOF 9
ENDMDL
MODEL 5
REMARK VINA RESULT:      -8.1      1.350      1.764
REMARK  9 active torsions:
REMARK  status: ('A' for Active; 'I' for Inactive)
REMARK    1  A    between atoms: C_2  and  N_3 
REMARK    2  A    between atoms: C_4  and  S_5 
REMARK    3  A    between atoms: S_5  and  C_6 
REMARK    4  A    between atoms: C_6  and  C_7 
REMARK       I    between atoms: C_7  and  N_8 
REMARK    5  A    between atoms: N_8  and  C_9 
REMARK    6  A    between atoms: C_9  and  C_10 
REMARK    7  A    between atoms: C_10  and  O_11 
REMARK    8  A    between atoms: O_11  and  C_12 
REMARK    9  A    between atoms: C_22  and  C_23 
ROOT
HETATM    1  C   UNL     1      43.284 -10.769   7.183  1.00  0.00     0.185 C 
ENDROOT
BRANCH   1   2
HETATM    2  S   UNL     1      44.542  -9.746   7.998  1.00  0.00    -0.081 SA
BRANCH   2   3
HETATM    3  C   UNL     1      44.042  -9.945   9.643  1.00  0.00     0.192 A 
HETATM    4  N   UNL     1      43.447  -8.971  10.401  1.00  0.00    -0.308 N 
HETATM    5  C   UNL     1      43.281  -9.532  11.655  1.00  0.00     0.164 A 
HETATM    6  N   UNL     1      43.739 -10.772  11.618  1.00  0.00    -0.128 NA
HETATM    7  N   UNL     1      44.199 -11.034  10.355  1.00  0.00    -0.122 NA
BRANCH   4   8
HETATM    8  C   UNL     1      43.181  -7.602  10.010  1.00  0.00     0.128 C 
HETATM    9  C   UNL     1      41.774  -7.402   9.471  1.00  0.00     0.027 C 
ENDBRANCH   4   8
BRANCH   5  10
HETATM   10  C   UNL     1      42.776  -8.871  12.857  1.00  0.00     0.012 A 
HETATM   11  C   UNL     1      41.605  -9.353  13.458  1.00  0.00     0.015 A 
HETATM   12  C   UNL     1      41.087  -8.743  14.603  1.00  0.00     0.001 A 
HETATM   13  C   UNL     1      41.730  -7.637  15.152  1.00  0.00     0.000 A 
HETATM   14  C   UNL     1      42.883  -7.134  14.552  1.00  0.00     0.001 A 
HETATM   15  C   UNL     1      43.400  -7.744  13.405  1.00  0.00     0.015 A 
ENDBRANCH   5  10
ENDBRANCH   2   3
ENDBRANCH   1   2
BRANCH   1  16
HETATM   16  C   UNL     1      43.813 -12.175   6.970  1.00  0.00     0.227 C 
HETATM   17  N   UNL     1      42.855 -13.167   7.031  1.00  0.00    -0.358 N 
HETATM   18  H   UNL     1      41.899 -12.919   7.255  1.00  0.00     0.162 HD
HETATM   19  O   UNL     1      45.002 -12.412   6.767  1.00  0.00    -0.273 OA
BRANCH  17  20
HETATM   20  C   UNL     1      43.212 -14.574   7.038  1.00  0.00     0.149 C 
BRANCH  20  21
HETATM   21  C   UNL     1      42.024 -15.534   7.104  1.00  0.00     0.195 C 
BRANCH  21  22
HETATM   22  O   UNL     1      42.402 -16.732   6.420  1.00  0.00    -0.350 OA
BRANCH  22  23
HETATM   23  C   UNL     1      42.278 -16.744   5.058  1.00  0.00     0.069 A 
HETATM   24  C   UNL     1      41.191 -16.258   4.327  1.00  0.00     0.043 A 
HETATM   25  C   UNL     1      41.190 -16.324   2.924  1.00  0.00    -0.059 A 
HETATM   26  C   UNL     1      40.024 -15.812   2.130  1.00  0.00     0.048 C 
HETATM   27  C   UNL     1      42.283 -16.895   2.262  1.00  0.00     0.007 A 
HETATM   28  C   UNL     1      43.366 -17.386   2.988  1.00  0.00     0.003 A 
HETATM   29  C   UNL     1      43.360 -17.311   4.381  1.00  0.00     0.037 A 
ENDBRANCH  22  23
ENDBRANCH  21  22
ENDBRANCH  20  21
ENDBRANCH  17  20
ENDBRANCH   1  16
TORSDOF 9
ENDMDL
MODEL 6
REMARK VINA RESULT:      -7.9      2.232     10.612
REMARK  9 active torsions:
REMARK  status: ('A' for Active; 'I' for Inactive)
REMARK    1  A    between atoms: C_2  and  N_3 
REMARK    2  A    between atoms: C_4  and  S_5 
REMARK    3  A    between atoms: S_5  and  C_6 
REMARK    4  A    between atoms: C_6  and  C_7 
REMARK       I    between atoms: C_7  and  N_8 
REMARK    5  A    between atoms: N_8  and  C_9 
REMARK    6  A    between atoms: C_9  and  C_10 
REMARK    7  A    between atoms: C_10  and  O_11 
REMARK    8  A    between atoms: O_11  and  C_12 
REMARK    9  A    between atoms: C_22  and  C_23 
ROOT
HETATM    1  C   UNL     1      44.524 -12.520   6.478  1.00  0.00     0.185 C 
ENDROOT
BRANCH   1   2
HETATM    2  S   UNL     1      42.991 -13.492   6.436  1.00  0.00    -0.081 SA
BRANCH   2   3
HETATM    3  C   UNL     1      43.649 -15.036   6.019  1.00  0.00     0.192 A 
HETATM    4  N   UNL     1      43.203 -15.822   4.989  1.00  0.00    -0.308 N 
HETATM    5  C   UNL     1      43.956 -16.981   5.058  1.00  0.00     0.164 A 
HETATM    6  N   UNL     1      44.807 -16.861   6.063  1.00  0.00    -0.128 NA
HETATM    7  N   UNL     1      44.625 -15.639   6.652  1.00  0.00    -0.122 NA
BRANCH   4   8
HETATM    8  C   UNL     1      42.084 -15.555   4.109  1.00  0.00     0.128 C 
HETATM    9  C   UNL     1      40.777 -16.145   4.615  1.00  0.00     0.027 C 
ENDBRANCH   4   8
BRANCH   5  10
HETATM   10  C   UNL     1      43.805 -18.181   4.238  1.00  0.00     0.012 A 
HETATM   11  C   UNL     1      44.082 -19.433   4.807  1.00  0.00     0.015 A 
HETATM   12  C   UNL     1      43.957 -20.602   4.054  1.00  0.00     0.001 A 
HETATM   13  C   UNL     1      43.563 -20.531   2.720  1.00  0.00     0.000 A 
HETATM   14  C   UNL     1      43.306 -19.292   2.137  1.00  0.00     0.001 A 
HETATM   15  C   UNL     1      43.433 -18.122   2.891  1.00  0.00     0.015 A 
ENDBRANCH   5  10
ENDBRANCH   2   3
ENDBRANCH   1   2
BRANCH   1  16
HETATM   16  C   UNL     1      44.373 -11.350   7.432  1.00  0.00     0.227 C 
HETATM   17  N   UNL     1      43.440 -10.409   7.046  1.00  0.00    -0.358 N 
HETATM   18  H   UNL     1      42.963 -10.518   6.160  1.00  0.00     0.162 HD
HETATM   19  O   UNL     1      45.034 -11.246   8.463  1.00  0.00    -0.273 OA
BRANCH  17  20
HETATM   20  C   UNL     1      43.304  -9.141   7.739  1.00  0.00     0.149 C 
BRANCH  20  21
HETATM   21  C   UNL     1      42.341  -9.163   8.927  1.00  0.00     0.195 C 
BRANCH  21  22
HETATM   22  O   UNL     1      43.048  -8.653  10.062  1.00  0.00    -0.350 OA
BRANCH  22  23
HETATM   23  C   UNL     1      42.501  -8.876  11.295  1.00  0.00     0.069 A 
HETATM   24  C   UNL     1      41.371  -9.652  11.565  1.00  0.00     0.043 A 
HETATM   25  C   UNL     1      40.913  -9.808  12.884  1.00  0.00    -0.059 A 
HETATM   26  C   UNL     1      39.696 -10.632  13.184  1.00  0.00     0.048 C 
HETATM   27  C   UNL     1      41.592  -9.167  13.927  1.00  0.00     0.007 A 
HETATM   28  C   UNL     1      42.715  -8.387  13.660  1.00  0.00     0.003 A 
HETATM   29  C   UNL     1      43.165  -8.244  12.348  1.00  0.00     0.037 A 
ENDBRANCH  22  23
ENDBRANCH  21  22
ENDBRANCH  20  21
ENDBRANCH  17  20
ENDBRANCH   1  16
TORSDOF 9
ENDMDL
MODEL 7
REMARK VINA RESULT:      -7.8      6.484      9.689
REMARK  9 active torsions:
REMARK  status: ('A' for Active; 'I' for Inactive)
REMARK    1  A    between atoms: C_2  and  N_3 
REMARK    2  A    between atoms: C_4  and  S_5 
REMARK    3  A    between atoms: S_5  and  C_6 
REMARK    4  A    between atoms: C_6  and  C_7 
REMARK       I    between atoms: C_7  and  N_8 
REMARK    5  A    between atoms: N_8  and  C_9 
REMARK    6  A    between atoms: C_9  and  C_10 
REMARK    7  A    between atoms: C_10  and  O_11 
REMARK    8  A    between atoms: O_11  and  C_12 
REMARK    9  A    between atoms: C_22  and  C_23 
ROOT
HETATM    1  C   UNL     1      43.216 -11.742   3.227  1.00  0.00     0.185 C 
ENDROOT
BRANCH   1   2
HETATM    2  S   UNL     1      42.597 -12.957   4.426  1.00  0.00    -0.081 SA
BRANCH   2   3
HETATM    3  C   UNL     1      42.937 -14.411   3.552  1.00  0.00     0.192 A 
HETATM    4  N   UNL     1      42.868 -15.673   4.081  1.00  0.00    -0.308 N 
HETATM    5  C   UNL     1      43.280 -16.520   3.067  1.00  0.00     0.164 A 
HETATM    6  N   UNL     1      43.554 -15.786   2.002  1.00  0.00    -0.128 NA
HETATM    7  N   UNL     1      43.323 -14.469   2.302  1.00  0.00    -0.122 NA
BRANCH   4   8
HETATM    8  C   UNL     1      42.566 -16.030   5.452  1.00  0.00     0.128 C 
HETATM    9  C   UNL     1      43.751 -15.849   6.387  1.00  0.00     0.027 C 
ENDBRANCH   4   8
BRANCH   5  10
HETATM   10  C   UNL     1      43.477 -17.965   3.150  1.00  0.00     0.012 A 
HETATM   11  C   UNL     1      42.966 -18.782   2.131  1.00  0.00     0.015 A 
HETATM   12  C   UNL     1      43.127 -20.168   2.179  1.00  0.00     0.001 A 
HETATM   13  C   UNL     1      43.792 -20.754   3.253  1.00  0.00     0.000 A 
HETATM   14  C   UNL     1      44.285 -19.956   4.284  1.00  0.00     0.001 A 
HETATM   15  C   UNL     1      44.122 -18.568   4.236  1.00  0.00     0.015 A 
ENDBRANCH   5  10
ENDBRANCH   2   3
ENDBRANCH   1   2
BRANCH   1  16
HETATM   16  C   UNL     1      42.057 -11.119   2.472  1.00  0.00     0.227 C 
HETATM   17  N   UNL     1      40.810 -11.413   2.986  1.00  0.00    -0.358 N 
HETATM   18  H   UNL     1      40.735 -12.042   3.775  1.00  0.00     0.162 HD
HETATM   19  O   UNL     1      42.216 -10.414   1.477  1.00  0.00    -0.273 OA
BRANCH  17  20
HETATM   20  C   UNL     1      39.591 -11.057   2.282  1.00  0.00     0.149 C 
BRANCH  20  21
HETATM   21  C   UNL     1      38.847 -12.238   1.656  1.00  0.00     0.195 C 
BRANCH  21  22
HETATM   22  O   UNL     1      39.829 -13.118   1.101  1.00  0.00    -0.350 OA
BRANCH  22  23
HETATM   23  C   UNL     1      39.943 -13.153  -0.261  1.00  0.00     0.069 A 
HETATM   24  C   UNL     1      40.433 -12.127  -1.071  1.00  0.00     0.043 A 
HETATM   25  C   UNL     1      40.504 -12.292  -2.464  1.00  0.00    -0.059 A 
HETATM   26  C   UNL     1      41.022 -11.193  -3.345  1.00  0.00     0.048 C 
HETATM   27  C   UNL     1      40.065 -13.492  -3.037  1.00  0.00     0.007 A 
HETATM   28  C   UNL     1      39.569 -14.515  -2.232  1.00  0.00     0.003 A 
HETATM   29  C   UNL     1      39.508 -14.343  -0.850  1.00  0.00     0.037 A 
ENDBRANCH  22  23
ENDBRANCH  21  22
ENDBRANCH  20  21
ENDBRANCH  17  20
ENDBRANCH   1  16
TORSDOF 9
ENDMDL
MODEL 8
REMARK VINA RESULT:      -7.7      2.428     10.434
REMARK  9 active torsions:
REMARK  status: ('A' for Active; 'I' for Inactive)
REMARK    1  A    between atoms: C_2  and  N_3 
REMARK    2  A    between atoms: C_4  and  S_5 
REMARK    3  A    between atoms: S_5  and  C_6 
REMARK    4  A    between atoms: C_6  and  C_7 
REMARK       I    between atoms: C_7  and  N_8 
REMARK    5  A    between atoms: N_8  and  C_9 
REMARK    6  A    between atoms: C_9  and  C_10 
REMARK    7  A    between atoms: C_10  and  O_11 
REMARK    8  A    between atoms: O_11  and  C_12 
REMARK    9  A    between atoms: C_22  and  C_23 
ROOT
HETATM    1  C   UNL     1      43.019 -12.625   5.681  1.00  0.00     0.185 C 
ENDROOT
BRANCH   1   2
HETATM    2  S   UNL     1      42.005 -13.968   6.362  1.00  0.00    -0.081 SA
BRANCH   2   3
HETATM    3  C   UNL     1      43.013 -15.314   5.954  1.00  0.00     0.192 A 
HETATM    4  N   UNL     1      42.655 -16.327   5.104  1.00  0.00    -0.308 N 
HETATM    5  C   UNL     1      43.719 -17.212   5.119  1.00  0.00     0.164 A 
HETATM    6  N   UNL     1      44.651 -16.726   5.921  1.00  0.00    -0.128 NA
HETATM    7  N   UNL     1      44.215 -15.531   6.430  1.00  0.00    -0.122 NA
BRANCH   4   8
HETATM    8  C   UNL     1      41.378 -16.503   4.444  1.00  0.00     0.128 C 
HETATM    9  C   UNL     1      41.309 -15.814   3.091  1.00  0.00     0.027 C 
ENDBRANCH   4   8
BRANCH   5  10
HETATM   10  C   UNL     1      43.797 -18.510   4.451  1.00  0.00     0.012 A 
HETATM   11  C   UNL     1      43.704 -18.562   3.052  1.00  0.00     0.015 A 
HETATM   12  C   UNL     1      43.766 -19.783   2.378  1.00  0.00     0.001 A 
HETATM   13  C   UNL     1      43.911 -20.968   3.097  1.00  0.00     0.000 A 
HETATM   14  C   UNL     1      43.981 -20.931   4.488  1.00  0.00     0.001 A 
HETATM   15  C   UNL     1      43.918 -19.709   5.163  1.00  0.00     0.015 A 
ENDBRANCH   5  10
ENDBRANCH   2   3
ENDBRANCH   1   2
BRANCH   1  16
HETATM   16  C   UNL     1      43.998 -12.129   6.728  1.00  0.00     0.227 C 
HETATM   17  N   UNL     1      44.996 -11.307   6.242  1.00  0.00    -0.358 N 
HETATM   18  H   UNL     1      45.048 -11.128   5.247  1.00  0.00     0.162 HD
HETATM   19  O   UNL     1      43.914 -12.440   7.914  1.00  0.00    -0.273 OA
BRANCH  17  20
HETATM   20  C   UNL     1      46.118 -10.899   7.066  1.00  0.00     0.149 C 
BRANCH  20  21
HETATM   21  C   UNL     1      45.740 -10.425   8.470  1.00  0.00     0.195 C 
BRANCH  21  22
HETATM   22  O   UNL     1      45.501  -9.017   8.398  1.00  0.00    -0.350 OA
BRANCH  22  23
HETATM   23  C   UNL     1      44.599  -8.487   9.279  1.00  0.00     0.069 A 
HETATM   24  C   UNL     1      44.266  -9.013  10.530  1.00  0.00     0.043 A 
HETATM   25  C   UNL     1      43.323  -8.365  11.345  1.00  0.00    -0.059 A 
HETATM   26  C   UNL     1      42.952  -8.925  12.687  1.00  0.00     0.048 C 
HETATM   27  C   UNL     1      42.708  -7.193  10.889  1.00  0.00     0.007 A 
HETATM   28  C   UNL     1      43.034  -6.671   9.639  1.00  0.00     0.003 A 
HETATM   29  C   UNL     1      43.975  -7.318   8.839  1.00  0.00     0.037 A 
ENDBRANCH  22  23
ENDBRANCH  21  22
ENDBRANCH  20  21
ENDBRANCH  17  20
ENDBRANCH   1  16
TORSDOF 9
ENDMDL
MODEL 9
REMARK VINA RESULT:      -7.6      3.019     10.096
REMARK  9 active torsions:
REMARK  status: ('A' for Active; 'I' for Inactive)
REMARK    1  A    between atoms: C_2  and  N_3 
REMARK    2  A    between atoms: C_4  and  S_5 
REMARK    3  A    between atoms: S_5  and  C_6 
REMARK    4  A    between atoms: C_6  and  C_7 
REMARK       I    between atoms: C_7  and  N_8 
REMARK    5  A    between atoms: N_8  and  C_9 
REMARK    6  A    between atoms: C_9  and  C_10 
REMARK    7  A    between atoms: C_10  and  O_11 
REMARK    8  A    between atoms: O_11  and  C_12 
REMARK    9  A    between atoms: C_22  and  C_23 
ROOT
HETATM    1  C   UNL     1      41.259 -13.058   5.461  1.00  0.00     0.185 C 
ENDROOT
BRANCH   1   2
HETATM    2  S   UNL     1      43.030 -13.091   5.062  1.00  0.00    -0.081 SA
BRANCH   2   3
HETATM    3  C   UNL     1      43.070 -14.516   4.083  1.00  0.00     0.192 A 
HETATM    4  N   UNL     1      43.199 -15.792   4.567  1.00  0.00    -0.308 N 
HETATM    5  C   UNL     1      43.251 -16.606   3.450  1.00  0.00     0.164 A 
HETATM    6  N   UNL     1      43.139 -15.842   2.376  1.00  0.00    -0.128 NA
HETATM    7  N   UNL     1      43.010 -14.538   2.774  1.00  0.00    -0.122 NA
BRANCH   4   8
HETATM    8  C   UNL     1      43.384 -16.187   5.949  1.00  0.00     0.128 C 
HETATM    9  C   UNL     1      42.071 -16.414   6.682  1.00  0.00     0.027 C 
ENDBRANCH   4   8
BRANCH   5  10
HETATM   10  C   UNL     1      43.481 -18.049   3.419  1.00  0.00     0.012 A 
HETATM   11  C   UNL     1      43.126 -18.771   2.271  1.00  0.00     0.015 A 
HETATM   12  C   UNL     1      43.323 -20.152   2.207  1.00  0.00     0.001 A 
HETATM   13  C   UNL     1      43.867 -20.828   3.296  1.00  0.00     0.000 A 
HETATM   14  C   UNL     1      44.203 -20.125   4.452  1.00  0.00     0.001 A 
HETATM   15  C   UNL     1      44.005 -18.743   4.516  1.00  0.00     0.015 A 
ENDBRANCH   5  10
ENDBRANCH   2   3
ENDBRANCH   1   2
BRANCH   1  16
HETATM   16  C   UNL     1      40.779 -11.624   5.581  1.00  0.00     0.227 C 
HETATM   17  N   UNL     1      40.706 -11.147   6.875  1.00  0.00    -0.358 N 
HETATM   18  H   UNL     1      40.919 -11.769   7.645  1.00  0.00     0.162 HD
HETATM   19  O   UNL     1      40.472 -10.943   4.605  1.00  0.00    -0.273 OA
BRANCH  17  20
HETATM   20  C   UNL     1      40.091  -9.869   7.183  1.00  0.00     0.149 C 
BRANCH  20  21
HETATM   21  C   UNL     1      41.041  -8.832   7.785  1.00  0.00     0.195 C 
BRANCH  21  22
HETATM   22  O   UNL     1      41.370  -9.267   9.107  1.00  0.00    -0.350 OA
BRANCH  22  23
HETATM   23  C   UNL     1      42.694  -9.434   9.403  1.00  0.00     0.069 A 
HETATM   24  C   UNL     1      43.763  -9.233   8.527  1.00  0.00     0.043 A 
HETATM   25  C   UNL     1      45.085  -9.436   8.959  1.00  0.00    -0.059 A 
HETATM   26  C   UNL     1      46.240  -9.230   8.023  1.00  0.00     0.048 C 
HETATM   27  C   UNL     1      45.322  -9.855  10.273  1.00  0.00     0.007 A 
HETATM   28  C   UNL     1      44.257 -10.062  11.147  1.00  0.00     0.003 A 
HETATM   29  C   UNL     1      42.950  -9.853  10.710  1.00  0.00     0.037 A 
ENDBRANCH  22  23
ENDBRANCH  21  22
ENDBRANCH  20  21
ENDBRANCH  17  20
ENDBRANCH   1  16
TORSDOF 9
ENDMDL
MODEL 10
REMARK VINA RESULT:      -7.5      3.452      8.898
REMARK  9 active torsions:
REMARK  status: ('A' for Active; 'I' for Inactive)
REMARK    1  A    between atoms: C_2  and  N_3 
REMARK    2  A    between atoms: C_4  and  S_5 
REMARK    3  A    between atoms: S_5  and  C_6 
REMARK    4  A    between atoms: C_6  and  C_7 
REMARK       I    between atoms: C_7  and  N_8 
REMARK    5  A    between atoms: N_8  and  C_9 
REMARK    6  A    between atoms: C_9  and  C_10 
REMARK    7  A    between atoms: C_10  and  O_11 
REMARK    8  A    between atoms: O_11  and  C_12 
REMARK    9  A    between atoms: C_22  and  C_23 
ROOT
HETATM    1  C   UNL     1      38.853 -10.843   6.976  1.00  0.00     0.185 C 
ENDROOT
BRANCH   1   2
HETATM    2  S   UNL     1      40.224 -10.842   5.786  1.00  0.00    -0.081 SA
BRANCH   2   3
HETATM    3  C   UNL     1      40.498 -12.547   5.674  1.00  0.00     0.192 A 
HETATM    4  N   UNL     1      41.407 -13.137   4.836  1.00  0.00    -0.308 N 
HETATM    5  C   UNL     1      41.248 -14.499   5.022  1.00  0.00     0.164 A 
HETATM    6  N   UNL     1      40.310 -14.685   5.934  1.00  0.00    -0.128 NA
HETATM    7  N   UNL     1      39.853 -13.463   6.353  1.00  0.00    -0.122 NA
BRANCH   4   8
HETATM    8  C   UNL     1      42.252 -12.479   3.861  1.00  0.00     0.128 C 
HETATM    9  C   UNL     1      41.592 -12.345   2.497  1.00  0.00     0.027 C 
ENDBRANCH   4   8
BRANCH   5  10
HETATM   10  C   UNL     1      41.918 -15.573   4.291  1.00  0.00     0.012 A 
HETATM   11  C   UNL     1      41.340 -16.054   3.107  1.00  0.00     0.015 A 
HETATM   12  C   UNL     1      41.945 -17.085   2.386  1.00  0.00     0.001 A 
HETATM   13  C   UNL     1      43.131 -17.654   2.846  1.00  0.00     0.000 A 
HETATM   14  C   UNL     1      43.703 -17.200   4.033  1.00  0.00     0.001 A 
HETATM   15  C   UNL     1      43.096 -16.169   4.756  1.00  0.00     0.015 A 
ENDBRANCH   5  10
ENDBRANCH   2   3
ENDBRANCH   1   2
BRANCH   1  16
HETATM   16  C   UNL     1      39.274 -10.145   8.256  1.00  0.00     0.227 C 
HETATM   17  N   UNL     1      40.581  -9.701   8.266  1.00  0.00    -0.358 N 
HETATM   18  H   UNL     1      41.178  -9.900   7.474  1.00  0.00     0.162 HD
HETATM   19  O   UNL     1      38.514  -9.994   9.210  1.00  0.00    -0.273 OA
BRANCH  17  20
HETATM   20  C   UNL     1      41.202  -9.184   9.472  1.00  0.00     0.149 C 
BRANCH  20  21
HETATM   21  C   UNL     1      42.327  -8.177   9.230  1.00  0.00     0.195 C 
BRANCH  21  22
HETATM   22  O   UNL     1      43.529  -8.739   9.767  1.00  0.00    -0.350 OA
BRANCH  22  23
HETATM   23  C   UNL     1      44.309  -9.476   8.921  1.00  0.00     0.069 A 
HETATM   24  C   UNL     1      43.940 -10.665   8.287  1.00  0.00     0.043 A 
HETATM   25  C   UNL     1      44.838 -11.325   7.432  1.00  0.00    -0.059 A 
HETATM   26  C   UNL     1      44.454 -12.607   6.753  1.00  0.00     0.048 C 
HETATM   27  C   UNL     1      46.115 -10.788   7.230  1.00  0.00     0.007 A 
HETATM   28  C   UNL     1      46.489  -9.606   7.865  1.00  0.00     0.003 A 
HETATM   29  C   UNL     1      45.588  -8.956   8.707  1.00  0.00     0.037 A 
ENDBRANCH  22  23
ENDBRANCH  21  22
ENDBRANCH  20  21
ENDBRANCH  17  20
ENDBRANCH   1  16
TORSDOF 9
ENDMDL
