MODEL 1
REMARK VINA RESULT:      -8.6      0.000      0.000
REMARK  4 active torsions:
REMARK  status: ('A' for Active; 'I' for Inactive)
REMARK    1  A    between atoms: C_7  and  C_8 
REMARK    2  A    between atoms: C_11  and  O_12 
REMARK    3  A    between atoms: C_17  and  C_18 
REMARK    4  A    between atoms: C_25  and  C_26 
REMARK       I    between atoms: C_26  and  N_27 
ROOT
HETATM    1  C   UNL     1      38.771 -10.326   4.964  1.00  0.00     0.070 C 
HETATM    2  C   UNL     1      40.056 -11.103   4.813  1.00  0.00     0.037 C 
HETATM    3  N   UNL     1      39.940 -12.487   4.935  1.00  0.00    -0.192 N 
HETATM    4  C   UNL     1      40.940 -13.332   4.617  1.00  0.00     0.726 A 
HETATM    5  N   UNL     1      42.177 -12.824   4.351  1.00  0.00    -0.083 N 
HETATM    6  N   UNL     1      43.036 -13.780   3.954  1.00  0.00    -0.135 NA
HETATM    7  C   UNL     1      42.271 -14.883   4.069  1.00  0.00     0.199 A 
HETATM    8  N   UNL     1      40.968 -14.630   4.470  1.00  0.00    -0.041 NA
HETATM    9  C   UNL     1      42.522 -11.406   4.477  1.00  0.00     0.202 C 
HETATM   10  C   UNL     1      41.271 -10.538   4.575  1.00  0.00     0.062 C 
HETATM   11  H   UNL     1      39.000 -12.867   5.012  1.00  0.00     0.184 HD
ENDROOT
BRANCH   7  12
HETATM   12  C   UNL     1      42.754 -16.235   3.804  1.00  0.00     0.014 A 
HETATM   13  C   UNL     1      42.434 -16.894   2.608  1.00  0.00     0.018 A 
HETATM   14  C   UNL     1      42.914 -18.183   2.357  1.00  0.00     0.037 A 
HETATM   15  C   UNL     1      43.723 -18.835   3.288  1.00  0.00     0.068 A 
HETATM   16  C   UNL     1      44.040 -18.191   4.484  1.00  0.00     0.037 A 
HETATM   17  C   UNL     1      43.558 -16.901   4.739  1.00  0.00     0.018 A 
BRANCH  15  18
HETATM   18  O   UNL     1      44.131 -20.086   2.915  1.00  0.00    -0.356 OA
HETATM   19  C   UNL     1      43.664 -20.564   1.659  1.00  0.00     0.210 C 
ENDBRANCH  15  18
ENDBRANCH   7  12
BRANCH   9  20
HETATM   20  C   UNL     1      43.485 -11.246   5.659  1.00  0.00    -0.028 A 
HETATM   21  C   UNL     1      42.975 -10.897   6.924  1.00  0.00     0.012 A 
HETATM   22  C   UNL     1      43.832 -10.733   8.014  1.00  0.00     0.043 A 
HETATM   23  C   UNL     1      45.199 -10.910   7.845  1.00  0.00     0.116 A 
HETATM   24  F   UNL     1      46.019 -10.753   8.893  1.00  0.00    -0.206 F 
HETATM   25  C   UNL     1      45.728 -11.240   6.605  1.00  0.00     0.043 A 
HETATM   26  C   UNL     1      44.877 -11.402   5.512  1.00  0.00     0.012 A 
ENDBRANCH   9  20
BRANCH  10  27
HETATM   27  C   UNL     1      41.386  -9.095   4.235  1.00  0.00     0.249 C 
HETATM   28  N   UNL     1      41.295  -8.751   2.925  1.00  0.00    -0.366 N 
HETATM   29  H   UNL     1      41.331  -9.396   2.149  1.00  0.00     0.159 HD
HETATM   30  H   UNL     1      41.420  -7.769   2.711  1.00  0.00     0.159 HD
HETATM   31  O   UNL     1      41.526  -8.222   5.084  1.00  0.00    -0.268 OA
ENDBRANCH  10  27
TORSDOF 4
ENDMDL
MODEL 2
REMARK VINA RESULT:      -8.4      3.646      4.458
REMARK  4 active torsions:
REMARK  status: ('A' for Active; 'I' for Inactive)
REMARK    1  A    between atoms: C_7  and  C_8 
REMARK    2  A    between atoms: C_11  and  O_12 
REMARK    3  A    between atoms: C_17  and  C_18 
REMARK    4  A    between atoms: C_25  and  C_26 
REMARK       I    between atoms: C_26  and  N_27 
ROOT
HETATM    1  C   UNL     1      38.366 -13.180  -1.721  1.00  0.00     0.070 C 
HETATM    2  C   UNL     1      39.439 -13.313  -0.668  1.00  0.00     0.037 C 
HETATM    3  N   UNL     1      39.477 -14.537   0.001  1.00  0.00    -0.192 N 
HETATM    4  C   UNL     1      40.495 -14.893   0.807  1.00  0.00     0.726 A 
HETATM    5  N   UNL     1      41.431 -13.962   1.145  1.00  0.00    -0.083 N 
HETATM    6  N   UNL     1      42.431 -14.496   1.869  1.00  0.00    -0.135 NA
HETATM    7  C   UNL     1      42.005 -15.766   2.006  1.00  0.00     0.199 A 
HETATM    8  N   UNL     1      40.812 -16.038   1.351  1.00  0.00    -0.041 NA
HETATM    9  C   UNL     1      41.357 -12.551   0.756  1.00  0.00     0.202 C 
HETATM   10  C   UNL     1      40.331 -12.336  -0.354  1.00  0.00     0.062 C 
HETATM   11  H   UNL     1      38.856 -15.268  -0.337  1.00  0.00     0.184 HD
ENDROOT
BRANCH   7  12
HETATM   12  C   UNL     1      42.719 -16.782   2.776  1.00  0.00     0.014 A 
HETATM   13  C   UNL     1      42.939 -18.062   2.250  1.00  0.00     0.018 A 
HETATM   14  C   UNL     1      43.636 -19.022   2.989  1.00  0.00     0.037 A 
HETATM   15  C   UNL     1      44.130 -18.723   4.260  1.00  0.00     0.068 A 
HETATM   16  C   UNL     1      43.909 -17.454   4.794  1.00  0.00     0.037 A 
HETATM   17  C   UNL     1      43.207 -16.491   4.057  1.00  0.00     0.018 A 
BRANCH  15  18
HETATM   18  O   UNL     1      44.800 -19.748   4.870  1.00  0.00    -0.356 OA
HETATM   19  C   UNL     1      44.028 -20.877   5.257  1.00  0.00     0.210 C 
ENDBRANCH  15  18
ENDBRANCH   7  12
BRANCH   9  20
HETATM   20  C   UNL     1      41.095 -11.716   2.015  1.00  0.00    -0.028 A 
HETATM   21  C   UNL     1      39.826 -11.757   2.621  1.00  0.00     0.012 A 
HETATM   22  C   UNL     1      39.558 -10.996   3.761  1.00  0.00     0.043 A 
HETATM   23  C   UNL     1      40.553 -10.188   4.296  1.00  0.00     0.116 A 
HETATM   24  F   UNL     1      40.295  -9.460   5.390  1.00  0.00    -0.206 F 
HETATM   25  C   UNL     1      41.810 -10.120   3.708  1.00  0.00     0.043 A 
HETATM   26  C   UNL     1      42.081 -10.875   2.567  1.00  0.00     0.012 A 
ENDBRANCH   9  20
BRANCH  10  27
HETATM   27  C   UNL     1      40.446 -11.111  -1.190  1.00  0.00     0.249 C 
HETATM   28  N   UNL     1      41.291 -11.154  -2.250  1.00  0.00    -0.366 N 
HETATM   29  H   UNL     1      41.977 -11.876  -2.421  1.00  0.00     0.159 HD
HETATM   30  H   UNL     1      41.388 -10.296  -2.781  1.00  0.00     0.159 HD
HETATM   31  O   UNL     1      39.791 -10.098  -0.976  1.00  0.00    -0.268 OA
ENDBRANCH  10  27
TORSDOF 4
ENDMDL
MODEL 3
REMARK VINA RESULT:      -8.1      4.649      7.358
REMARK  4 active torsions:
REMARK  status: ('A' for Active; 'I' for Inactive)
REMARK    1  A    between atoms: C_7  and  C_8 
REMARK    2  A    between atoms: C_11  and  O_12 
REMARK    3  A    between atoms: C_17  and  C_18 
REMARK    4  A    between atoms: C_25  and  C_26 
REMARK       I    between atoms: C_26  and  N_27 
ROOT
HETATM    1  C   UNL     1      40.168 -15.650   7.118  1.00  0.00     0.070 C 
HETATM    2  C   UNL     1      40.850 -15.547   5.775  1.00  0.00     0.037 C 
HETATM    3  N   UNL     1      40.031 -15.168   4.712  1.00  0.00    -0.192 N 
HETATM    4  C   UNL     1      40.518 -14.824   3.504  1.00  0.00     0.726 A 
HETATM    5  N   UNL     1      41.838 -15.036   3.238  1.00  0.00    -0.083 N 
HETATM    6  N   UNL     1      42.190 -14.550   2.034  1.00  0.00    -0.135 NA
HETATM    7  C   UNL     1      41.004 -14.110   1.573  1.00  0.00     0.199 A 
HETATM    8  N   UNL     1      39.955 -14.262   2.468  1.00  0.00    -0.041 NA
HETATM    9  C   UNL     1      42.760 -15.705   4.159  1.00  0.00     0.202 C 
HETATM   10  C   UNL     1      42.170 -15.798   5.564  1.00  0.00     0.062 C 
HETATM   11  H   UNL     1      39.077 -14.895   4.938  1.00  0.00     0.184 HD
ENDROOT
BRANCH   7  12
HETATM   12  C   UNL     1      40.816 -13.525   0.248  1.00  0.00     0.014 A 
HETATM   13  C   UNL     1      41.167 -12.193  -0.009  1.00  0.00     0.018 A 
HETATM   14  C   UNL     1      40.997 -11.647  -1.284  1.00  0.00     0.037 A 
HETATM   15  C   UNL     1      40.481 -12.418  -2.326  1.00  0.00     0.068 A 
HETATM   16  C   UNL     1      40.121 -13.743  -2.079  1.00  0.00     0.037 A 
HETATM   17  C   UNL     1      40.287 -14.291  -0.800  1.00  0.00     0.018 A 
BRANCH  15  18
HETATM   18  O   UNL     1      40.375 -11.765  -3.524  1.00  0.00    -0.356 OA
HETATM   19  C   UNL     1      40.720 -10.386  -3.535  1.00  0.00     0.210 C 
ENDBRANCH  15  18
ENDBRANCH   7  12
BRANCH   9  20
HETATM   20  C   UNL     1      43.146 -17.061   3.555  1.00  0.00    -0.028 A 
HETATM   21  C   UNL     1      42.364 -17.605   2.520  1.00  0.00     0.012 A 
HETATM   22  C   UNL     1      42.687 -18.844   1.963  1.00  0.00     0.043 A 
HETATM   23  C   UNL     1      43.786 -19.546   2.439  1.00  0.00     0.116 A 
HETATM   24  F   UNL     1      44.094 -20.733   1.902  1.00  0.00    -0.206 F 
HETATM   25  C   UNL     1      44.566 -19.037   3.469  1.00  0.00     0.043 A 
HETATM   26  C   UNL     1      44.245 -17.801   4.033  1.00  0.00     0.012 A 
ENDBRANCH   9  20
BRANCH  10  27
HETATM   27  C   UNL     1      43.100 -15.998   6.707  1.00  0.00     0.249 C 
HETATM   28  N   UNL     1      43.099 -17.213   7.309  1.00  0.00    -0.366 N 
HETATM   29  H   UNL     1      42.406 -17.934   7.168  1.00  0.00     0.159 HD
HETATM   30  H   UNL     1      43.708 -17.315   8.113  1.00  0.00     0.159 HD
HETATM   31  O   UNL     1      43.874 -15.129   7.092  1.00  0.00    -0.268 OA
ENDBRANCH  10  27
TORSDOF 4
ENDMDL
MODEL 4
REMARK VINA RESULT:      -8.1      3.632      7.131
REMARK  4 active torsions:
REMARK  status: ('A' for Active; 'I' for Inactive)
REMARK    1  A    between atoms: C_7  and  C_8 
REMARK    2  A    between atoms: C_11  and  O_12 
REMARK    3  A    between atoms: C_17  and  C_18 
REMARK    4  A    between atoms: C_25  and  C_26 
REMARK       I    between atoms: C_26  and  N_27 
ROOT
HETATM    1  C   UNL     1      41.009 -10.507  -0.625  1.00  0.00     0.070 C 
HETATM    2  C   UNL     1      41.193 -11.205   0.701  1.00  0.00     0.037 C 
HETATM    3  N   UNL     1      42.139 -10.637   1.554  1.00  0.00    -0.192 N 
HETATM    4  C   UNL     1      42.270 -11.004   2.843  1.00  0.00     0.726 A 
HETATM    5  N   UNL     1      41.595 -12.100   3.292  1.00  0.00    -0.083 N 
HETATM    6  N   UNL     1      41.749 -12.275   4.617  1.00  0.00    -0.135 NA
HETATM    7  C   UNL     1      42.603 -11.278   4.915  1.00  0.00     0.199 A 
HETATM    8  N   UNL     1      42.934 -10.473   3.835  1.00  0.00    -0.041 NA
HETATM    9  C   UNL     1      40.794 -12.975   2.432  1.00  0.00     0.202 C 
HETATM   10  C   UNL     1      40.509 -12.317   1.084  1.00  0.00     0.062 C 
HETATM   11  H   UNL     1      42.550  -9.753   1.265  1.00  0.00     0.184 HD
ENDROOT
BRANCH   7  12
HETATM   12  C   UNL     1      43.147 -11.050   6.251  1.00  0.00     0.014 A 
HETATM   13  C   UNL     1      44.348 -11.651   6.653  1.00  0.00     0.018 A 
HETATM   14  C   UNL     1      44.868 -11.415   7.929  1.00  0.00     0.037 A 
HETATM   15  C   UNL     1      44.205 -10.573   8.823  1.00  0.00     0.068 A 
HETATM   16  C   UNL     1      43.006  -9.977   8.435  1.00  0.00     0.037 A 
HETATM   17  C   UNL     1      42.481 -10.215   7.158  1.00  0.00     0.018 A 
BRANCH  15  18
HETATM   18  O   UNL     1      44.825 -10.421  10.033  1.00  0.00    -0.356 OA
HETATM   19  C   UNL     1      44.005 -10.515  11.191  1.00  0.00     0.210 C 
ENDBRANCH  15  18
ENDBRANCH   7  12
BRANCH   9  20
HETATM   20  C   UNL     1      41.505 -14.329   2.324  1.00  0.00    -0.028 A 
HETATM   21  C   UNL     1      42.805 -14.388   1.787  1.00  0.00     0.012 A 
HETATM   22  C   UNL     1      43.468 -15.611   1.666  1.00  0.00     0.043 A 
HETATM   23  C   UNL     1      42.837 -16.778   2.075  1.00  0.00     0.116 A 
HETATM   24  F   UNL     1      43.476 -17.949   1.960  1.00  0.00    -0.206 F 
HETATM   25  C   UNL     1      41.550 -16.748   2.596  1.00  0.00     0.043 A 
HETATM   26  C   UNL     1      40.881 -15.530   2.715  1.00  0.00     0.012 A 
ENDBRANCH   9  20
BRANCH  10  27
HETATM   27  C   UNL     1      39.356 -12.814   0.288  1.00  0.00     0.249 C 
HETATM   28  N   UNL     1      38.149 -12.233   0.503  1.00  0.00    -0.366 N 
HETATM   29  H   UNL     1      37.927 -11.618   1.273  1.00  0.00     0.159 HD
HETATM   30  H   UNL     1      37.368 -12.616  -0.017  1.00  0.00     0.159 HD
HETATM   31  O   UNL     1      39.465 -13.691  -0.561  1.00  0.00    -0.268 OA
ENDBRANCH  10  27
TORSDOF 4
ENDMDL
MODEL 5
REMARK VINA RESULT:      -8.0      3.242      8.294
REMARK  4 active torsions:
REMARK  status: ('A' for Active; 'I' for Inactive)
REMARK    1  A    between atoms: C_7  and  C_8 
REMARK    2  A    between atoms: C_11  and  O_12 
REMARK    3  A    between atoms: C_17  and  C_18 
REMARK    4  A    between atoms: C_25  and  C_26 
REMARK       I    between atoms: C_26  and  N_27 
ROOT
HETATM    1  C   UNL     1      43.204 -19.247   6.757  1.00  0.00     0.070 C 
HETATM    2  C   UNL     1      43.231 -17.871   6.135  1.00  0.00     0.037 C 
HETATM    3  N   UNL     1      42.846 -16.824   6.972  1.00  0.00    -0.192 N 
HETATM    4  C   UNL     1      43.018 -15.529   6.645  1.00  0.00     0.726 A 
HETATM    5  N   UNL     1      43.402 -15.212   5.376  1.00  0.00    -0.083 N 
HETATM    6  N   UNL     1      43.629 -13.894   5.237  1.00  0.00    -0.135 NA
HETATM    7  C   UNL     1      43.289 -13.439   6.458  1.00  0.00     0.199 A 
HETATM    8  N   UNL     1      42.915 -14.434   7.349  1.00  0.00    -0.041 NA
HETATM    9  C   UNL     1      43.557 -16.194   4.300  1.00  0.00     0.202 C 
HETATM   10  C   UNL     1      43.599 -17.617   4.850  1.00  0.00     0.062 C 
HETATM   11  H   UNL     1      42.677 -17.052   7.949  1.00  0.00     0.184 HD
ENDROOT
BRANCH   7  12
HETATM   12  C   UNL     1      43.303 -12.027   6.830  1.00  0.00     0.014 A 
HETATM   13  C   UNL     1      42.302 -11.153   6.382  1.00  0.00     0.018 A 
HETATM   14  C   UNL     1      42.316  -9.806   6.755  1.00  0.00     0.037 A 
HETATM   15  C   UNL     1      43.323  -9.308   7.583  1.00  0.00     0.068 A 
HETATM   16  C   UNL     1      44.327 -10.167   8.027  1.00  0.00     0.037 A 
HETATM   17  C   UNL     1      44.317 -11.517   7.651  1.00  0.00     0.018 A 
BRANCH  15  18
HETATM   18  O   UNL     1      43.213  -7.976   7.878  1.00  0.00    -0.356 OA
HETATM   19  C   UNL     1      43.898  -7.518   9.037  1.00  0.00     0.210 C 
ENDBRANCH  15  18
ENDBRANCH   7  12
BRANCH   9  20
HETATM   20  C   UNL     1      42.448 -15.958   3.269  1.00  0.00    -0.028 A 
HETATM   21  C   UNL     1      42.788 -15.526   1.973  1.00  0.00     0.012 A 
HETATM   22  C   UNL     1      41.795 -15.291   1.019  1.00  0.00     0.043 A 
HETATM   23  C   UNL     1      40.461 -15.481   1.356  1.00  0.00     0.116 A 
HETATM   24  F   UNL     1      39.511 -15.257   0.439  1.00  0.00    -0.206 F 
HETATM   25  C   UNL     1      40.099 -15.894   2.631  1.00  0.00     0.043 A 
HETATM   26  C   UNL     1      41.086 -16.125   3.589  1.00  0.00     0.012 A 
ENDBRANCH   9  20
BRANCH  10  27
HETATM   27  C   UNL     1      44.210 -18.680   4.008  1.00  0.00     0.249 C 
HETATM   28  N   UNL     1      43.455 -19.195   3.005  1.00  0.00    -0.366 N 
HETATM   29  H   UNL     1      42.463 -19.049   2.888  1.00  0.00     0.159 HD
HETATM   30  H   UNL     1      43.874 -19.948   2.472  1.00  0.00     0.159 HD
HETATM   31  O   UNL     1      45.359 -19.074   4.168  1.00  0.00    -0.268 OA
ENDBRANCH  10  27
TORSDOF 4
ENDMDL
MODEL 6
REMARK VINA RESULT:      -7.7     16.714     18.072
REMARK  4 active torsions:
REMARK  status: ('A' for Active; 'I' for Inactive)
REMARK    1  A    between atoms: C_7  and  C_8 
REMARK    2  A    between atoms: C_11  and  O_12 
REMARK    3  A    between atoms: C_17  and  C_18 
REMARK    4  A    between atoms: C_25  and  C_26 
REMARK       I    between atoms: C_26  and  N_27 
ROOT
HETATM    1  C   UNL     1      45.270 -27.826  -2.929  1.00  0.00     0.070 C 
HETATM    2  C   UNL     1      45.147 -28.673  -1.685  1.00  0.00     0.037 C 
HETATM    3  N   UNL     1      43.995 -28.463  -0.927  1.00  0.00    -0.192 N 
HETATM    4  C   UNL     1      43.631 -29.277   0.082  1.00  0.00     0.726 A 
HETATM    5  N   UNL     1      44.505 -30.229   0.515  1.00  0.00    -0.083 N 
HETATM    6  N   UNL     1      43.958 -31.021   1.454  1.00  0.00    -0.135 NA
HETATM    7  C   UNL     1      42.750 -30.448   1.609  1.00  0.00     0.199 A 
HETATM    8  N   UNL     1      42.521 -29.371   0.765  1.00  0.00    -0.041 NA
HETATM    9  C   UNL     1      45.873 -30.372   0.009  1.00  0.00     0.202 C 
HETATM   10  C   UNL     1      46.068 -29.591  -1.287  1.00  0.00     0.062 C 
HETATM   11  H   UNL     1      43.292 -27.841  -1.317  1.00  0.00     0.184 HD
ENDROOT
BRANCH   7  12
HETATM   12  C   UNL     1      41.755 -30.903   2.577  1.00  0.00     0.014 A 
HETATM   13  C   UNL     1      40.775 -31.840   2.219  1.00  0.00     0.018 A 
HETATM   14  C   UNL     1      39.837 -32.279   3.156  1.00  0.00     0.037 A 
HETATM   15  C   UNL     1      39.861 -31.799   4.466  1.00  0.00     0.068 A 
HETATM   16  C   UNL     1      40.826 -30.861   4.830  1.00  0.00     0.037 A 
HETATM   17  C   UNL     1      41.765 -30.416   3.891  1.00  0.00     0.018 A 
BRANCH  15  18
HETATM   18  O   UNL     1      38.893 -32.317   5.283  1.00  0.00    -0.356 OA
HETATM   19  C   UNL     1      38.138 -33.407   4.771  1.00  0.00     0.210 C 
ENDBRANCH  15  18
ENDBRANCH   7  12
BRANCH   9  20
HETATM   20  C   UNL     1      46.845 -29.976   1.127  1.00  0.00    -0.028 A 
HETATM   21  C   UNL     1      47.607 -30.972   1.766  1.00  0.00     0.012 A 
HETATM   22  C   UNL     1      48.490 -30.639   2.796  1.00  0.00     0.043 A 
HETATM   23  C   UNL     1      48.611 -29.315   3.195  1.00  0.00     0.116 A 
HETATM   24  F   UNL     1      49.459 -28.998   4.181  1.00  0.00    -0.206 F 
HETATM   25  C   UNL     1      47.860 -28.316   2.590  1.00  0.00     0.043 A 
HETATM   26  C   UNL     1      46.973 -28.643   1.563  1.00  0.00     0.012 A 
ENDBRANCH   9  20
BRANCH  10  27
HETATM   27  C   UNL     1      47.192 -29.979  -2.181  1.00  0.00     0.249 C 
HETATM   28  N   UNL     1      48.375 -29.337  -2.014  1.00  0.00    -0.366 N 
HETATM   29  H   UNL     1      48.513 -28.503  -1.461  1.00  0.00     0.159 HD
HETATM   30  H   UNL     1      49.115 -29.585  -2.661  1.00  0.00     0.159 HD
HETATM   31  O   UNL     1      47.094 -30.864  -3.023  1.00  0.00    -0.268 OA
ENDBRANCH  10  27
TORSDOF 4
ENDMDL
MODEL 7
REMARK VINA RESULT:      -7.7      3.219      4.579
REMARK  4 active torsions:
REMARK  status: ('A' for Active; 'I' for Inactive)
REMARK    1  A    between atoms: C_7  and  C_8 
REMARK    2  A    between atoms: C_11  and  O_12 
REMARK    3  A    between atoms: C_17  and  C_18 
REMARK    4  A    between atoms: C_25  and  C_26 
REMARK       I    between atoms: C_26  and  N_27 
ROOT
HETATM    1  C   UNL     1      41.345  -9.595   6.561  1.00  0.00     0.070 C 
HETATM    2  C   UNL     1      41.076 -10.767   5.649  1.00  0.00     0.037 C 
HETATM    3  N   UNL     1      42.143 -11.648   5.471  1.00  0.00    -0.192 N 
HETATM    4  C   UNL     1      42.006 -12.844   4.868  1.00  0.00     0.726 A 
HETATM    5  N   UNL     1      40.835 -13.136   4.234  1.00  0.00    -0.083 N 
HETATM    6  N   UNL     1      40.818 -14.400   3.773  1.00  0.00    -0.135 NA
HETATM    7  C   UNL     1      42.058 -14.814   4.098  1.00  0.00     0.199 A 
HETATM    8  N   UNL     1      42.809 -13.871   4.783  1.00  0.00    -0.041 NA
HETATM    9  C   UNL     1      39.729 -12.188   4.083  1.00  0.00     0.202 C 
HETATM   10  C   UNL     1      39.892 -10.993   5.019  1.00  0.00     0.062 C 
HETATM   11  H   UNL     1      42.972 -11.491   6.039  1.00  0.00     0.184 HD
ENDROOT
BRANCH   7  12
HETATM   12  C   UNL     1      42.584 -16.135   3.763  1.00  0.00     0.014 A 
HETATM   13  C   UNL     1      42.245 -16.762   2.557  1.00  0.00     0.018 A 
HETATM   14  C   UNL     1      42.765 -18.020   2.240  1.00  0.00     0.037 A 
HETATM   15  C   UNL     1      43.636 -18.672   3.115  1.00  0.00     0.068 A 
HETATM   16  C   UNL     1      43.973 -18.060   4.321  1.00  0.00     0.037 A 
HETATM   17  C   UNL     1      43.449 -16.800   4.643  1.00  0.00     0.018 A 
BRANCH  15  18
HETATM   18  O   UNL     1      44.078 -19.891   2.679  1.00  0.00    -0.356 OA
HETATM   19  C   UNL     1      43.912 -20.988   3.569  1.00  0.00     0.210 C 
ENDBRANCH  15  18
ENDBRANCH   7  12
BRANCH   9  20
HETATM   20  C   UNL     1      39.619 -11.807   2.602  1.00  0.00    -0.028 A 
HETATM   21  C   UNL     1      38.371 -11.893   1.957  1.00  0.00     0.012 A 
HETATM   22  C   UNL     1      38.247 -11.565   0.605  1.00  0.00     0.043 A 
HETATM   23  C   UNL     1      39.366 -11.156  -0.108  1.00  0.00     0.116 A 
HETATM   24  F   UNL     1      39.243 -10.840  -1.403  1.00  0.00    -0.206 F 
HETATM   25  C   UNL     1      40.611 -11.077   0.502  1.00  0.00     0.043 A 
HETATM   26  C   UNL     1      40.741 -11.408   1.851  1.00  0.00     0.012 A 
ENDBRANCH   9  20
BRANCH  10  27
HETATM   27  C   UNL     1      38.685 -10.193   5.355  1.00  0.00     0.249 C 
HETATM   28  N   UNL     1      38.372  -9.158   4.535  1.00  0.00    -0.366 N 
HETATM   29  H   UNL     1      38.976  -8.776   3.822  1.00  0.00     0.159 HD
HETATM   30  H   UNL     1      37.571  -8.598   4.806  1.00  0.00     0.159 HD
HETATM   31  O   UNL     1      37.962 -10.452   6.311  1.00  0.00    -0.268 OA
ENDBRANCH  10  27
TORSDOF 4
ENDMDL
MODEL 8
REMARK VINA RESULT:      -7.7      4.195      5.535
REMARK  4 active torsions:
REMARK  status: ('A' for Active; 'I' for Inactive)
REMARK    1  A    between atoms: C_7  and  C_8 
REMARK    2  A    between atoms: C_11  and  O_12 
REMARK    3  A    between atoms: C_17  and  C_18 
REMARK    4  A    between atoms: C_25  and  C_26 
REMARK       I    between atoms: C_26  and  N_27 
ROOT
HETATM    1  C   UNL     1      39.655  -9.535   3.884  1.00  0.00     0.070 C 
HETATM    2  C   UNL     1      39.915 -10.869   3.227  1.00  0.00     0.037 C 
HETATM    3  N   UNL     1      41.022 -11.569   3.705  1.00  0.00    -0.192 N 
HETATM    4  C   UNL     1      41.265 -12.854   3.382  1.00  0.00     0.726 A 
HETATM    5  N   UNL     1      40.522 -13.443   2.404  1.00  0.00    -0.083 N 
HETATM    6  N   UNL     1      40.816 -14.749   2.269  1.00  0.00    -0.135 NA
HETATM    7  C   UNL     1      41.817 -14.884   3.159  1.00  0.00     0.199 A 
HETATM    8  N   UNL     1      42.108 -13.727   3.866  1.00  0.00    -0.041 NA
HETATM    9  C   UNL     1      39.518 -12.737   1.604  1.00  0.00     0.202 C 
HETATM   10  C   UNL     1      39.151 -11.396   2.233  1.00  0.00     0.062 C 
HETATM   11  H   UNL     1      41.501 -11.181   4.514  1.00  0.00     0.184 HD
ENDROOT
BRANCH   7  12
HETATM   12  C   UNL     1      42.547 -16.131   3.374  1.00  0.00     0.014 A 
HETATM   13  C   UNL     1      43.127 -16.423   4.616  1.00  0.00     0.018 A 
HETATM   14  C   UNL     1      43.811 -17.625   4.816  1.00  0.00     0.037 A 
HETATM   15  C   UNL     1      43.925 -18.559   3.784  1.00  0.00     0.068 A 
HETATM   16  C   UNL     1      43.359 -18.274   2.542  1.00  0.00     0.037 A 
HETATM   17  C   UNL     1      42.676 -17.068   2.340  1.00  0.00     0.018 A 
BRANCH  15  18
HETATM   18  O   UNL     1      44.612 -19.695   4.115  1.00  0.00    -0.356 OA
HETATM   19  C   UNL     1      43.889 -20.919   4.062  1.00  0.00     0.210 C 
ENDBRANCH  15  18
ENDBRANCH   7  12
BRANCH   9  20
HETATM   20  C   UNL     1      40.037 -12.629   0.165  1.00  0.00    -0.028 A 
HETATM   21  C   UNL     1      39.673 -13.608  -0.778  1.00  0.00     0.012 A 
HETATM   22  C   UNL     1      40.143 -13.539  -2.091  1.00  0.00     0.043 A 
HETATM   23  C   UNL     1      40.981 -12.498  -2.466  1.00  0.00     0.116 A 
HETATM   24  F   UNL     1      41.428 -12.433  -3.727  1.00  0.00    -0.206 F 
HETATM   25  C   UNL     1      41.365 -11.527  -1.552  1.00  0.00     0.043 A 
HETATM   26  C   UNL     1      40.902 -11.593  -0.237  1.00  0.00     0.012 A 
ENDBRANCH   9  20
BRANCH  10  27
HETATM   27  C   UNL     1      37.855 -10.772   1.854  1.00  0.00     0.249 C 
HETATM   28  N   UNL     1      36.852 -11.599   1.468  1.00  0.00    -0.366 N 
HETATM   29  H   UNL     1      36.955 -12.579   1.247  1.00  0.00     0.159 HD
HETATM   30  H   UNL     1      35.991 -11.151   1.172  1.00  0.00     0.159 HD
HETATM   31  O   UNL     1      37.660  -9.563   1.910  1.00  0.00    -0.268 OA
ENDBRANCH  10  27
TORSDOF 4
ENDMDL
MODEL 9
REMARK VINA RESULT:      -7.5      1.992      2.316
REMARK  4 active torsions:
REMARK  status: ('A' for Active; 'I' for Inactive)
REMARK    1  A    between atoms: C_7  and  C_8 
REMARK    2  A    between atoms: C_11  and  O_12 
REMARK    3  A    between atoms: C_17  and  C_18 
REMARK    4  A    between atoms: C_25  and  C_26 
REMARK       I    between atoms: C_26  and  N_27 
ROOT
HETATM    1  C   UNL     1      38.289 -11.191   1.207  1.00  0.00     0.070 C 
HETATM    2  C   UNL     1      39.510 -11.788   1.864  1.00  0.00     0.037 C 
HETATM    3  N   UNL     1      39.422 -13.144   2.179  1.00  0.00    -0.192 N 
HETATM    4  C   UNL     1      40.487 -13.872   2.566  1.00  0.00     0.726 A 
HETATM    5  N   UNL     1      41.657 -13.234   2.851  1.00  0.00    -0.083 N 
HETATM    6  N   UNL     1      42.648 -14.103   3.123  1.00  0.00    -0.135 NA
HETATM    7  C   UNL     1      41.991 -15.276   3.059  1.00  0.00     0.199 A 
HETATM    8  N   UNL     1      40.654 -15.160   2.708  1.00  0.00    -0.041 NA
HETATM    9  C   UNL     1      41.815 -11.778   2.851  1.00  0.00     0.202 C 
HETATM   10  C   UNL     1      40.644 -11.094   2.149  1.00  0.00     0.062 C 
HETATM   11  H   UNL     1      38.595 -13.641   1.857  1.00  0.00     0.184 HD
ENDROOT
BRANCH   7  12
HETATM   12  C   UNL     1      42.613 -16.569   3.335  1.00  0.00     0.014 A 
HETATM   13  C   UNL     1      42.762 -17.528   2.323  1.00  0.00     0.018 A 
HETATM   14  C   UNL     1      43.372 -18.756   2.594  1.00  0.00     0.037 A 
HETATM   15  C   UNL     1      43.847 -19.048   3.873  1.00  0.00     0.068 A 
HETATM   16  C   UNL     1      43.695 -18.104   4.888  1.00  0.00     0.037 A 
HETATM   17  C   UNL     1      43.081 -16.874   4.620  1.00  0.00     0.018 A 
BRANCH  15  18
HETATM   18  O   UNL     1      44.429 -20.280   4.000  1.00  0.00    -0.356 OA
HETATM   19  C   UNL     1      44.403 -20.872   5.293  1.00  0.00     0.210 C 
ENDBRANCH  15  18
ENDBRANCH   7  12
BRANCH   9  20
HETATM   20  C   UNL     1      42.029 -11.315   4.297  1.00  0.00    -0.028 A 
HETATM   21  C   UNL     1      40.914 -10.998   5.095  1.00  0.00     0.012 A 
HETATM   22  C   UNL     1      41.083 -10.562   6.410  1.00  0.00     0.043 A 
HETATM   23  C   UNL     1      42.364 -10.436   6.932  1.00  0.00     0.116 A 
HETATM   24  F   UNL     1      42.523 -10.019   8.195  1.00  0.00    -0.206 F 
HETATM   25  C   UNL     1      43.481 -10.729   6.162  1.00  0.00     0.043 A 
HETATM   26  C   UNL     1      43.317 -11.161   4.845  1.00  0.00     0.012 A 
ENDBRANCH   9  20
BRANCH  10  27
HETATM   27  C   UNL     1      40.841  -9.712   1.637  1.00  0.00     0.249 C 
HETATM   28  N   UNL     1      41.631  -9.556   0.545  1.00  0.00    -0.366 N 
HETATM   29  H   UNL     1      42.235 -10.265   0.155  1.00  0.00     0.159 HD
HETATM   30  H   UNL     1      41.788  -8.602   0.238  1.00  0.00     0.159 HD
HETATM   31  O   UNL     1      40.298  -8.734   2.139  1.00  0.00    -0.268 OA
ENDBRANCH  10  27
TORSDOF 4
ENDMDL
MODEL 10
REMARK VINA RESULT:      -7.3      3.633      6.397
REMARK  4 active torsions:
REMARK  status: ('A' for Active; 'I' for Inactive)
REMARK    1  A    between atoms: C_7  and  C_8 
REMARK    2  A    between atoms: C_11  and  O_12 
REMARK    3  A    between atoms: C_17  and  C_18 
REMARK    4  A    between atoms: C_25  and  C_26 
REMARK       I    between atoms: C_26  and  N_27 
ROOT
HETATM    1  C   UNL     1      43.436 -17.375   4.971  1.00  0.00     0.070 C 
HETATM    2  C   UNL     1      42.942 -15.973   4.709  1.00  0.00     0.037 C 
HETATM    3  N   UNL     1      43.159 -15.489   3.419  1.00  0.00    -0.192 N 
HETATM    4  C   UNL     1      42.596 -14.354   2.963  1.00  0.00     0.726 A 
HETATM    5  N   UNL     1      41.946 -13.538   3.841  1.00  0.00    -0.083 N 
HETATM    6  N   UNL     1      41.355 -12.503   3.217  1.00  0.00    -0.135 NA
HETATM    7  C   UNL     1      41.748 -12.704   1.945  1.00  0.00     0.199 A 
HETATM    8  N   UNL     1      42.511 -13.848   1.762  1.00  0.00    -0.041 NA
HETATM    9  C   UNL     1      41.893 -13.770   5.286  1.00  0.00     0.202 C 
HETATM   10  C   UNL     1      42.323 -15.192   5.635  1.00  0.00     0.062 C 
HETATM   11  H   UNL     1      43.535 -16.144   2.737  1.00  0.00     0.184 HD
ENDROOT
BRANCH   7  12
HETATM   12  C   UNL     1      41.414 -11.807   0.842  1.00  0.00     0.014 A 
HETATM   13  C   UNL     1      41.557 -10.418   0.973  1.00  0.00     0.018 A 
HETATM   14  C   UNL     1      41.248  -9.569  -0.093  1.00  0.00     0.037 A 
HETATM   15  C   UNL     1      40.798 -10.087  -1.308  1.00  0.00     0.068 A 
HETATM   16  C   UNL     1      40.645 -11.466  -1.446  1.00  0.00     0.037 A 
HETATM   17  C   UNL     1      40.950 -12.319  -0.377  1.00  0.00     0.018 A 
BRANCH  15  18
HETATM   18  O   UNL     1      40.541  -9.148  -2.269  1.00  0.00    -0.356 OA
HETATM   19  C   UNL     1      40.839  -9.507  -3.613  1.00  0.00     0.210 C 
ENDBRANCH  15  18
ENDBRANCH   7  12
BRANCH   9  20
HETATM   20  C   UNL     1      42.722 -12.682   5.980  1.00  0.00    -0.028 A 
HETATM   21  C   UNL     1      44.085 -12.914   6.246  1.00  0.00     0.012 A 
HETATM   22  C   UNL     1      44.858 -11.945   6.888  1.00  0.00     0.043 A 
HETATM   23  C   UNL     1      44.274 -10.745   7.272  1.00  0.00     0.116 A 
HETATM   24  F   UNL     1      45.018  -9.816   7.886  1.00  0.00    -0.206 F 
HETATM   25  C   UNL     1      42.929 -10.497   7.034  1.00  0.00     0.043 A 
HETATM   26  C   UNL     1      42.150 -11.464   6.396  1.00  0.00     0.012 A 
ENDBRANCH   9  20
BRANCH  10  27
HETATM   27  C   UNL     1      41.895 -15.756   6.943  1.00  0.00     0.249 C 
HETATM   28  N   UNL     1      42.830 -15.844   7.922  1.00  0.00    -0.366 N 
HETATM   29  H   UNL     1      43.824 -15.726   7.792  1.00  0.00     0.159 HD
HETATM   30  H   UNL     1      42.529 -16.271   8.791  1.00  0.00     0.159 HD
HETATM   31  O   UNL     1      40.742 -16.106   7.170  1.00  0.00    -0.268 OA
ENDBRANCH  10  27
TORSDOF 4
ENDMDL
