MODEL 1
REMARK VINA RESULT:     -10.4      0.000      0.000
REMARK  9 active torsions:
REMARK  status: ('A' for Active; 'I' for Inactive)
REMARK    1  A    between atoms: C_2  and  O_3 
REMARK    2  A    between atoms: O_3  and  C_4 
REMARK    3  A    between atoms: C_5  and  C_6 
REMARK    4  A    between atoms: C_7  and  C_8 
REMARK       I    between atoms: C_8  and  N_9 
REMARK    5  A    between atoms: N_9  and  C_10 
REMARK    6  A    between atoms: C_20  and  S_21 
REMARK    7  A    between atoms: S_21  and  C_22 
REMARK    8  A    between atoms: C_22  and  C_23 
REMARK       I    between atoms: C_23  and  N_24 
REMARK    9  A    between atoms: N_24  and  C_25 
ROOT
HETATM    1  C   UNL     1      43.034 -13.712   4.490  1.00  0.00     0.107 C 
HETATM    2  C   UNL     1      42.963 -14.850   5.516  1.00  0.00     0.046 C 
HETATM    3  C   UNL     1      43.093 -14.588   6.838  1.00  0.00     0.019 C 
HETATM    4  C   UNL     1      42.819 -15.582   7.944  1.00  0.00     0.069 C 
HETATM    5  N   UNL     1      43.417 -13.307   7.268  1.00  0.00    -0.353 N 
HETATM    6  C   UNL     1      43.373 -12.175   6.469  1.00  0.00     0.087 C 
HETATM    7  C   UNL     1      43.227 -12.310   5.127  1.00  0.00     0.055 C 
HETATM    8  C   UNL     1      42.793 -11.137   4.263  1.00  0.00     0.019 C 
HETATM    9  N   UNL     1      42.434 -10.164   3.546  1.00  0.00    -0.096 N 
HETATM   10  H   UNL     1      43.209 -13.118   8.246  1.00  0.00     0.166 HD
ENDROOT
BRANCH   1  11
HETATM   11  C   UNL     1      41.834 -13.687   3.521  1.00  0.00    -0.011 A 
HETATM   12  C   UNL     1      40.513 -13.452   3.968  1.00  0.00     0.076 A 
HETATM   13  C   UNL     1      39.471 -13.375   3.039  1.00  0.00     0.037 A 
HETATM   14  C   UNL     1      39.729 -13.515   1.673  1.00  0.00     0.003 A 
HETATM   15  C   UNL     1      41.025 -13.743   1.225  1.00  0.00     0.001 A 
HETATM   16  C   UNL     1      42.073 -13.832   2.140  1.00  0.00     0.011 A 
BRANCH  12  17
HETATM   17  O   UNL     1      40.350 -13.305   5.321  1.00  0.00    -0.351 OA
BRANCH  17  18
HETATM   18  C   UNL     1      39.229 -12.550   5.772  1.00  0.00     0.171 C 
HETATM   19  C   UNL     1      39.746 -11.223   6.296  1.00  0.00     0.034 C 
ENDBRANCH  17  18
ENDBRANCH  12  17
ENDBRANCH   1  11
BRANCH   6  20
HETATM   20  S   UNL     1      43.269 -10.584   7.216  1.00  0.00    -0.102 SA
BRANCH  20  21
HETATM   21  C   UNL     1      44.864 -10.449   8.071  1.00  0.00     0.184 C 
BRANCH  21  22
HETATM   22  C   UNL     1      44.720 -10.240   9.570  1.00  0.00     0.231 C 
HETATM   23  N   UNL     1      43.612  -9.489   9.922  1.00  0.00    -0.327 N 
HETATM   24  H   UNL     1      43.162  -8.984   9.164  1.00  0.00     0.169 HD
HETATM   25  O   UNL     1      45.497 -10.793  10.343  1.00  0.00    -0.272 OA
BRANCH  23  26
HETATM   26  C   UNL     1      43.069  -9.296  11.205  1.00  0.00     0.034 A 
HETATM   27  C   UNL     1      41.990 -10.023  11.709  1.00  0.00     0.030 A 
HETATM   28  C   UNL     1      41.478  -9.738  12.979  1.00  0.00     0.009 A 
HETATM   29  C   UNL     1      42.034  -8.722  13.762  1.00  0.00    -0.062 A 
HETATM   30  C   UNL     1      41.488  -8.440  15.130  1.00  0.00     0.048 C 
HETATM   31  C   UNL     1      43.128  -8.008  13.265  1.00  0.00     0.009 A 
HETATM   32  C   UNL     1      43.636  -8.290  11.994  1.00  0.00     0.030 A 
ENDBRANCH  23  26
ENDBRANCH  21  22
ENDBRANCH  20  21
ENDBRANCH   6  20
BRANCH   2  33
HETATM   33  C   UNL     1      42.668 -16.230   5.000  1.00  0.00     0.255 C 
HETATM   34  N   UNL     1      43.780 -16.890   4.512  1.00  0.00    -0.323 N 
HETATM   35  H   UNL     1      44.666 -16.405   4.563  1.00  0.00     0.169 HD
HETATM   36  O   UNL     1      41.531 -16.679   5.029  1.00  0.00    -0.268 OA
BRANCH  34  37
HETATM   37  C   UNL     1      43.835 -18.236   4.083  1.00  0.00     0.035 A 
HETATM   38  C   UNL     1      43.624 -18.644   2.764  1.00  0.00     0.029 A 
HETATM   39  C   UNL     1      43.662 -19.999   2.422  1.00  0.00     0.002 A 
HETATM   40  C   UNL     1      43.905 -20.961   3.397  1.00  0.00     0.000 A 
HETATM   41  C   UNL     1      44.123 -20.568   4.714  1.00  0.00     0.002 A 
HETATM   42  C   UNL     1      44.099 -19.211   5.054  1.00  0.00     0.029 A 
ENDBRANCH  34  37
ENDBRANCH   2  33
TORSDOF 9
ENDMDL
MODEL 2
REMARK VINA RESULT:      -9.6      2.067      4.730
REMARK  9 active torsions:
REMARK  status: ('A' for Active; 'I' for Inactive)
REMARK    1  A    between atoms: C_2  and  O_3 
REMARK    2  A    between atoms: O_3  and  C_4 
REMARK    3  A    between atoms: C_5  and  C_6 
REMARK    4  A    between atoms: C_7  and  C_8 
REMARK       I    between atoms: C_8  and  N_9 
REMARK    5  A    between atoms: N_9  and  C_10 
REMARK    6  A    between atoms: C_20  and  S_21 
REMARK    7  A    between atoms: S_21  and  C_22 
REMARK    8  A    between atoms: C_22  and  C_23 
REMARK       I    between atoms: C_23  and  N_24 
REMARK    9  A    between atoms: N_24  and  C_25 
ROOT
HETATM    1  C   UNL     1      41.524 -13.495   4.566  1.00  0.00     0.107 C 
HETATM    2  C   UNL     1      41.015 -12.235   3.853  1.00  0.00     0.046 C 
HETATM    3  C   UNL     1      41.493 -11.015   4.197  1.00  0.00     0.019 C 
HETATM    4  C   UNL     1      41.239  -9.742   3.423  1.00  0.00     0.069 C 
HETATM    5  N   UNL     1      42.351 -10.881   5.282  1.00  0.00    -0.353 N 
HETATM    6  C   UNL     1      42.988 -11.937   5.916  1.00  0.00     0.087 C 
HETATM    7  C   UNL     1      42.609 -13.209   5.638  1.00  0.00     0.055 C 
HETATM    8  C   UNL     1      43.500 -14.389   5.992  1.00  0.00     0.019 C 
HETATM    9  N   UNL     1      44.238 -15.367   6.286  1.00  0.00    -0.096 N 
HETATM   10  H   UNL     1      42.889 -10.018   5.298  1.00  0.00     0.166 HD
ENDROOT
BRANCH   1  11
HETATM   11  C   UNL     1      42.018 -14.588   3.597  1.00  0.00    -0.011 A 
HETATM   12  C   UNL     1      41.386 -15.848   3.501  1.00  0.00     0.076 A 
HETATM   13  C   UNL     1      41.835 -16.779   2.559  1.00  0.00     0.037 A 
HETATM   14  C   UNL     1      42.894 -16.466   1.704  1.00  0.00     0.003 A 
HETATM   15  C   UNL     1      43.521 -15.228   1.790  1.00  0.00     0.001 A 
HETATM   16  C   UNL     1      43.089 -14.293   2.730  1.00  0.00     0.011 A 
BRANCH  12  17
HETATM   17  O   UNL     1      40.341 -16.067   4.361  1.00  0.00    -0.351 OA
BRANCH  17  18
HETATM   18  C   UNL     1      40.635 -16.691   5.609  1.00  0.00     0.171 C 
HETATM   19  C   UNL     1      40.070 -15.809   6.709  1.00  0.00     0.034 C 
ENDBRANCH  17  18
ENDBRANCH  12  17
ENDBRANCH   1  11
BRANCH   6  20
HETATM   20  S   UNL     1      44.427 -11.633   6.883  1.00  0.00    -0.102 SA
BRANCH  20  21
HETATM   21  C   UNL     1      44.024 -10.062   7.698  1.00  0.00     0.184 C 
BRANCH  21  22
HETATM   22  C   UNL     1      43.894 -10.190   9.207  1.00  0.00     0.231 C 
HETATM   23  N   UNL     1      43.240  -9.125   9.801  1.00  0.00    -0.327 N 
HETATM   24  H   UNL     1      43.128  -8.298   9.222  1.00  0.00     0.169 HD
HETATM   25  O   UNL     1      44.272 -11.215   9.769  1.00  0.00    -0.272 OA
BRANCH  23  26
HETATM   26  C   UNL     1      42.765  -9.029  11.121  1.00  0.00     0.034 A 
HETATM   27  C   UNL     1      41.598  -9.646  11.573  1.00  0.00     0.030 A 
HETATM   28  C   UNL     1      41.167  -9.463  12.891  1.00  0.00     0.009 A 
HETATM   29  C   UNL     1      41.892  -8.658  13.775  1.00  0.00    -0.062 A 
HETATM   30  C   UNL     1      41.429  -8.486  15.190  1.00  0.00     0.048 C 
HETATM   31  C   UNL     1      43.072  -8.057  13.328  1.00  0.00     0.009 A 
HETATM   32  C   UNL     1      43.500  -8.237  12.009  1.00  0.00     0.030 A 
ENDBRANCH  23  26
ENDBRANCH  21  22
ENDBRANCH  20  21
ENDBRANCH   6  20
BRANCH   2  33
HETATM   33  C   UNL     1      40.043 -12.423   2.724  1.00  0.00     0.255 C 
HETATM   34  N   UNL     1      40.645 -12.541   1.485  1.00  0.00    -0.323 N 
HETATM   35  H   UNL     1      41.656 -12.509   1.457  1.00  0.00     0.169 HD
HETATM   36  O   UNL     1      38.839 -12.459   2.934  1.00  0.00    -0.268 OA
BRANCH  34  37
HETATM   37  C   UNL     1      40.001 -12.852   0.266  1.00  0.00     0.035 A 
HETATM   38  C   UNL     1      39.320 -11.918  -0.518  1.00  0.00     0.029 A 
HETATM   39  C   UNL     1      38.680 -12.308  -1.697  1.00  0.00     0.002 A 
HETATM   40  C   UNL     1      38.707 -13.638  -2.102  1.00  0.00     0.000 A 
HETATM   41  C   UNL     1      39.387 -14.579  -1.334  1.00  0.00     0.002 A 
HETATM   42  C   UNL     1      40.040 -14.186  -0.161  1.00  0.00     0.029 A 
ENDBRANCH  34  37
ENDBRANCH   2  33
TORSDOF 9
ENDMDL
MODEL 3
REMARK VINA RESULT:      -9.0      4.245      8.708
REMARK  9 active torsions:
REMARK  status: ('A' for Active; 'I' for Inactive)
REMARK    1  A    between atoms: C_2  and  O_3 
REMARK    2  A    between atoms: O_3  and  C_4 
REMARK    3  A    between atoms: C_5  and  C_6 
REMARK    4  A    between atoms: C_7  and  C_8 
REMARK       I    between atoms: C_8  and  N_9 
REMARK    5  A    between atoms: N_9  and  C_10 
REMARK    6  A    between atoms: C_20  and  S_21 
REMARK    7  A    between atoms: S_21  and  C_22 
REMARK    8  A    between atoms: C_22  and  C_23 
REMARK       I    between atoms: C_23  and  N_24 
REMARK    9  A    between atoms: N_24  and  C_25 
ROOT
HETATM    1  C   UNL     1      40.606 -13.414   3.525  1.00  0.00     0.107 C 
HETATM    2  C   UNL     1      40.908 -14.212   2.249  1.00  0.00     0.046 C 
HETATM    3  C   UNL     1      40.221 -13.964   1.109  1.00  0.00     0.019 C 
HETATM    4  C   UNL     1      40.580 -14.520  -0.250  1.00  0.00     0.069 C 
HETATM    5  N   UNL     1      39.151 -13.078   1.116  1.00  0.00    -0.353 N 
HETATM    6  C   UNL     1      38.864 -12.200   2.151  1.00  0.00     0.087 C 
HETATM    7  C   UNL     1      39.505 -12.336   3.339  1.00  0.00     0.055 C 
HETATM    8  C   UNL     1      39.524 -11.206   4.354  1.00  0.00     0.019 C 
HETATM    9  N   UNL     1      39.539 -10.268   5.197  1.00  0.00    -0.096 N 
HETATM   10  H   UNL     1      38.883 -12.722   0.202  1.00  0.00     0.166 HD
ENDROOT
BRANCH   1  11
HETATM   11  C   UNL     1      41.859 -12.780   4.160  1.00  0.00    -0.011 A 
HETATM   12  C   UNL     1      42.193 -12.976   5.520  1.00  0.00     0.076 A 
HETATM   13  C   UNL     1      43.375 -12.432   6.030  1.00  0.00     0.037 A 
HETATM   14  C   UNL     1      44.235 -11.707   5.201  1.00  0.00     0.003 A 
HETATM   15  C   UNL     1      43.917 -11.512   3.862  1.00  0.00     0.001 A 
HETATM   16  C   UNL     1      42.737 -12.041   3.342  1.00  0.00     0.011 A 
BRANCH  12  17
HETATM   17  O   UNL     1      41.306 -13.716   6.259  1.00  0.00    -0.351 OA
BRANCH  17  18
HETATM   18  C   UNL     1      41.702 -15.031   6.641  1.00  0.00     0.171 C 
HETATM   19  C   UNL     1      40.504 -15.945   6.456  1.00  0.00     0.034 C 
ENDBRANCH  17  18
ENDBRANCH  12  17
ENDBRANCH   1  11
BRANCH   6  20
HETATM   20  S   UNL     1      37.860 -10.787   1.843  1.00  0.00    -0.102 SA
BRANCH  20  21
HETATM   21  C   UNL     1      37.793 -10.744   0.030  1.00  0.00     0.184 C 
BRANCH  21  22
HETATM   22  C   UNL     1      38.598  -9.602  -0.569  1.00  0.00     0.231 C 
HETATM   23  N   UNL     1      39.779 -10.007  -1.164  1.00  0.00    -0.327 N 
HETATM   24  H   UNL     1      40.083 -10.951  -0.944  1.00  0.00     0.169 HD
HETATM   25  O   UNL     1      38.137  -8.463  -0.571  1.00  0.00    -0.272 OA
BRANCH  23  26
HETATM   26  C   UNL     1      40.636  -9.254  -1.987  1.00  0.00     0.034 A 
HETATM   27  C   UNL     1      41.723  -8.521  -1.511  1.00  0.00     0.030 A 
HETATM   28  C   UNL     1      42.499  -7.758  -2.390  1.00  0.00     0.009 A 
HETATM   29  C   UNL     1      42.200  -7.714  -3.755  1.00  0.00    -0.062 A 
HETATM   30  C   UNL     1      43.051  -6.908  -4.689  1.00  0.00     0.048 C 
HETATM   31  C   UNL     1      41.123  -8.466  -4.235  1.00  0.00     0.009 A 
HETATM   32  C   UNL     1      40.344  -9.224  -3.355  1.00  0.00     0.030 A 
ENDBRANCH  23  26
ENDBRANCH  21  22
ENDBRANCH  20  21
ENDBRANCH   6  20
BRANCH   2  33
HETATM   33  C   UNL     1      42.036 -15.203   2.304  1.00  0.00     0.255 C 
HETATM   34  N   UNL     1      41.777 -16.296   3.110  1.00  0.00    -0.323 N 
HETATM   35  H   UNL     1      40.872 -16.335   3.560  1.00  0.00     0.169 HD
HETATM   36  O   UNL     1      43.068 -15.012   1.676  1.00  0.00    -0.268 OA
BRANCH  34  37
HETATM   37  C   UNL     1      42.591 -17.442   3.254  1.00  0.00     0.035 A 
HETATM   38  C   UNL     1      43.425 -17.675   4.349  1.00  0.00     0.029 A 
HETATM   39  C   UNL     1      44.226 -18.819   4.406  1.00  0.00     0.002 A 
HETATM   40  C   UNL     1      44.206 -19.740   3.363  1.00  0.00     0.000 A 
HETATM   41  C   UNL     1      43.374 -19.524   2.268  1.00  0.00     0.002 A 
HETATM   42  C   UNL     1      42.562 -18.386   2.218  1.00  0.00     0.029 A 
ENDBRANCH  34  37
ENDBRANCH   2  33
TORSDOF 9
ENDMDL
MODEL 4
REMARK VINA RESULT:      -9.0      2.926     10.253
REMARK  9 active torsions:
REMARK  status: ('A' for Active; 'I' for Inactive)
REMARK    1  A    between atoms: C_2  and  O_3 
REMARK    2  A    between atoms: O_3  and  C_4 
REMARK    3  A    between atoms: C_5  and  C_6 
REMARK    4  A    between atoms: C_7  and  C_8 
REMARK       I    between atoms: C_8  and  N_9 
REMARK    5  A    between atoms: N_9  and  C_10 
REMARK    6  A    between atoms: C_20  and  S_21 
REMARK    7  A    between atoms: S_21  and  C_22 
REMARK    8  A    between atoms: C_22  and  C_23 
REMARK       I    between atoms: C_23  and  N_24 
REMARK    9  A    between atoms: N_24  and  C_25 
ROOT
HETATM    1  C   UNL     1      41.668  -9.338   8.199  1.00  0.00     0.107 C 
HETATM    2  C   UNL     1      42.870  -9.377   9.151  1.00  0.00     0.046 C 
HETATM    3  C   UNL     1      43.960 -10.121   8.847  1.00  0.00     0.019 C 
HETATM    4  C   UNL     1      45.277 -10.061   9.586  1.00  0.00     0.069 C 
HETATM    5  N   UNL     1      43.949 -10.954   7.735  1.00  0.00    -0.353 N 
HETATM    6  C   UNL     1      42.995 -10.910   6.729  1.00  0.00     0.087 C 
HETATM    7  C   UNL     1      41.866 -10.181   6.910  1.00  0.00     0.055 C 
HETATM    8  C   UNL     1      40.988  -9.786   5.734  1.00  0.00     0.019 C 
HETATM    9  N   UNL     1      40.259  -9.460   4.759  1.00  0.00    -0.096 N 
HETATM   10  H   UNL     1      44.867 -11.241   7.405  1.00  0.00     0.166 HD
ENDROOT
BRANCH   1  11
HETATM   11  C   UNL     1      41.229  -7.907   7.827  1.00  0.00    -0.011 A 
HETATM   12  C   UNL     1      40.018  -7.348   8.296  1.00  0.00     0.076 A 
HETATM   13  C   UNL     1      39.699  -6.023   7.983  1.00  0.00     0.037 A 
HETATM   14  C   UNL     1      40.574  -5.246   7.221  1.00  0.00     0.003 A 
HETATM   15  C   UNL     1      41.769  -5.787   6.758  1.00  0.00     0.001 A 
HETATM   16  C   UNL     1      42.096  -7.109   7.056  1.00  0.00     0.011 A 
BRANCH  12  17
HETATM   17  O   UNL     1      39.226  -8.171   9.054  1.00  0.00    -0.351 OA
BRANCH  17  18
HETATM   18  C   UNL     1      38.358  -7.559  10.005  1.00  0.00     0.171 C 
HETATM   19  C   UNL     1      39.103  -7.482  11.326  1.00  0.00     0.034 C 
ENDBRANCH  17  18
ENDBRANCH  12  17
ENDBRANCH   1  11
BRANCH   6  20
HETATM   20  S   UNL     1      43.360 -11.598   5.150  1.00  0.00    -0.102 SA
BRANCH  20  21
HETATM   21  C   UNL     1      42.416 -13.148   5.172  1.00  0.00     0.184 C 
BRANCH  21  22
HETATM   22  C   UNL     1      42.928 -14.171   4.172  1.00  0.00     0.231 C 
HETATM   23  N   UNL     1      42.927 -15.468   4.654  1.00  0.00    -0.327 N 
HETATM   24  H   UNL     1      42.809 -15.566   5.658  1.00  0.00     0.169 HD
HETATM   25  O   UNL     1      43.211 -13.822   3.029  1.00  0.00    -0.272 OA
BRANCH  23  26
HETATM   26  C   UNL     1      43.126 -16.660   3.933  1.00  0.00     0.034 A 
HETATM   27  C   UNL     1      42.421 -16.993   2.776  1.00  0.00     0.030 A 
HETATM   28  C   UNL     1      42.643 -18.220   2.143  1.00  0.00     0.009 A 
HETATM   29  C   UNL     1      43.569 -19.133   2.658  1.00  0.00    -0.062 A 
HETATM   30  C   UNL     1      43.812 -20.437   1.959  1.00  0.00     0.048 C 
HETATM   31  C   UNL     1      44.290 -18.790   3.805  1.00  0.00     0.009 A 
HETATM   32  C   UNL     1      44.064 -17.565   4.440  1.00  0.00     0.030 A 
ENDBRANCH  23  26
ENDBRANCH  21  22
ENDBRANCH  20  21
ENDBRANCH   6  20
BRANCH   2  33
HETATM   33  C   UNL     1      42.814  -8.504  10.373  1.00  0.00     0.255 C 
HETATM   34  N   UNL     1      42.345  -9.154  11.499  1.00  0.00    -0.323 N 
HETATM   35  H   UNL     1      42.107 -10.132  11.404  1.00  0.00     0.169 HD
HETATM   36  O   UNL     1      43.160  -7.333  10.321  1.00  0.00    -0.268 OA
BRANCH  34  37
HETATM   37  C   UNL     1      42.302  -8.631  12.812  1.00  0.00     0.035 A 
HETATM   38  C   UNL     1      41.353  -8.999  13.768  1.00  0.00     0.029 A 
HETATM   39  C   UNL     1      41.355  -8.413  15.037  1.00  0.00     0.002 A 
HETATM   40  C   UNL     1      42.302  -7.447  15.361  1.00  0.00     0.000 A 
HETATM   41  C   UNL     1      43.258  -7.076  14.419  1.00  0.00     0.002 A 
HETATM   42  C   UNL     1      43.265  -7.672  13.154  1.00  0.00     0.029 A 
ENDBRANCH  34  37
ENDBRANCH   2  33
TORSDOF 9
ENDMDL
MODEL 5
REMARK VINA RESULT:      -8.6      1.821      2.203
REMARK  9 active torsions:
REMARK  status: ('A' for Active; 'I' for Inactive)
REMARK    1  A    between atoms: C_2  and  O_3 
REMARK    2  A    between atoms: O_3  and  C_4 
REMARK    3  A    between atoms: C_5  and  C_6 
REMARK    4  A    between atoms: C_7  and  C_8 
REMARK       I    between atoms: C_8  and  N_9 
REMARK    5  A    between atoms: N_9  and  C_10 
REMARK    6  A    between atoms: C_20  and  S_21 
REMARK    7  A    between atoms: S_21  and  C_22 
REMARK    8  A    between atoms: C_22  and  C_23 
REMARK       I    between atoms: C_23  and  N_24 
REMARK    9  A    between atoms: N_24  and  C_25 
ROOT
HETATM    1  C   UNL     1      43.457 -14.054   4.520  1.00  0.00     0.107 C 
HETATM    2  C   UNL     1      43.633 -14.922   5.773  1.00  0.00     0.046 C 
HETATM    3  C   UNL     1      43.242 -14.461   6.985  1.00  0.00     0.019 C 
HETATM    4  C   UNL     1      43.158 -15.301   8.239  1.00  0.00     0.069 C 
HETATM    5  N   UNL     1      42.797 -13.153   7.124  1.00  0.00    -0.353 N 
HETATM    6  C   UNL     1      42.463 -12.319   6.068  1.00  0.00     0.087 C 
HETATM    7  C   UNL     1      42.786 -12.683   4.802  1.00  0.00     0.055 C 
HETATM    8  C   UNL     1      42.125 -12.024   3.603  1.00  0.00     0.019 C 
HETATM    9  N   UNL     1      41.578 -11.476   2.608  1.00  0.00    -0.096 N 
HETATM   10  H   UNL     1      42.255 -12.972   7.966  1.00  0.00     0.166 HD
ENDROOT
BRANCH   1  11
HETATM   11  C   UNL     1      42.716 -14.775   3.376  1.00  0.00    -0.011 A 
HETATM   12  C   UNL     1      41.384 -15.229   3.512  1.00  0.00     0.076 A 
HETATM   13  C   UNL     1      40.738 -15.818   2.422  1.00  0.00     0.037 A 
HETATM   14  C   UNL     1      41.394 -15.949   1.196  1.00  0.00     0.003 A 
HETATM   15  C   UNL     1      42.704 -15.503   1.052  1.00  0.00     0.001 A 
HETATM   16  C   UNL     1      43.364 -14.921   2.134  1.00  0.00     0.011 A 
BRANCH  12  17
HETATM   17  O   UNL     1      40.806 -15.044   4.741  1.00  0.00    -0.351 OA
BRANCH  17  18
HETATM   18  C   UNL     1      40.212 -16.178   5.368  1.00  0.00     0.171 C 
HETATM   19  C   UNL     1      39.916 -15.806   6.810  1.00  0.00     0.034 C 
ENDBRANCH  17  18
ENDBRANCH  12  17
ENDBRANCH   1  11
BRANCH   6  20
HETATM   20  S   UNL     1      41.423 -10.926   6.351  1.00  0.00    -0.102 SA
BRANCH  20  21
HETATM   21  C   UNL     1      42.507  -9.816   7.293  1.00  0.00     0.184 C 
BRANCH  21  22
HETATM   22  C   UNL     1      41.864  -9.301   8.571  1.00  0.00     0.231 C 
HETATM   23  N   UNL     1      42.340  -9.911   9.718  1.00  0.00    -0.327 N 
HETATM   24  H   UNL     1      42.875 -10.763   9.575  1.00  0.00     0.169 HD
HETATM   25  O   UNL     1      41.073  -8.363   8.523  1.00  0.00    -0.272 OA
BRANCH  23  26
HETATM   26  C   UNL     1      42.126  -9.529  11.055  1.00  0.00     0.034 A 
HETATM   27  C   UNL     1      42.778 -10.111  12.142  1.00  0.00     0.030 A 
HETATM   28  C   UNL     1      42.475  -9.706  13.446  1.00  0.00     0.009 A 
HETATM   29  C   UNL     1      41.513  -8.719  13.683  1.00  0.00    -0.062 A 
HETATM   30  C   UNL     1      41.211  -8.281  15.084  1.00  0.00     0.048 C 
HETATM   31  C   UNL     1      40.875  -8.122  12.592  1.00  0.00     0.009 A 
HETATM   32  C   UNL     1      41.176  -8.530  11.289  1.00  0.00     0.030 A 
ENDBRANCH  23  26
ENDBRANCH  21  22
ENDBRANCH  20  21
ENDBRANCH   6  20
BRANCH   2  33
HETATM   33  C   UNL     1      44.173 -16.311   5.582  1.00  0.00     0.255 C 
HETATM   34  N   UNL     1      43.249 -17.201   5.068  1.00  0.00    -0.323 N 
HETATM   35  H   UNL     1      42.328 -16.842   4.858  1.00  0.00     0.169 HD
HETATM   36  O   UNL     1      45.331 -16.577   5.873  1.00  0.00    -0.268 OA
BRANCH  34  37
HETATM   37  C   UNL     1      43.502 -18.533   4.666  1.00  0.00     0.035 A 
HETATM   38  C   UNL     1      43.713 -19.590   5.554  1.00  0.00     0.029 A 
HETATM   39  C   UNL     1      43.989 -20.876   5.079  1.00  0.00     0.002 A 
HETATM   40  C   UNL     1      44.065 -21.116   3.711  1.00  0.00     0.000 A 
HETATM   41  C   UNL     1      43.851 -20.072   2.815  1.00  0.00     0.002 A 
HETATM   42  C   UNL     1      43.560 -18.788   3.289  1.00  0.00     0.029 A 
ENDBRANCH  34  37
ENDBRANCH   2  33
TORSDOF 9
ENDMDL
MODEL 6
REMARK VINA RESULT:      -8.5      2.852      9.322
REMARK  9 active torsions:
REMARK  status: ('A' for Active; 'I' for Inactive)
REMARK    1  A    between atoms: C_2  and  O_3 
REMARK    2  A    between atoms: O_3  and  C_4 
REMARK    3  A    between atoms: C_5  and  C_6 
REMARK    4  A    between atoms: C_7  and  C_8 
REMARK       I    between atoms: C_8  and  N_9 
REMARK    5  A    between atoms: N_9  and  C_10 
REMARK    6  A    between atoms: C_20  and  S_21 
REMARK    7  A    between atoms: S_21  and  C_22 
REMARK    8  A    between atoms: C_22  and  C_23 
REMARK       I    between atoms: C_23  and  N_24 
REMARK    9  A    between atoms: N_24  and  C_25 
ROOT
HETATM    1  C   UNL     1      40.588 -10.053   6.195  1.00  0.00     0.107 C 
HETATM    2  C   UNL     1      41.913 -10.593   6.749  1.00  0.00     0.046 C 
HETATM    3  C   UNL     1      42.483 -11.695   6.206  1.00  0.00     0.019 C 
HETATM    4  C   UNL     1      43.880 -12.183   6.514  1.00  0.00     0.069 C 
HETATM    5  N   UNL     1      41.811 -12.419   5.229  1.00  0.00    -0.353 N 
HETATM    6  C   UNL     1      40.687 -11.971   4.550  1.00  0.00     0.087 C 
HETATM    7  C   UNL     1      40.040 -10.863   4.989  1.00  0.00     0.055 C 
HETATM    8  C   UNL     1      39.066 -10.116   4.094  1.00  0.00     0.019 C 
HETATM    9  N   UNL     1      38.256  -9.498   3.351  1.00  0.00    -0.096 N 
HETATM   10  H   UNL     1      42.398 -13.034   4.671  1.00  0.00     0.166 HD
ENDROOT
BRANCH   1  11
HETATM   11  C   UNL     1      40.641  -8.553   5.839  1.00  0.00    -0.011 A 
HETATM   12  C   UNL     1      40.023  -7.568   6.643  1.00  0.00     0.076 A 
HETATM   13  C   UNL     1      40.156  -6.217   6.310  1.00  0.00     0.037 A 
HETATM   14  C   UNL     1      40.907  -5.834   5.196  1.00  0.00     0.003 A 
HETATM   15  C   UNL     1      41.521  -6.796   4.401  1.00  0.00     0.001 A 
HETATM   16  C   UNL     1      41.388  -8.147   4.716  1.00  0.00     0.011 A 
BRANCH  12  17
HETATM   17  O   UNL     1      39.323  -8.027   7.729  1.00  0.00    -0.351 OA
BRANCH  17  18
HETATM   18  C   UNL     1      38.631  -7.066   8.522  1.00  0.00     0.171 C 
HETATM   19  C   UNL     1      38.714  -7.516   9.969  1.00  0.00     0.034 C 
ENDBRANCH  17  18
ENDBRANCH  12  17
ENDBRANCH   1  11
BRANCH   6  20
HETATM   20  S   UNL     1      40.255 -12.695   3.005  1.00  0.00    -0.102 SA
BRANCH  20  21
HETATM   21  C   UNL     1      41.811 -13.474   2.490  1.00  0.00     0.184 C 
BRANCH  21  22
HETATM   22  C   UNL     1      41.827 -14.977   2.716  1.00  0.00     0.231 C 
HETATM   23  N   UNL     1      43.083 -15.482   3.005  1.00  0.00    -0.327 N 
HETATM   24  H   UNL     1      43.863 -14.860   2.814  1.00  0.00     0.169 HD
HETATM   25  O   UNL     1      40.773 -15.607   2.721  1.00  0.00    -0.272 OA
BRANCH  23  26
HETATM   26  C   UNL     1      43.412 -16.767   3.474  1.00  0.00     0.034 A 
HETATM   27  C   UNL     1      43.575 -17.877   2.645  1.00  0.00     0.030 A 
HETATM   28  C   UNL     1      43.855 -19.133   3.194  1.00  0.00     0.009 A 
HETATM   29  C   UNL     1      43.974 -19.298   4.577  1.00  0.00    -0.062 A 
HETATM   30  C   UNL     1      44.294 -20.645   5.152  1.00  0.00     0.048 C 
HETATM   31  C   UNL     1      43.831 -18.181   5.406  1.00  0.00     0.009 A 
HETATM   32  C   UNL     1      43.546 -16.927   4.857  1.00  0.00     0.030 A 
ENDBRANCH  23  26
ENDBRANCH  21  22
ENDBRANCH  20  21
ENDBRANCH   6  20
BRANCH   2  33
HETATM   33  C   UNL     1      42.576  -9.809   7.846  1.00  0.00     0.255 C 
HETATM   34  N   UNL     1      41.804  -9.689   8.987  1.00  0.00    -0.323 N 
HETATM   35  H   UNL     1      40.900 -10.141   8.984  1.00  0.00     0.169 HD
HETATM   36  O   UNL     1      43.694  -9.340   7.692  1.00  0.00    -0.268 OA
BRANCH  34  37
HETATM   37  C   UNL     1      42.209  -9.122  10.216  1.00  0.00     0.035 A 
HETATM   38  C   UNL     1      42.232  -7.749  10.474  1.00  0.00     0.029 A 
HETATM   39  C   UNL     1      42.677  -7.262  11.706  1.00  0.00     0.002 A 
HETATM   40  C   UNL     1      43.111  -8.142  12.692  1.00  0.00     0.000 A 
HETATM   41  C   UNL     1      43.087  -9.513  12.451  1.00  0.00     0.002 A 
HETATM   42  C   UNL     1      42.629 -10.001  11.223  1.00  0.00     0.029 A 
ENDBRANCH  34  37
ENDBRANCH   2  33
TORSDOF 9
ENDMDL
MODEL 7
REMARK VINA RESULT:      -8.5      5.911      9.736
REMARK  9 active torsions:
REMARK  status: ('A' for Active; 'I' for Inactive)
REMARK    1  A    between atoms: C_2  and  O_3 
REMARK    2  A    between atoms: O_3  and  C_4 
REMARK    3  A    between atoms: C_5  and  C_6 
REMARK    4  A    between atoms: C_7  and  C_8 
REMARK       I    between atoms: C_8  and  N_9 
REMARK    5  A    between atoms: N_9  and  C_10 
REMARK    6  A    between atoms: C_20  and  S_21 
REMARK    7  A    between atoms: S_21  and  C_22 
REMARK    8  A    between atoms: C_22  and  C_23 
REMARK       I    between atoms: C_23  and  N_24 
REMARK    9  A    between atoms: N_24  and  C_25 
ROOT
HETATM    1  C   UNL     1      41.308 -11.743  -0.840  1.00  0.00     0.107 C 
HETATM    2  C   UNL     1      41.444 -11.844   0.685  1.00  0.00     0.046 C 
HETATM    3  C   UNL     1      41.554 -10.723   1.437  1.00  0.00     0.019 C 
HETATM    4  C   UNL     1      41.468 -10.687   2.945  1.00  0.00     0.069 C 
HETATM    5  N   UNL     1      41.671  -9.480   0.826  1.00  0.00    -0.353 N 
HETATM    6  C   UNL     1      41.427  -9.238  -0.517  1.00  0.00     0.087 C 
HETATM    7  C   UNL     1      41.280 -10.284  -1.368  1.00  0.00     0.055 C 
HETATM    8  C   UNL     1      40.643 -10.099  -2.736  1.00  0.00     0.019 C 
HETATM    9  N   UNL     1      40.116  -9.946  -3.871  1.00  0.00    -0.096 N 
HETATM   10  H   UNL     1      41.453  -8.687   1.424  1.00  0.00     0.166 HD
ENDROOT
BRANCH   1  11
HETATM   11  C   UNL     1      40.102 -12.526  -1.399  1.00  0.00    -0.011 A 
HETATM   12  C   UNL     1      38.772 -12.219  -1.033  1.00  0.00     0.076 A 
HETATM   13  C   UNL     1      37.712 -12.917  -1.619  1.00  0.00     0.037 A 
HETATM   14  C   UNL     1      37.959 -13.907  -2.573  1.00  0.00     0.003 A 
HETATM   15  C   UNL     1      39.265 -14.215  -2.941  1.00  0.00     0.001 A 
HETATM   16  C   UNL     1      40.331 -13.532  -2.358  1.00  0.00     0.011 A 
BRANCH  12  17
HETATM   17  O   UNL     1      38.616 -11.220  -0.106  1.00  0.00    -0.351 OA
BRANCH  17  18
HETATM   18  C   UNL     1      37.722 -11.460   0.977  1.00  0.00     0.171 C 
HETATM   19  C   UNL     1      37.895 -10.331   1.978  1.00  0.00     0.034 C 
ENDBRANCH  17  18
ENDBRANCH  12  17
ENDBRANCH   1  11
BRANCH   6  20
HETATM   20  S   UNL     1      41.076  -7.599  -1.059  1.00  0.00    -0.102 SA
BRANCH  20  21
HETATM   21  C   UNL     1      39.432  -7.299  -0.352  1.00  0.00     0.184 C 
BRANCH  21  22
HETATM   22  C   UNL     1      38.306  -7.531  -1.346  1.00  0.00     0.231 C 
HETATM   23  N   UNL     1      37.661  -8.744  -1.183  1.00  0.00    -0.327 N 
HETATM   24  H   UNL     1      38.136  -9.421  -0.593  1.00  0.00     0.169 HD
HETATM   25  O   UNL     1      37.991  -6.641  -2.133  1.00  0.00    -0.272 OA
BRANCH  23  26
HETATM   26  C   UNL     1      36.460  -9.172  -1.777  1.00  0.00     0.034 A 
HETATM   27  C   UNL     1      35.207  -9.041  -1.177  1.00  0.00     0.030 A 
HETATM   28  C   UNL     1      34.064  -9.536  -1.813  1.00  0.00     0.009 A 
HETATM   29  C   UNL     1      34.155 -10.172  -3.054  1.00  0.00    -0.062 A 
HETATM   30  C   UNL     1      32.920 -10.681  -3.734  1.00  0.00     0.048 C 
HETATM   31  C   UNL     1      35.408 -10.285  -3.665  1.00  0.00     0.009 A 
HETATM   32  C   UNL     1      36.551  -9.794  -3.026  1.00  0.00     0.030 A 
ENDBRANCH  23  26
ENDBRANCH  21  22
ENDBRANCH  20  21
ENDBRANCH   6  20
BRANCH   2  33
HETATM   33  C   UNL     1      41.370 -13.214   1.297  1.00  0.00     0.255 C 
HETATM   34  N   UNL     1      42.604 -13.811   1.472  1.00  0.00    -0.323 N 
HETATM   35  H   UNL     1      43.420 -13.280   1.196  1.00  0.00     0.169 HD
HETATM   36  O   UNL     1      40.292 -13.709   1.593  1.00  0.00    -0.268 OA
BRANCH  34  37
HETATM   37  C   UNL     1      42.857 -15.034   2.135  1.00  0.00     0.035 A 
HETATM   38  C   UNL     1      42.994 -16.262   1.484  1.00  0.00     0.029 A 
HETATM   39  C   UNL     1      43.211 -17.435   2.212  1.00  0.00     0.002 A 
HETATM   40  C   UNL     1      43.286 -17.394   3.600  1.00  0.00     0.000 A 
HETATM   41  C   UNL     1      43.158 -16.176   4.262  1.00  0.00     0.002 A 
HETATM   42  C   UNL     1      42.955 -15.000   3.533  1.00  0.00     0.029 A 
ENDBRANCH  34  37
ENDBRANCH   2  33
TORSDOF 9
ENDMDL
MODEL 8
REMARK VINA RESULT:      -8.5      4.321      7.893
REMARK  9 active torsions:
REMARK  status: ('A' for Active; 'I' for Inactive)
REMARK    1  A    between atoms: C_2  and  O_3 
REMARK    2  A    between atoms: O_3  and  C_4 
REMARK    3  A    between atoms: C_5  and  C_6 
REMARK    4  A    between atoms: C_7  and  C_8 
REMARK       I    between atoms: C_8  and  N_9 
REMARK    5  A    between atoms: N_9  and  C_10 
REMARK    6  A    between atoms: C_20  and  S_21 
REMARK    7  A    between atoms: S_21  and  C_22 
REMARK    8  A    between atoms: C_22  and  C_23 
REMARK       I    between atoms: C_23  and  N_24 
REMARK    9  A    between atoms: N_24  and  C_25 
ROOT
HETATM    1  C   UNL     1      40.097 -12.805   3.523  1.00  0.00     0.107 C 
HETATM    2  C   UNL     1      40.205 -13.853   2.407  1.00  0.00     0.046 C 
HETATM    3  C   UNL     1      39.901 -13.524   1.129  1.00  0.00     0.019 C 
HETATM    4  C   UNL     1      40.182 -14.395  -0.074  1.00  0.00     0.069 C 
HETATM    5  N   UNL     1      39.367 -12.275   0.837  1.00  0.00    -0.353 N 
HETATM    6  C   UNL     1      39.348 -11.203   1.716  1.00  0.00     0.087 C 
HETATM    7  C   UNL     1      39.654 -11.404   3.022  1.00  0.00     0.055 C 
HETATM    8  C   UNL     1      40.021 -10.243   3.930  1.00  0.00     0.019 C 
HETATM    9  N   UNL     1      40.325  -9.279   4.685  1.00  0.00    -0.096 N 
HETATM   10  H   UNL     1      39.442 -11.995  -0.138  1.00  0.00     0.166 HD
ENDROOT
BRANCH   1  11
HETATM   11  C   UNL     1      41.380 -12.678   4.369  1.00  0.00    -0.011 A 
HETATM   12  C   UNL     1      41.514 -13.303   5.630  1.00  0.00     0.076 A 
HETATM   13  C   UNL     1      42.723 -13.210   6.325  1.00  0.00     0.037 A 
HETATM   14  C   UNL     1      43.803 -12.515   5.777  1.00  0.00     0.003 A 
HETATM   15  C   UNL     1      43.682 -11.899   4.536  1.00  0.00     0.001 A 
HETATM   16  C   UNL     1      42.479 -11.977   3.835  1.00  0.00     0.011 A 
BRANCH  12  17
HETATM   17  O   UNL     1      40.414 -13.982   6.086  1.00  0.00    -0.351 OA
BRANCH  17  18
HETATM   18  C   UNL     1      40.639 -15.116   6.921  1.00  0.00     0.171 C 
HETATM   19  C   UNL     1      40.043 -16.326   6.226  1.00  0.00     0.034 C 
ENDBRANCH  17  18
ENDBRANCH  12  17
ENDBRANCH   1  11
BRANCH   6  20
HETATM   20  S   UNL     1      39.162  -9.567   1.092  1.00  0.00    -0.102 SA
BRANCH  20  21
HETATM   21  C   UNL     1      39.984  -9.669  -0.522  1.00  0.00     0.184 C 
BRANCH  21  22
HETATM   22  C   UNL     1      41.313  -8.931  -0.560  1.00  0.00     0.231 C 
HETATM   23  N   UNL     1      41.190  -7.580  -0.832  1.00  0.00    -0.327 N 
HETATM   24  H   UNL     1      40.287  -7.282  -1.191  1.00  0.00     0.169 HD
HETATM   25  O   UNL     1      42.351  -9.522  -0.274  1.00  0.00    -0.272 OA
BRANCH  23  26
HETATM   26  C   UNL     1      42.176  -6.582  -0.726  1.00  0.00     0.034 A 
HETATM   27  C   UNL     1      42.123  -5.534   0.192  1.00  0.00     0.030 A 
HETATM   28  C   UNL     1      43.121  -4.553   0.203  1.00  0.00     0.009 A 
HETATM   29  C   UNL     1      44.182  -4.604  -0.706  1.00  0.00    -0.062 A 
HETATM   30  C   UNL     1      45.255  -3.558  -0.671  1.00  0.00     0.048 C 
HETATM   31  C   UNL     1      44.246  -5.666  -1.612  1.00  0.00     0.009 A 
HETATM   32  C   UNL     1      43.246  -6.643  -1.625  1.00  0.00     0.030 A 
ENDBRANCH  23  26
ENDBRANCH  21  22
ENDBRANCH  20  21
ENDBRANCH   6  20
BRANCH   2  33
HETATM   33  C   UNL     1      40.733 -15.209   2.780  1.00  0.00     0.255 C 
HETATM   34  N   UNL     1      42.111 -15.265   2.866  1.00  0.00    -0.323 N 
HETATM   35  H   UNL     1      42.621 -14.410   2.693  1.00  0.00     0.169 HD
HETATM   36  O   UNL     1      39.969 -16.145   2.976  1.00  0.00    -0.268 OA
BRANCH  34  37
HETATM   37  C   UNL     1      42.878 -16.363   3.318  1.00  0.00     0.035 A 
HETATM   38  C   UNL     1      43.476 -16.433   4.578  1.00  0.00     0.029 A 
HETATM   39  C   UNL     1      44.248 -17.540   4.942  1.00  0.00     0.002 A 
HETATM   40  C   UNL     1      44.438 -18.586   4.045  1.00  0.00     0.000 A 
HETATM   41  C   UNL     1      43.843 -18.533   2.787  1.00  0.00     0.002 A 
HETATM   42  C   UNL     1      43.058 -17.431   2.429  1.00  0.00     0.029 A 
ENDBRANCH  34  37
ENDBRANCH   2  33
TORSDOF 9
ENDMDL
MODEL 9
REMARK VINA RESULT:      -8.4      2.938      5.724
REMARK  9 active torsions:
REMARK  status: ('A' for Active; 'I' for Inactive)
REMARK    1  A    between atoms: C_2  and  O_3 
REMARK    2  A    between atoms: O_3  and  C_4 
REMARK    3  A    between atoms: C_5  and  C_6 
REMARK    4  A    between atoms: C_7  and  C_8 
REMARK       I    between atoms: C_8  and  N_9 
REMARK    5  A    between atoms: N_9  and  C_10 
REMARK    6  A    between atoms: C_20  and  S_21 
REMARK    7  A    between atoms: S_21  and  C_22 
REMARK    8  A    between atoms: C_22  and  C_23 
REMARK       I    between atoms: C_23  and  N_24 
REMARK    9  A    between atoms: N_24  and  C_25 
ROOT
HETATM    1  C   UNL     1      40.050 -13.203   3.176  1.00  0.00     0.107 C 
HETATM    2  C   UNL     1      40.234 -12.099   2.125  1.00  0.00     0.046 C 
HETATM    3  C   UNL     1      40.481 -10.824   2.509  1.00  0.00     0.019 C 
HETATM    4  C   UNL     1      40.898  -9.710   1.577  1.00  0.00     0.069 C 
HETATM    5  N   UNL     1      40.444 -10.480   3.855  1.00  0.00    -0.353 N 
HETATM    6  C   UNL     1      40.427 -11.391   4.900  1.00  0.00     0.087 C 
HETATM    7  C   UNL     1      40.208 -12.704   4.638  1.00  0.00     0.055 C 
HETATM    8  C   UNL     1      40.553 -13.777   5.657  1.00  0.00     0.019 C 
HETATM    9  N   UNL     1      40.839 -14.667   6.503  1.00  0.00    -0.096 N 
HETATM   10  H   UNL     1      40.918  -9.610   4.088  1.00  0.00     0.166 HD
ENDROOT
BRANCH   1  11
HETATM   11  C   UNL     1      40.956 -14.428   2.940  1.00  0.00    -0.011 A 
HETATM   12  C   UNL     1      42.366 -14.328   2.924  1.00  0.00     0.076 A 
HETATM   13  C   UNL     1      43.141 -15.482   2.771  1.00  0.00     0.037 A 
HETATM   14  C   UNL     1      42.532 -16.732   2.646  1.00  0.00     0.003 A 
HETATM   15  C   UNL     1      41.146 -16.841   2.663  1.00  0.00     0.001 A 
HETATM   16  C   UNL     1      40.360 -15.698   2.806  1.00  0.00     0.011 A 
BRANCH  12  17
HETATM   17  O   UNL     1      42.884 -13.068   3.073  1.00  0.00    -0.351 OA
BRANCH  17  18
HETATM   18  C   UNL     1      43.766 -12.843   4.169  1.00  0.00     0.171 C 
HETATM   19  C   UNL     1      44.060 -11.355   4.228  1.00  0.00     0.034 C 
ENDBRANCH  17  18
ENDBRANCH  12  17
ENDBRANCH   1  11
BRANCH   6  20
HETATM   20  S   UNL     1      40.922 -10.881   6.511  1.00  0.00    -0.102 SA
BRANCH  20  21
HETATM   21  C   UNL     1      39.398 -10.151   7.173  1.00  0.00     0.184 C 
BRANCH  21  22
HETATM   22  C   UNL     1      39.554  -9.641   8.597  1.00  0.00     0.231 C 
HETATM   23  N   UNL     1      40.814  -9.852   9.128  1.00  0.00    -0.327 N 
HETATM   24  H   UNL     1      41.404 -10.503   8.619  1.00  0.00     0.169 HD
HETATM   25  O   UNL     1      38.634  -9.025   9.130  1.00  0.00    -0.272 OA
BRANCH  23  26
HETATM   26  C   UNL     1      41.353  -9.319  10.314  1.00  0.00     0.034 A 
HETATM   27  C   UNL     1      40.821  -9.554  11.582  1.00  0.00     0.030 A 
HETATM   28  C   UNL     1      41.388  -8.949  12.708  1.00  0.00     0.009 A 
HETATM   29  C   UNL     1      42.490  -8.098  12.584  1.00  0.00    -0.062 A 
HETATM   30  C   UNL     1      43.100  -7.471  13.801  1.00  0.00     0.048 C 
HETATM   31  C   UNL     1      43.036  -7.880  11.315  1.00  0.00     0.009 A 
HETATM   32  C   UNL     1      42.466  -8.481  10.189  1.00  0.00     0.030 A 
ENDBRANCH  23  26
ENDBRANCH  21  22
ENDBRANCH  20  21
ENDBRANCH   6  20
BRANCH   2  33
HETATM   33  C   UNL     1      40.208 -12.509   0.680  1.00  0.00     0.255 C 
HETATM   34  N   UNL     1      39.065 -13.196   0.318  1.00  0.00    -0.323 N 
HETATM   35  H   UNL     1      38.364 -13.339   1.033  1.00  0.00     0.169 HD
HETATM   36  O   UNL     1      41.139 -12.236  -0.064  1.00  0.00    -0.268 OA
BRANCH  34  37
HETATM   37  C   UNL     1      38.704 -13.592  -0.990  1.00  0.00     0.035 A 
HETATM   38  C   UNL     1      39.233 -14.709  -1.642  1.00  0.00     0.029 A 
HETATM   39  C   UNL     1      38.850 -15.019  -2.950  1.00  0.00     0.002 A 
HETATM   40  C   UNL     1      37.940 -14.211  -3.624  1.00  0.00     0.000 A 
HETATM   41  C   UNL     1      37.401 -13.098  -2.984  1.00  0.00     0.002 A 
HETATM   42  C   UNL     1      37.773 -12.796  -1.670  1.00  0.00     0.029 A 
ENDBRANCH  34  37
ENDBRANCH   2  33
TORSDOF 9
ENDMDL
MODEL 10
REMARK VINA RESULT:      -8.3      2.375      3.250
REMARK  9 active torsions:
REMARK  status: ('A' for Active; 'I' for Inactive)
REMARK    1  A    between atoms: C_2  and  O_3 
REMARK    2  A    between atoms: O_3  and  C_4 
REMARK    3  A    between atoms: C_5  and  C_6 
REMARK    4  A    between atoms: C_7  and  C_8 
REMARK       I    between atoms: C_8  and  N_9 
REMARK    5  A    between atoms: N_9  and  C_10 
REMARK    6  A    between atoms: C_20  and  S_21 
REMARK    7  A    between atoms: S_21  and  C_22 
REMARK    8  A    between atoms: C_22  and  C_23 
REMARK       I    between atoms: C_23  and  N_24 
REMARK    9  A    between atoms: N_24  and  C_25 
ROOT
HETATM    1  C   UNL     1      41.497 -13.164   3.717  1.00  0.00     0.107 C 
HETATM    2  C   UNL     1      42.088 -14.159   4.724  1.00  0.00     0.046 C 
HETATM    3  C   UNL     1      41.769 -14.073   6.038  1.00  0.00     0.019 C 
HETATM    4  C   UNL     1      42.105 -15.119   7.075  1.00  0.00     0.069 C 
HETATM    5  N   UNL     1      41.009 -13.008   6.503  1.00  0.00    -0.353 N 
HETATM    6  C   UNL     1      40.306 -12.129   5.693  1.00  0.00     0.087 C 
HETATM    7  C   UNL     1      40.525 -12.135   4.354  1.00  0.00     0.055 C 
HETATM    8  C   UNL     1      39.539 -11.490   3.394  1.00  0.00     0.019 C 
HETATM    9  N   UNL     1      38.722 -10.955   2.598  1.00  0.00    -0.096 N 
HETATM   10  H   UNL     1      40.569 -13.159   7.408  1.00  0.00     0.166 HD
ENDROOT
BRANCH   1  11
HETATM   11  C   UNL     1      40.821 -13.845   2.510  1.00  0.00    -0.011 A 
HETATM   12  C   UNL     1      40.982 -13.365   1.190  1.00  0.00     0.076 A 
HETATM   13  C   UNL     1      40.401 -14.059   0.124  1.00  0.00     0.037 A 
HETATM   14  C   UNL     1      39.673 -15.229   0.354  1.00  0.00     0.003 A 
HETATM   15  C   UNL     1      39.512 -15.710   1.649  1.00  0.00     0.001 A 
HETATM   16  C   UNL     1      40.079 -15.023   2.722  1.00  0.00     0.011 A 
BRANCH  12  17
HETATM   17  O   UNL     1      41.728 -12.223   1.049  1.00  0.00    -0.351 OA
BRANCH  17  18
HETATM   18  C   UNL     1      41.280 -11.256   0.102  1.00  0.00     0.171 C 
HETATM   19  C   UNL     1      41.542  -9.881   0.689  1.00  0.00     0.034 C 
ENDBRANCH  17  18
ENDBRANCH  12  17
ENDBRANCH   1  11
BRANCH   6  20
HETATM   20  S   UNL     1      38.979 -11.189   6.368  1.00  0.00    -0.102 SA
BRANCH  20  21
HETATM   21  C   UNL     1      39.814  -9.675   6.918  1.00  0.00     0.184 C 
BRANCH  21  22
HETATM   22  C   UNL     1      39.607  -9.384   8.395  1.00  0.00     0.231 C 
HETATM   23  N   UNL     1      40.689  -9.728   9.187  1.00  0.00    -0.327 N 
HETATM   24  H   UNL     1      41.383 -10.325   8.748  1.00  0.00     0.169 HD
HETATM   25  O   UNL     1      38.587  -8.809   8.769  1.00  0.00    -0.272 OA
BRANCH  23  26
HETATM   26  C   UNL     1      40.914  -9.399  10.536  1.00  0.00     0.034 A 
HETATM   27  C   UNL     1      41.927  -8.542  10.967  1.00  0.00     0.030 A 
HETATM   28  C   UNL     1      42.116  -8.303  12.332  1.00  0.00     0.009 A 
HETATM   29  C   UNL     1      41.298  -8.917  13.285  1.00  0.00    -0.062 A 
HETATM   30  C   UNL     1      41.499  -8.636  14.744  1.00  0.00     0.048 C 
HETATM   31  C   UNL     1      40.270  -9.759  12.852  1.00  0.00     0.009 A 
HETATM   32  C   UNL     1      40.085 -10.002  11.487  1.00  0.00     0.030 A 
ENDBRANCH  23  26
ENDBRANCH  21  22
ENDBRANCH  20  21
ENDBRANCH   6  20
BRANCH   2  33
HETATM   33  C   UNL     1      42.953 -15.261   4.182  1.00  0.00     0.255 C 
HETATM   34  N   UNL     1      42.504 -16.529   4.501  1.00  0.00    -0.323 N 
HETATM   35  H   UNL     1      41.650 -16.596   5.037  1.00  0.00     0.169 HD
HETATM   36  O   UNL     1      43.954 -15.005   3.528  1.00  0.00    -0.268 OA
BRANCH  34  37
HETATM   37  C   UNL     1      43.035 -17.750   4.027  1.00  0.00     0.035 A 
HETATM   38  C   UNL     1      43.836 -18.602   4.791  1.00  0.00     0.029 A 
HETATM   39  C   UNL     1      44.352 -19.779   4.241  1.00  0.00     0.002 A 
HETATM   40  C   UNL     1      44.078 -20.114   2.918  1.00  0.00     0.000 A 
HETATM   41  C   UNL     1      43.277 -19.276   2.148  1.00  0.00     0.002 A 
HETATM   42  C   UNL     1      42.748 -18.105   2.702  1.00  0.00     0.029 A 
ENDBRANCH  34  37
ENDBRANCH   2  33
TORSDOF 9
ENDMDL
