MODEL 1
REMARK VINA RESULT:      -9.0      0.000      0.000
REMARK  4 active torsions:
REMARK  status: ('A' for Active; 'I' for Inactive)
REMARK    1  A    between atoms: C_10  and  C_11 
REMARK    2  A    between atoms: N_14  and  C_16 
REMARK    3  A    between atoms: C_16  and  C_17 
REMARK    4  A    between atoms: C_18  and  C_19 
ROOT
HETATM    1  C   UNL     1      39.880 -14.043   2.040  1.00  0.00    -0.036 A 
HETATM    2  C   UNL     1      39.978 -15.166   1.212  1.00  0.00     0.013 A 
HETATM    3  C   UNL     1      39.992 -15.023  -0.180  1.00  0.00     0.023 A 
HETATM    4  C   UNL     1      39.895 -13.755  -0.760  1.00  0.00     0.044 A 
HETATM    5  C   UNL     1      39.911 -13.607  -2.185  1.00  0.00     0.099 C 
HETATM    6  N   UNL     1      39.923 -13.483  -3.338  1.00  0.00    -0.191 NA
HETATM    7  C   UNL     1      39.777 -12.630   0.061  1.00  0.00     0.023 A 
HETATM    8  C   UNL     1      39.765 -12.774   1.452  1.00  0.00     0.013 A 
ENDROOT
BRANCH   1   9
HETATM    9  C   UNL     1      39.848 -14.221   3.499  1.00  0.00     0.009 C 
HETATM   10  C   UNL     1      40.389 -13.321   4.336  1.00  0.00     0.001 C 
BRANCH  10  11
HETATM   11  C   UNL     1      40.394 -13.356   5.830  1.00  0.00     0.262 C 
BRANCH  11  12
HETATM   12  N   UNL     1      41.599 -14.004   6.483  1.00  0.00    -0.068 N 
HETATM   13  C   UNL     1      41.301 -15.468   6.746  1.00  0.00     0.236 C 
HETATM   14  C   UNL     1      42.516 -16.192   7.318  1.00  0.00     0.037 C 
HETATM   15  C   UNL     1      43.761 -16.035   6.422  1.00  0.00     0.024 C 
HETATM   16  C   UNL     1      44.023 -14.528   6.337  1.00  0.00     0.037 C 
HETATM   17  C   UNL     1      42.864 -13.798   5.677  1.00  0.00     0.236 C 
HETATM   18  H   UNL     1      41.727 -13.543   7.391  1.00  0.00     0.280 HD
BRANCH  15  19
HETATM   19  C   UNL     1      43.619 -16.727   5.072  1.00  0.00    -0.024 A 
HETATM   20  C   UNL     1      43.702 -18.135   4.756  1.00  0.00     0.018 A 
HETATM   21  C   UNL     1      43.607 -18.251   3.372  1.00  0.00     0.138 A 
HETATM   22  C   UNL     1      43.864 -19.346   5.460  1.00  0.00     0.017 A 
HETATM   23  N   UNL     1      43.708 -19.361   2.622  1.00  0.00    -0.242 NA
HETATM   24  N   UNL     1      43.362 -17.015   2.856  1.00  0.00    -0.350 N 
HETATM   25  C   UNL     1      43.887 -20.483   3.347  1.00  0.00     0.119 A 
HETATM   26  C   UNL     1      43.963 -20.534   4.729  1.00  0.00     0.020 A 
HETATM   27  H   UNL     1      43.200 -16.847   1.872  1.00  0.00     0.166 HD
HETATM   28  C   UNL     1      43.352 -16.089   3.865  1.00  0.00     0.098 A 
ENDBRANCH  15  19
ENDBRANCH  11  12
ENDBRANCH  10  11
ENDBRANCH   1   9
TORSDOF 4
ENDMDL
MODEL 2
REMARK VINA RESULT:      -8.9      2.042      6.299
REMARK  4 active torsions:
REMARK  status: ('A' for Active; 'I' for Inactive)
REMARK    1  A    between atoms: C_10  and  C_11 
REMARK    2  A    between atoms: N_14  and  C_16 
REMARK    3  A    between atoms: C_16  and  C_17 
REMARK    4  A    between atoms: C_18  and  C_19 
ROOT
HETATM    1  C   UNL     1      43.182 -16.651   2.681  1.00  0.00    -0.036 A 
HETATM    2  C   UNL     1      43.531 -16.584   4.035  1.00  0.00     0.013 A 
HETATM    3  C   UNL     1      43.900 -17.741   4.731  1.00  0.00     0.023 A 
HETATM    4  C   UNL     1      43.909 -18.981   4.084  1.00  0.00     0.044 A 
HETATM    5  C   UNL     1      44.288 -20.166   4.795  1.00  0.00     0.099 C 
HETATM    6  N   UNL     1      44.592 -21.128   5.367  1.00  0.00    -0.191 NA
HETATM    7  C   UNL     1      43.542 -19.058   2.738  1.00  0.00     0.023 A 
HETATM    8  C   UNL     1      43.177 -17.900   2.043  1.00  0.00     0.013 A 
ENDROOT
BRANCH   1   9
HETATM    9  C   UNL     1      42.781 -15.424   1.978  1.00  0.00     0.009 C 
HETATM   10  C   UNL     1      41.561 -15.284   1.434  1.00  0.00     0.001 C 
BRANCH  10  11
HETATM   11  C   UNL     1      41.011 -14.087   0.731  1.00  0.00     0.262 C 
BRANCH  11  12
HETATM   12  N   UNL     1      40.525 -12.953   1.613  1.00  0.00    -0.068 N 
HETATM   13  C   UNL     1      39.837 -13.528   2.836  1.00  0.00     0.236 C 
HETATM   14  C   UNL     1      39.411 -12.430   3.807  1.00  0.00     0.037 C 
HETATM   15  C   UNL     1      40.590 -11.524   4.214  1.00  0.00     0.024 C 
HETATM   16  C   UNL     1      41.114 -10.916   2.909  1.00  0.00     0.037 C 
HETATM   17  C   UNL     1      41.638 -11.988   1.966  1.00  0.00     0.236 C 
HETATM   18  H   UNL     1      39.823 -12.436   1.072  1.00  0.00     0.280 HD
BRANCH  15  19
HETATM   19  C   UNL     1      41.645 -12.249   5.040  1.00  0.00    -0.024 A 
HETATM   20  C   UNL     1      41.564 -13.534   5.697  1.00  0.00     0.018 A 
HETATM   21  C   UNL     1      42.750 -13.708   6.406  1.00  0.00     0.138 A 
HETATM   22  C   UNL     1      40.629 -14.584   5.805  1.00  0.00     0.017 A 
HETATM   23  N   UNL     1      43.089 -14.719   7.223  1.00  0.00    -0.242 NA
HETATM   24  N   UNL     1      43.574 -12.661   6.123  1.00  0.00    -0.350 N 
HETATM   25  C   UNL     1      42.147 -15.679   7.307  1.00  0.00     0.119 A 
HETATM   26  C   UNL     1      40.936 -15.668   6.633  1.00  0.00     0.020 A 
HETATM   27  H   UNL     1      44.518 -12.586   6.478  1.00  0.00     0.166 HD
HETATM   28  C   UNL     1      42.931 -11.782   5.293  1.00  0.00     0.098 A 
ENDBRANCH  15  19
ENDBRANCH  11  12
ENDBRANCH  10  11
ENDBRANCH   1   9
TORSDOF 4
ENDMDL
MODEL 3
REMARK VINA RESULT:      -8.8      2.125      6.718
REMARK  4 active torsions:
REMARK  status: ('A' for Active; 'I' for Inactive)
REMARK    1  A    between atoms: C_10  and  C_11 
REMARK    2  A    between atoms: N_14  and  C_16 
REMARK    3  A    between atoms: C_16  and  C_17 
REMARK    4  A    between atoms: C_18  and  C_19 
ROOT
HETATM    1  C   UNL     1      43.121 -16.498   2.642  1.00  0.00    -0.036 A 
HETATM    2  C   UNL     1      43.156 -17.752   2.021  1.00  0.00     0.013 A 
HETATM    3  C   UNL     1      43.501 -18.896   2.750  1.00  0.00     0.023 A 
HETATM    4  C   UNL     1      43.830 -18.796   4.105  1.00  0.00     0.044 A 
HETATM    5  C   UNL     1      44.182 -19.967   4.853  1.00  0.00     0.099 C 
HETATM    6  N   UNL     1      44.470 -20.911   5.461  1.00  0.00    -0.191 NA
HETATM    7  C   UNL     1      43.816 -17.544   4.727  1.00  0.00     0.023 A 
HETATM    8  C   UNL     1      43.469 -16.402   3.998  1.00  0.00     0.013 A 
ENDROOT
BRANCH   1   9
HETATM    9  C   UNL     1      42.773 -15.310   1.850  1.00  0.00     0.009 C 
HETATM   10  C   UNL     1      41.530 -15.108   1.382  1.00  0.00     0.001 C 
BRANCH  10  11
HETATM   11  C   UNL     1      41.031 -13.935   0.604  1.00  0.00     0.262 C 
BRANCH  11  12
HETATM   12  N   UNL     1      40.472 -12.780   1.413  1.00  0.00    -0.068 N 
HETATM   13  C   UNL     1      39.508 -13.317   2.454  1.00  0.00     0.236 C 
HETATM   14  C   UNL     1      38.986 -12.205   3.359  1.00  0.00     0.037 C 
HETATM   15  C   UNL     1      40.129 -11.412   4.024  1.00  0.00     0.024 C 
HETATM   16  C   UNL     1      40.953 -10.827   2.872  1.00  0.00     0.037 C 
HETATM   17  C   UNL     1      41.566 -11.923   2.014  1.00  0.00     0.236 C 
HETATM   18  H   UNL     1      39.937 -12.194   0.762  1.00  0.00     0.280 HD
BRANCH  15  19
HETATM   19  C   UNL     1      40.935 -12.242   5.016  1.00  0.00    -0.024 A 
HETATM   20  C   UNL     1      42.281 -12.031   5.499  1.00  0.00     0.018 A 
HETATM   21  C   UNL     1      42.601 -13.116   6.310  1.00  0.00     0.138 A 
HETATM   22  C   UNL     1      43.296 -11.064   5.345  1.00  0.00     0.017 A 
HETATM   23  N   UNL     1      43.769 -13.386   6.916  1.00  0.00    -0.242 NA
HETATM   24  N   UNL     1      41.494 -13.901   6.430  1.00  0.00    -0.350 N 
HETATM   25  C   UNL     1      44.708 -12.441   6.712  1.00  0.00     0.119 A 
HETATM   26  C   UNL     1      44.529 -11.289   5.964  1.00  0.00     0.020 A 
HETATM   27  H   UNL     1      41.459 -14.725   7.014  1.00  0.00     0.166 HD
HETATM   28  C   UNL     1      40.479 -13.383   5.669  1.00  0.00     0.098 A 
ENDBRANCH  15  19
ENDBRANCH  11  12
ENDBRANCH  10  11
ENDBRANCH   1   9
TORSDOF 4
ENDMDL
MODEL 4
REMARK VINA RESULT:      -8.6      1.889      6.906
REMARK  4 active torsions:
REMARK  status: ('A' for Active; 'I' for Inactive)
REMARK    1  A    between atoms: C_10  and  C_11 
REMARK    2  A    between atoms: N_14  and  C_16 
REMARK    3  A    between atoms: C_16  and  C_17 
REMARK    4  A    between atoms: C_18  and  C_19 
ROOT
HETATM    1  C   UNL     1      43.110 -16.152   4.257  1.00  0.00    -0.036 A 
HETATM    2  C   UNL     1      42.589 -16.284   2.965  1.00  0.00     0.013 A 
HETATM    3  C   UNL     1      42.716 -17.491   2.268  1.00  0.00     0.023 A 
HETATM    4  C   UNL     1      43.379 -18.576   2.850  1.00  0.00     0.044 A 
HETATM    5  C   UNL     1      43.508 -19.812   2.138  1.00  0.00     0.099 C 
HETATM    6  N   UNL     1      43.617 -20.815   1.565  1.00  0.00    -0.191 NA
HETATM    7  C   UNL     1      43.918 -18.445   4.133  1.00  0.00     0.023 A 
HETATM    8  C   UNL     1      43.788 -17.239   4.830  1.00  0.00     0.013 A 
ENDROOT
BRANCH   1   9
HETATM    9  C   UNL     1      42.979 -14.869   4.961  1.00  0.00     0.009 C 
HETATM   10  C   UNL     1      43.078 -13.693   4.318  1.00  0.00     0.001 C 
BRANCH  10  11
HETATM   11  C   UNL     1      42.927 -12.325   4.897  1.00  0.00     0.262 C 
BRANCH  11  12
HETATM   12  N   UNL     1      41.980 -11.389   4.172  1.00  0.00    -0.068 N 
HETATM   13  C   UNL     1      42.485 -11.156   2.761  1.00  0.00     0.236 C 
HETATM   14  C   UNL     1      41.518 -10.294   1.955  1.00  0.00     0.037 C 
HETATM   15  C   UNL     1      40.092 -10.881   1.939  1.00  0.00     0.024 C 
HETATM   16  C   UNL     1      39.657 -10.951   3.406  1.00  0.00     0.037 C 
HETATM   17  C   UNL     1      40.550 -11.885   4.208  1.00  0.00     0.236 C 
HETATM   18  H   UNL     1      42.012 -10.491   4.669  1.00  0.00     0.280 HD
BRANCH  15  19
HETATM   19  C   UNL     1      39.997 -12.204   1.190  1.00  0.00    -0.024 A 
HETATM   20  C   UNL     1      40.204 -12.474  -0.215  1.00  0.00     0.018 A 
HETATM   21  C   UNL     1      39.900 -13.816  -0.424  1.00  0.00     0.138 A 
HETATM   22  C   UNL     1      40.596 -11.751  -1.361  1.00  0.00     0.017 A 
HETATM   23  N   UNL     1      39.879 -14.492  -1.585  1.00  0.00    -0.242 NA
HETATM   24  N   UNL     1      39.635 -14.387   0.783  1.00  0.00    -0.350 N 
HETATM   25  C   UNL     1      40.237 -13.744  -2.647  1.00  0.00     0.119 A 
HETATM   26  C   UNL     1      40.603 -12.409  -2.594  1.00  0.00     0.020 A 
HETATM   27  H   UNL     1      39.438 -15.372   0.900  1.00  0.00     0.166 HD
HETATM   28  C   UNL     1      39.701 -13.436   1.766  1.00  0.00     0.098 A 
ENDBRANCH  15  19
ENDBRANCH  11  12
ENDBRANCH  10  11
ENDBRANCH   1   9
TORSDOF 4
ENDMDL
MODEL 5
REMARK VINA RESULT:      -8.6      2.747      6.450
REMARK  4 active torsions:
REMARK  status: ('A' for Active; 'I' for Inactive)
REMARK    1  A    between atoms: C_10  and  C_11 
REMARK    2  A    between atoms: N_14  and  C_16 
REMARK    3  A    between atoms: C_16  and  C_17 
REMARK    4  A    between atoms: C_18  and  C_19 
ROOT
HETATM    1  C   UNL     1      42.661 -11.666   5.424  1.00  0.00    -0.036 A 
HETATM    2  C   UNL     1      42.342 -10.488   6.109  1.00  0.00     0.013 A 
HETATM    3  C   UNL     1      43.020 -10.144   7.284  1.00  0.00     0.023 A 
HETATM    4  C   UNL     1      44.017 -10.982   7.794  1.00  0.00     0.044 A 
HETATM    5  C   UNL     1      44.713 -10.629   8.996  1.00  0.00     0.099 C 
HETATM    6  N   UNL     1      45.279 -10.349   9.969  1.00  0.00    -0.191 NA
HETATM    7  C   UNL     1      44.327 -12.169   7.125  1.00  0.00     0.023 A 
HETATM    8  C   UNL     1      43.650 -12.510   5.950  1.00  0.00     0.013 A 
ENDROOT
BRANCH   1   9
HETATM    9  C   UNL     1      41.921 -12.014   4.203  1.00  0.00     0.009 C 
HETATM   10  C   UNL     1      42.462 -11.876   2.981  1.00  0.00     0.001 C 
BRANCH  10  11
HETATM   11  C   UNL     1      41.843 -12.225   1.667  1.00  0.00     0.262 C 
BRANCH  11  12
HETATM   12  N   UNL     1      41.712 -13.704   1.358  1.00  0.00    -0.068 N 
HETATM   13  C   UNL     1      42.916 -14.441   1.913  1.00  0.00     0.236 C 
HETATM   14  C   UNL     1      42.790 -15.949   1.712  1.00  0.00     0.037 C 
HETATM   15  C   UNL     1      41.481 -16.507   2.305  1.00  0.00     0.024 C 
HETATM   16  C   UNL     1      40.351 -15.771   1.579  1.00  0.00     0.037 C 
HETATM   17  C   UNL     1      40.398 -14.275   1.848  1.00  0.00     0.236 C 
HETATM   18  H   UNL     1      41.732 -13.796   0.336  1.00  0.00     0.280 HD
BRANCH  15  19
HETATM   19  C   UNL     1      41.422 -16.410   3.824  1.00  0.00    -0.024 A 
HETATM   20  C   UNL     1      42.500 -16.486   4.785  1.00  0.00     0.018 A 
HETATM   21  C   UNL     1      41.924 -16.445   6.052  1.00  0.00     0.138 A 
HETATM   22  C   UNL     1      43.905 -16.602   4.757  1.00  0.00     0.017 A 
HETATM   23  N   UNL     1      42.530 -16.560   7.245  1.00  0.00    -0.242 NA
HETATM   24  N   UNL     1      40.586 -16.239   5.906  1.00  0.00    -0.350 N 
HETATM   25  C   UNL     1      43.869 -16.695   7.155  1.00  0.00     0.119 A 
HETATM   26  C   UNL     1      44.589 -16.713   5.971  1.00  0.00     0.020 A 
HETATM   27  H   UNL     1      39.954 -16.119   6.687  1.00  0.00     0.166 HD
HETATM   28  C   UNL     1      40.269 -16.201   4.574  1.00  0.00     0.098 A 
ENDBRANCH  15  19
ENDBRANCH  11  12
ENDBRANCH  10  11
ENDBRANCH   1   9
TORSDOF 4
ENDMDL
MODEL 6
REMARK VINA RESULT:      -8.6      1.969      7.164
REMARK  4 active torsions:
REMARK  status: ('A' for Active; 'I' for Inactive)
REMARK    1  A    between atoms: C_10  and  C_11 
REMARK    2  A    between atoms: N_14  and  C_16 
REMARK    3  A    between atoms: C_16  and  C_17 
REMARK    4  A    between atoms: C_18  and  C_19 
ROOT
HETATM    1  C   UNL     1      43.056 -16.128   4.065  1.00  0.00    -0.036 A 
HETATM    2  C   UNL     1      42.405 -16.444   2.867  1.00  0.00     0.013 A 
HETATM    3  C   UNL     1      42.585 -17.696   2.269  1.00  0.00     0.023 A 
HETATM    4  C   UNL     1      43.431 -18.643   2.856  1.00  0.00     0.044 A 
HETATM    5  C   UNL     1      43.615 -19.926   2.245  1.00  0.00     0.099 C 
HETATM    6  N   UNL     1      43.768 -20.965   1.754  1.00  0.00    -0.191 NA
HETATM    7  C   UNL     1      44.099 -18.328   4.042  1.00  0.00     0.023 A 
HETATM    8  C   UNL     1      43.916 -17.076   4.640  1.00  0.00     0.013 A 
ENDROOT
BRANCH   1   9
HETATM    9  C   UNL     1      42.864 -14.800   4.663  1.00  0.00     0.009 C 
HETATM   10  C   UNL     1      42.790 -13.687   3.914  1.00  0.00     0.001 C 
BRANCH  10  11
HETATM   11  C   UNL     1      42.559 -12.288   4.383  1.00  0.00     0.262 C 
BRANCH  11  12
HETATM   12  N   UNL     1      41.411 -11.542   3.732  1.00  0.00    -0.068 N 
HETATM   13  C   UNL     1      41.880 -10.946   2.418  1.00  0.00     0.236 C 
HETATM   14  C   UNL     1      40.736 -10.262   1.674  1.00  0.00     0.037 C 
HETATM   15  C   UNL     1      39.539 -11.207   1.453  1.00  0.00     0.024 C 
HETATM   16  C   UNL     1      39.089 -11.640   2.852  1.00  0.00     0.037 C 
HETATM   17  C   UNL     1      40.182 -12.412   3.575  1.00  0.00     0.236 C 
HETATM   18  H   UNL     1      41.168 -10.767   4.359  1.00  0.00     0.280 HD
BRANCH  15  19
HETATM   19  C   UNL     1      39.853 -12.361   0.508  1.00  0.00    -0.024 A 
HETATM   20  C   UNL     1      39.124 -12.808  -0.657  1.00  0.00     0.018 A 
HETATM   21  C   UNL     1      39.756 -13.960  -1.119  1.00  0.00     0.138 A 
HETATM   22  C   UNL     1      37.987 -12.402  -1.387  1.00  0.00     0.017 A 
HETATM   23  N   UNL     1      39.387 -14.760  -2.133  1.00  0.00    -0.242 NA
HETATM   24  N   UNL     1      40.876 -14.161  -0.371  1.00  0.00    -0.350 N 
HETATM   25  C   UNL     1      38.281 -14.336  -2.776  1.00  0.00     0.119 A 
HETATM   26  C   UNL     1      37.566 -13.192  -2.460  1.00  0.00     0.020 A 
HETATM   27  H   UNL     1      41.534 -14.908  -0.549  1.00  0.00     0.166 HD
HETATM   28  C   UNL     1      40.957 -13.202   0.603  1.00  0.00     0.098 A 
ENDBRANCH  15  19
ENDBRANCH  11  12
ENDBRANCH  10  11
ENDBRANCH   1   9
TORSDOF 4
ENDMDL
MODEL 7
REMARK VINA RESULT:      -8.5      2.071      6.116
REMARK  4 active torsions:
REMARK  status: ('A' for Active; 'I' for Inactive)
REMARK    1  A    between atoms: C_10  and  C_11 
REMARK    2  A    between atoms: N_14  and  C_16 
REMARK    3  A    between atoms: C_16  and  C_17 
REMARK    4  A    between atoms: C_18  and  C_19 
ROOT
HETATM    1  C   UNL     1      43.366 -16.081   4.148  1.00  0.00    -0.036 A 
HETATM    2  C   UNL     1      43.042 -16.215   2.793  1.00  0.00     0.013 A 
HETATM    3  C   UNL     1      43.128 -17.462   2.163  1.00  0.00     0.023 A 
HETATM    4  C   UNL     1      43.552 -18.586   2.877  1.00  0.00     0.044 A 
HETATM    5  C   UNL     1      43.639 -19.863   2.233  1.00  0.00     0.099 C 
HETATM    6  N   UNL     1      43.712 -20.898   1.715  1.00  0.00    -0.191 NA
HETATM    7  C   UNL     1      43.895 -18.456   4.226  1.00  0.00     0.023 A 
HETATM    8  C   UNL     1      43.807 -17.210   4.856  1.00  0.00     0.013 A 
ENDROOT
BRANCH   1   9
HETATM    9  C   UNL     1      43.285 -14.758   4.782  1.00  0.00     0.009 C 
HETATM   10  C   UNL     1      43.422 -14.596   6.109  1.00  0.00     0.001 C 
BRANCH  10  11
HETATM   11  C   UNL     1      43.402 -13.315   6.876  1.00  0.00     0.262 C 
BRANCH  11  12
HETATM   12  N   UNL     1      42.169 -12.449   6.706  1.00  0.00    -0.068 N 
HETATM   13  C   UNL     1      42.557 -11.150   6.026  1.00  0.00     0.236 C 
HETATM   14  C   UNL     1      41.337 -10.278   5.745  1.00  0.00     0.037 C 
HETATM   15  C   UNL     1      40.264 -11.027   4.929  1.00  0.00     0.024 C 
HETATM   16  C   UNL     1      39.874 -12.243   5.775  1.00  0.00     0.037 C 
HETATM   17  C   UNL     1      41.056 -13.178   5.984  1.00  0.00     0.236 C 
HETATM   18  H   UNL     1      41.834 -12.221   7.649  1.00  0.00     0.280 HD
BRANCH  15  19
HETATM   19  C   UNL     1      40.714 -11.363   3.513  1.00  0.00    -0.024 A 
HETATM   20  C   UNL     1      40.457 -12.553   2.734  1.00  0.00     0.018 A 
HETATM   21  C   UNL     1      41.167 -12.425   1.543  1.00  0.00     0.138 A 
HETATM   22  C   UNL     1      39.723 -13.748   2.880  1.00  0.00     0.017 A 
HETATM   23  N   UNL     1      41.287 -13.317   0.546  1.00  0.00    -0.242 NA
HETATM   24  N   UNL     1      41.739 -11.189   1.518  1.00  0.00    -0.350 N 
HETATM   25  C   UNL     1      40.585 -14.449   0.754  1.00  0.00     0.119 A 
HETATM   26  C   UNL     1      39.802 -14.707   1.867  1.00  0.00     0.020 A 
HETATM   27  H   UNL     1      42.266 -10.837   0.730  1.00  0.00     0.166 HD
HETATM   28  C   UNL     1      41.466 -10.532   2.688  1.00  0.00     0.098 A 
ENDBRANCH  15  19
ENDBRANCH  11  12
ENDBRANCH  10  11
ENDBRANCH   1   9
TORSDOF 4
ENDMDL
MODEL 8
REMARK VINA RESULT:      -8.5      3.721      7.209
REMARK  4 active torsions:
REMARK  status: ('A' for Active; 'I' for Inactive)
REMARK    1  A    between atoms: C_10  and  C_11 
REMARK    2  A    between atoms: N_14  and  C_16 
REMARK    3  A    between atoms: C_16  and  C_17 
REMARK    4  A    between atoms: C_18  and  C_19 
ROOT
HETATM    1  C   UNL     1      44.547 -10.617   7.302  1.00  0.00    -0.036 A 
HETATM    2  C   UNL     1      43.319 -10.015   7.597  1.00  0.00     0.013 A 
HETATM    3  C   UNL     1      43.085  -9.462   8.861  1.00  0.00     0.023 A 
HETATM    4  C   UNL     1      44.073  -9.516   9.849  1.00  0.00     0.044 A 
HETATM    5  C   UNL     1      43.835  -8.949  11.143  1.00  0.00     0.099 C 
HETATM    6  N   UNL     1      43.646  -8.492  12.192  1.00  0.00    -0.191 NA
HETATM    7  C   UNL     1      45.295 -10.133   9.567  1.00  0.00     0.023 A 
HETATM    8  C   UNL     1      45.528 -10.684   8.303  1.00  0.00     0.013 A 
ENDROOT
BRANCH   1   9
HETATM    9  C   UNL     1      44.761 -11.207   5.973  1.00  0.00     0.009 C 
HETATM   10  C   UNL     1      43.784 -11.259   5.053  1.00  0.00     0.001 C 
BRANCH  10  11
HETATM   11  C   UNL     1      43.873 -11.790   3.660  1.00  0.00     0.262 C 
BRANCH  11  12
HETATM   12  N   UNL     1      42.704 -12.632   3.186  1.00  0.00    -0.068 N 
HETATM   13  C   UNL     1      43.229 -13.847   2.445  1.00  0.00     0.236 C 
HETATM   14  C   UNL     1      42.096 -14.779   2.026  1.00  0.00     0.037 C 
HETATM   15  C   UNL     1      41.216 -15.200   3.221  1.00  0.00     0.024 C 
HETATM   16  C   UNL     1      40.656 -13.897   3.801  1.00  0.00     0.037 C 
HETATM   17  C   UNL     1      41.766 -12.994   4.317  1.00  0.00     0.236 C 
HETATM   18  H   UNL     1      42.180 -12.059   2.515  1.00  0.00     0.280 HD
BRANCH  15  19
HETATM   19  C   UNL     1      41.954 -16.072   4.230  1.00  0.00    -0.024 A 
HETATM   20  C   UNL     1      42.810 -17.212   3.994  1.00  0.00     0.018 A 
HETATM   21  C   UNL     1      43.159 -17.728   5.240  1.00  0.00     0.138 A 
HETATM   22  C   UNL     1      43.334 -17.901   2.880  1.00  0.00     0.017 A 
HETATM   23  N   UNL     1      43.881 -18.828   5.512  1.00  0.00    -0.242 NA
HETATM   24  N   UNL     1      42.656 -16.902   6.199  1.00  0.00    -0.350 N 
HETATM   25  C   UNL     1      44.332 -19.458   4.409  1.00  0.00     0.119 A 
HETATM   26  C   UNL     1      44.102 -19.047   3.106  1.00  0.00     0.020 A 
HETATM   27  H   UNL     1      42.821 -17.036   7.188  1.00  0.00     0.166 HD
HETATM   28  C   UNL     1      41.940 -15.894   5.609  1.00  0.00     0.098 A 
ENDBRANCH  15  19
ENDBRANCH  11  12
ENDBRANCH  10  11
ENDBRANCH   1   9
TORSDOF 4
ENDMDL
MODEL 9
REMARK VINA RESULT:      -8.5      5.360      8.881
REMARK  4 active torsions:
REMARK  status: ('A' for Active; 'I' for Inactive)
REMARK    1  A    between atoms: C_10  and  C_11 
REMARK    2  A    between atoms: N_14  and  C_16 
REMARK    3  A    between atoms: C_16  and  C_17 
REMARK    4  A    between atoms: C_18  and  C_19 
ROOT
HETATM    1  C   UNL     1      42.833 -14.291   4.296  1.00  0.00    -0.036 A 
HETATM    2  C   UNL     1      42.904 -14.616   2.937  1.00  0.00     0.013 A 
HETATM    3  C   UNL     1      43.205 -15.922   2.533  1.00  0.00     0.023 A 
HETATM    4  C   UNL     1      43.451 -16.915   3.486  1.00  0.00     0.044 A 
HETATM    5  C   UNL     1      43.757 -18.253   3.074  1.00  0.00     0.099 C 
HETATM    6  N   UNL     1      44.007 -19.337   2.745  1.00  0.00    -0.191 NA
HETATM    7  C   UNL     1      43.400 -16.593   4.845  1.00  0.00     0.023 A 
HETATM    8  C   UNL     1      43.098 -15.288   5.247  1.00  0.00     0.013 A 
ENDROOT
BRANCH   1   9
HETATM    9  C   UNL     1      42.533 -12.908   4.693  1.00  0.00     0.009 C 
HETATM   10  C   UNL     1      42.622 -12.501   5.970  1.00  0.00     0.001 C 
BRANCH  10  11
HETATM   11  C   UNL     1      42.388 -11.126   6.505  1.00  0.00     0.262 C 
BRANCH  11  12
HETATM   12  N   UNL     1      43.590 -10.425   7.108  1.00  0.00    -0.068 N 
HETATM   13  C   UNL     1      43.137  -9.144   7.782  1.00  0.00     0.236 C 
HETATM   14  C   UNL     1      44.295  -8.444   8.488  1.00  0.00     0.037 C 
HETATM   15  C   UNL     1      45.010  -9.372   9.491  1.00  0.00     0.024 C 
HETATM   16  C   UNL     1      45.520 -10.559   8.667  1.00  0.00     0.037 C 
HETATM   17  C   UNL     1      44.372 -11.331   8.035  1.00  0.00     0.236 C 
HETATM   18  H   UNL     1      44.205 -10.168   6.328  1.00  0.00     0.280 HD
BRANCH  15  19
HETATM   19  C   UNL     1      44.136  -9.758  10.678  1.00  0.00    -0.024 A 
HETATM   20  C   UNL     1      43.327  -8.914  11.527  1.00  0.00     0.018 A 
HETATM   21  C   UNL     1      42.802  -9.724  12.530  1.00  0.00     0.138 A 
HETATM   22  C   UNL     1      42.974  -7.550  11.597  1.00  0.00     0.017 A 
HETATM   23  N   UNL     1      42.051  -9.361  13.584  1.00  0.00    -0.242 NA
HETATM   24  N   UNL     1      43.156 -11.013  12.268  1.00  0.00    -0.350 N 
HETATM   25  C   UNL     1      41.769  -8.044  13.612  1.00  0.00     0.119 A 
HETATM   26  C   UNL     1      42.185  -7.120  12.667  1.00  0.00     0.020 A 
HETATM   27  H   UNL     1      42.848 -11.797  12.827  1.00  0.00     0.166 HD
HETATM   28  C   UNL     1      43.947 -11.053  11.150  1.00  0.00     0.098 A 
ENDBRANCH  15  19
ENDBRANCH  11  12
ENDBRANCH  10  11
ENDBRANCH   1   9
TORSDOF 4
ENDMDL
MODEL 10
REMARK VINA RESULT:      -8.3      3.277      7.530
REMARK  4 active torsions:
REMARK  status: ('A' for Active; 'I' for Inactive)
REMARK    1  A    between atoms: C_10  and  C_11 
REMARK    2  A    between atoms: N_14  and  C_16 
REMARK    3  A    between atoms: C_16  and  C_17 
REMARK    4  A    between atoms: C_18  and  C_19 
ROOT
HETATM    1  C   UNL     1      43.120 -16.472   2.766  1.00  0.00    -0.036 A 
HETATM    2  C   UNL     1      43.469 -16.442   4.121  1.00  0.00     0.013 A 
HETATM    3  C   UNL     1      43.851 -17.615   4.782  1.00  0.00     0.023 A 
HETATM    4  C   UNL     1      43.875 -18.834   4.099  1.00  0.00     0.044 A 
HETATM    5  C   UNL     1      44.268 -20.035   4.774  1.00  0.00     0.099 C 
HETATM    6  N   UNL     1      44.584 -21.010   5.317  1.00  0.00    -0.191 NA
HETATM    7  C   UNL     1      43.509 -18.875   2.750  1.00  0.00     0.023 A 
HETATM    8  C   UNL     1      43.130 -17.702   2.090  1.00  0.00     0.013 A 
ENDROOT
BRANCH   1   9
HETATM    9  C   UNL     1      42.704 -15.230   2.100  1.00  0.00     0.009 C 
HETATM   10  C   UNL     1      42.574 -14.074   2.771  1.00  0.00     0.001 C 
BRANCH  10  11
HETATM   11  C   UNL     1      42.201 -12.738   2.216  1.00  0.00     0.262 C 
BRANCH  11  12
HETATM   12  N   UNL     1      41.509 -11.783   3.171  1.00  0.00    -0.068 N 
HETATM   13  C   UNL     1      41.045 -12.547   4.396  1.00  0.00     0.236 C 
HETATM   14  C   UNL     1      40.424 -11.617   5.434  1.00  0.00     0.037 C 
HETATM   15  C   UNL     1      41.375 -10.469   5.828  1.00  0.00     0.024 C 
HETATM   16  C   UNL     1      41.668  -9.710   4.530  1.00  0.00     0.037 C 
HETATM   17  C   UNL     1      42.379 -10.593   3.517  1.00  0.00     0.236 C 
HETATM   18  H   UNL     1      40.676 -11.432   2.686  1.00  0.00     0.280 HD
BRANCH  15  19
HETATM   19  C   UNL     1      42.616 -10.948   6.572  1.00  0.00    -0.024 A 
HETATM   20  C   UNL     1      43.491 -10.210   7.455  1.00  0.00     0.018 A 
HETATM   21  C   UNL     1      44.538 -11.060   7.799  1.00  0.00     0.138 A 
HETATM   22  C   UNL     1      43.551  -8.913   8.005  1.00  0.00     0.017 A 
HETATM   23  N   UNL     1      45.624 -10.783   8.541  1.00  0.00    -0.242 NA
HETATM   24  N   UNL     1      44.284 -12.288   7.268  1.00  0.00    -0.350 N 
HETATM   25  C   UNL     1      45.639  -9.523   9.018  1.00  0.00     0.119 A 
HETATM   26  C   UNL     1      44.654  -8.575   8.795  1.00  0.00     0.020 A 
HETATM   27  H   UNL     1      44.875 -13.093   7.424  1.00  0.00     0.166 HD
HETATM   28  C   UNL     1      43.125 -12.242   6.539  1.00  0.00     0.098 A 
ENDBRANCH  15  19
ENDBRANCH  11  12
ENDBRANCH  10  11
ENDBRANCH   1   9
TORSDOF 4
ENDMDL
