MODEL 1
REMARK VINA RESULT:      -8.4      0.000      0.000
REMARK  6 active torsions:
REMARK  status: ('A' for Active; 'I' for Inactive)
REMARK    1  A    between atoms: C_3  and  O_4 
REMARK    2  A    between atoms: C_6  and  C_7 
REMARK    3  A    between atoms: C_7  and  C_8 
REMARK    4  A    between atoms: C_8  and  N_9 
REMARK       I    between atoms: N_9  and  C_10 
REMARK    5  A    between atoms: C_10  and  C_11 
REMARK    6  A    between atoms: C_13  and  C_14 
ROOT
HETATM    1  N   UNL     1      40.864 -14.770   2.462  1.00  0.00    -0.357 N 
HETATM    2  C   UNL     1      41.751 -14.351   3.436  1.00  0.00     0.251 C 
HETATM    3  O   UNL     1      41.906 -13.175   3.743  1.00  0.00    -0.268 OA
HETATM    4  H   UNL     1      41.002 -15.686   2.059  1.00  0.00     0.162 HD
ENDROOT
BRANCH   2   5
HETATM    5  C   UNL     1      42.567 -15.406   4.102  1.00  0.00     0.032 A 
HETATM    6  C   UNL     1      42.689 -16.648   3.459  1.00  0.00     0.029 A 
HETATM    7  C   UNL     1      43.459 -17.676   4.021  1.00  0.00    -0.023 A 
HETATM    8  C   UNL     1      44.112 -17.438   5.237  1.00  0.00     0.012 A 
HETATM    9  C   UNL     1      44.004 -16.200   5.877  1.00  0.00     0.002 A 
HETATM   10  C   UNL     1      43.238 -15.182   5.309  1.00  0.00     0.017 A 
BRANCH   7  11
HETATM   11  C   UNL     1      43.601 -18.962   3.354  1.00  0.00    -0.002 A 
HETATM   12  C   UNL     1      43.994 -20.130   3.977  1.00  0.00     0.153 A 
HETATM   13  O   UNL     1      44.035 -21.162   3.093  1.00  0.00    -0.334 OA
HETATM   14  C   UNL     1      43.665 -20.661   1.888  1.00  0.00     0.142 A 
HETATM   15  C   UNL     1      43.394 -19.316   1.991  1.00  0.00     0.038 A 
ENDBRANCH   7  11
ENDBRANCH   2   5
BRANCH   1  16
HETATM   16  C   UNL     1      40.137 -13.789   1.673  1.00  0.00     0.127 C 
BRANCH  16  17
HETATM   17  C   UNL     1      40.927 -13.344   0.443  1.00  0.00     0.058 C 
BRANCH  17  18
HETATM   18  C   UNL     1      40.190 -13.661  -0.833  1.00  0.00    -0.054 A 
HETATM   19  C   UNL     1      39.581 -14.913  -1.006  1.00  0.00     0.043 A 
HETATM   20  C   UNL     1      38.868 -15.187  -2.169  1.00  0.00     0.066 A 
HETATM   21  C   UNL     1      38.744 -14.232  -3.173  1.00  0.00     0.036 A 
HETATM   22  C   UNL     1      39.345 -12.984  -3.007  1.00  0.00     0.003 A 
HETATM   23  C   UNL     1      40.062 -12.699  -1.843  1.00  0.00     0.007 A 
BRANCH  20  24
HETATM   24  O   UNL     1      38.293 -16.418  -2.284  1.00  0.00    -0.361 OA
HETATM   25  H   UNL     1      38.472 -16.760  -3.175  1.00  0.00     0.217 HD
ENDBRANCH  20  24
ENDBRANCH  17  18
ENDBRANCH  16  17
ENDBRANCH   1  16
TORSDOF 6
ENDMDL
MODEL 2
REMARK VINA RESULT:      -8.4      4.088      7.775
REMARK  6 active torsions:
REMARK  status: ('A' for Active; 'I' for Inactive)
REMARK    1  A    between atoms: C_3  and  O_4 
REMARK    2  A    between atoms: C_6  and  C_7 
REMARK    3  A    between atoms: C_7  and  C_8 
REMARK    4  A    between atoms: C_8  and  N_9 
REMARK       I    between atoms: N_9  and  C_10 
REMARK    5  A    between atoms: C_10  and  C_11 
REMARK    6  A    between atoms: C_13  and  C_14 
ROOT
HETATM    1  N   UNL     1      43.349 -12.752   4.754  1.00  0.00    -0.357 N 
HETATM    2  C   UNL     1      42.981 -14.060   5.009  1.00  0.00     0.251 C 
HETATM    3  O   UNL     1      42.616 -14.453   6.110  1.00  0.00    -0.268 OA
HETATM    4  H   UNL     1      43.911 -12.569   3.935  1.00  0.00     0.162 HD
ENDROOT
BRANCH   2   5
HETATM    5  C   UNL     1      43.079 -15.020   3.872  1.00  0.00     0.032 A 
HETATM    6  C   UNL     1      43.343 -16.366   4.169  1.00  0.00     0.029 A 
HETATM    7  C   UNL     1      43.427 -17.324   3.149  1.00  0.00    -0.023 A 
HETATM    8  C   UNL     1      43.234 -16.913   1.824  1.00  0.00     0.012 A 
HETATM    9  C   UNL     1      42.959 -15.576   1.523  1.00  0.00     0.002 A 
HETATM   10  C   UNL     1      42.875 -14.630   2.545  1.00  0.00     0.017 A 
BRANCH   7  11
HETATM   11  C   UNL     1      43.689 -18.724   3.450  1.00  0.00    -0.002 A 
HETATM   12  C   UNL     1      44.161 -19.193   4.660  1.00  0.00     0.153 A 
HETATM   13  O   UNL     1      44.307 -20.543   4.634  1.00  0.00    -0.334 OA
HETATM   14  C   UNL     1      43.926 -20.956   3.399  1.00  0.00     0.142 A 
HETATM   15  C   UNL     1      43.544 -19.880   2.632  1.00  0.00     0.038 A 
ENDBRANCH   7  11
ENDBRANCH   2   5
BRANCH   1  16
HETATM   16  C   UNL     1      43.414 -11.791   5.843  1.00  0.00     0.127 C 
BRANCH  16  17
HETATM   17  C   UNL     1      44.846 -11.569   6.326  1.00  0.00     0.058 C 
BRANCH  17  18
HETATM   18  C   UNL     1      44.880 -10.832   7.640  1.00  0.00    -0.054 A 
HETATM   19  C   UNL     1      43.934 -11.117   8.635  1.00  0.00     0.043 A 
HETATM   20  C   UNL     1      43.992 -10.463   9.862  1.00  0.00     0.066 A 
HETATM   21  C   UNL     1      44.984  -9.524  10.124  1.00  0.00     0.036 A 
HETATM   22  C   UNL     1      45.931  -9.236   9.140  1.00  0.00     0.003 A 
HETATM   23  C   UNL     1      45.881  -9.888   7.906  1.00  0.00     0.007 A 
BRANCH  20  24
HETATM   24  O   UNL     1      43.050 -10.780  10.795  1.00  0.00    -0.361 OA
HETATM   25  H   UNL     1      43.487 -11.236  11.532  1.00  0.00     0.217 HD
ENDBRANCH  20  24
ENDBRANCH  17  18
ENDBRANCH  16  17
ENDBRANCH   1  16
TORSDOF 6
ENDMDL
MODEL 3
REMARK VINA RESULT:      -8.3      1.525      7.747
REMARK  6 active torsions:
REMARK  status: ('A' for Active; 'I' for Inactive)
REMARK    1  A    between atoms: C_3  and  O_4 
REMARK    2  A    between atoms: C_6  and  C_7 
REMARK    3  A    between atoms: C_7  and  C_8 
REMARK    4  A    between atoms: C_8  and  N_9 
REMARK       I    between atoms: N_9  and  C_10 
REMARK    5  A    between atoms: C_10  and  C_11 
REMARK    6  A    between atoms: C_13  and  C_14 
ROOT
HETATM    1  N   UNL     1      42.000 -15.064   3.639  1.00  0.00    -0.357 N 
HETATM    2  C   UNL     1      40.960 -15.215   2.741  1.00  0.00     0.251 C 
HETATM    3  O   UNL     1      40.187 -16.165   2.762  1.00  0.00    -0.268 OA
HETATM    4  H   UNL     1      42.756 -14.443   3.387  1.00  0.00     0.162 HD
ENDROOT
BRANCH   2   5
HETATM    5  C   UNL     1      40.822 -14.169   1.688  1.00  0.00     0.032 A 
HETATM    6  C   UNL     1      40.038 -14.468   0.562  1.00  0.00     0.029 A 
HETATM    7  C   UNL     1      39.850 -13.521  -0.455  1.00  0.00    -0.023 A 
HETATM    8  C   UNL     1      40.457 -12.265  -0.324  1.00  0.00     0.012 A 
HETATM    9  C   UNL     1      41.229 -11.957   0.800  1.00  0.00     0.002 A 
HETATM   10  C   UNL     1      41.408 -12.905   1.808  1.00  0.00     0.017 A 
BRANCH   7  11
HETATM   11  C   UNL     1      39.028 -13.819  -1.619  1.00  0.00    -0.002 A 
HETATM   12  C   UNL     1      37.854 -13.166  -1.939  1.00  0.00     0.153 A 
HETATM   13  O   UNL     1      37.315 -13.668  -3.080  1.00  0.00    -0.334 OA
HETATM   14  C   UNL     1      38.145 -14.653  -3.506  1.00  0.00     0.142 A 
HETATM   15  C   UNL     1      39.207 -14.791  -2.643  1.00  0.00     0.038 A 
ENDBRANCH   7  11
ENDBRANCH   2   5
BRANCH   1  16
HETATM   16  C   UNL     1      42.282 -16.112   4.605  1.00  0.00     0.127 C 
BRANCH  16  17
HETATM   17  C   UNL     1      43.711 -16.639   4.477  1.00  0.00     0.058 C 
BRANCH  17  18
HETATM   18  C   UNL     1      43.735 -18.054   3.959  1.00  0.00    -0.054 A 
HETATM   19  C   UNL     1      44.101 -19.111   4.805  1.00  0.00     0.043 A 
HETATM   20  C   UNL     1      44.084 -20.420   4.333  1.00  0.00     0.066 A 
HETATM   21  C   UNL     1      43.704 -20.704   3.026  1.00  0.00     0.036 A 
HETATM   22  C   UNL     1      43.336 -19.658   2.179  1.00  0.00     0.003 A 
HETATM   23  C   UNL     1      43.349 -18.341   2.642  1.00  0.00     0.007 A 
BRANCH  20  24
HETATM   24  O   UNL     1      44.446 -21.410   5.199  1.00  0.00    -0.361 OA
HETATM   25  H   UNL     1      45.346 -21.698   4.979  1.00  0.00     0.217 HD
ENDBRANCH  20  24
ENDBRANCH  17  18
ENDBRANCH  16  17
ENDBRANCH   1  16
TORSDOF 6
ENDMDL
MODEL 4
REMARK VINA RESULT:      -8.1      1.714      2.491
REMARK  6 active torsions:
REMARK  status: ('A' for Active; 'I' for Inactive)
REMARK    1  A    between atoms: C_3  and  O_4 
REMARK    2  A    between atoms: C_6  and  C_7 
REMARK    3  A    between atoms: C_7  and  C_8 
REMARK    4  A    between atoms: C_8  and  N_9 
REMARK       I    between atoms: N_9  and  C_10 
REMARK    5  A    between atoms: C_10  and  C_11 
REMARK    6  A    between atoms: C_13  and  C_14 
ROOT
HETATM    1  N   UNL     1      41.460 -13.631   4.883  1.00  0.00    -0.357 N 
HETATM    2  C   UNL     1      42.615 -14.097   4.285  1.00  0.00     0.251 C 
HETATM    3  O   UNL     1      43.165 -13.527   3.350  1.00  0.00    -0.268 OA
HETATM    4  H   UNL     1      40.911 -14.284   5.425  1.00  0.00     0.162 HD
ENDROOT
BRANCH   2   5
HETATM    5  C   UNL     1      43.176 -15.376   4.807  1.00  0.00     0.032 A 
HETATM    6  C   UNL     1      43.127 -16.505   3.973  1.00  0.00     0.029 A 
HETATM    7  C   UNL     1      43.655 -17.733   4.395  1.00  0.00    -0.023 A 
HETATM    8  C   UNL     1      44.240 -17.812   5.665  1.00  0.00     0.012 A 
HETATM    9  C   UNL     1      44.302 -16.690   6.495  1.00  0.00     0.002 A 
HETATM   10  C   UNL     1      43.776 -15.471   6.067  1.00  0.00     0.017 A 
BRANCH   7  11
HETATM   11  C   UNL     1      43.620 -18.904   3.531  1.00  0.00    -0.002 A 
HETATM   12  C   UNL     1      44.015 -20.172   3.911  1.00  0.00     0.153 A 
HETATM   13  O   UNL     1      43.868 -21.053   2.887  1.00  0.00    -0.334 OA
HETATM   14  C   UNL     1      43.372 -20.354   1.836  1.00  0.00     0.142 A 
HETATM   15  C   UNL     1      43.208 -19.032   2.174  1.00  0.00     0.038 A 
ENDBRANCH   7  11
ENDBRANCH   2   5
BRANCH   1  16
HETATM   16  C   UNL     1      40.779 -12.468   4.339  1.00  0.00     0.127 C 
BRANCH  16  17
HETATM   17  C   UNL     1      39.439 -12.835   3.703  1.00  0.00     0.058 C 
BRANCH  17  18
HETATM   18  C   UNL     1      39.626 -13.535   2.382  1.00  0.00    -0.054 A 
HETATM   19  C   UNL     1      39.746 -12.792   1.199  1.00  0.00     0.043 A 
HETATM   20  C   UNL     1      39.958 -13.440  -0.014  1.00  0.00     0.066 A 
HETATM   21  C   UNL     1      40.057 -14.826  -0.075  1.00  0.00     0.036 A 
HETATM   22  C   UNL     1      39.940 -15.573   1.098  1.00  0.00     0.003 A 
HETATM   23  C   UNL     1      39.728 -14.931   2.320  1.00  0.00     0.007 A 
BRANCH  20  24
HETATM   24  O   UNL     1      40.072 -12.670  -1.133  1.00  0.00    -0.361 OA
HETATM   25  H   UNL     1      39.446 -11.931  -1.064  1.00  0.00     0.217 HD
ENDBRANCH  20  24
ENDBRANCH  17  18
ENDBRANCH  16  17
ENDBRANCH   1  16
TORSDOF 6
ENDMDL
MODEL 5
REMARK VINA RESULT:      -8.1      5.420      9.123
REMARK  6 active torsions:
REMARK  status: ('A' for Active; 'I' for Inactive)
REMARK    1  A    between atoms: C_3  and  O_4 
REMARK    2  A    between atoms: C_6  and  C_7 
REMARK    3  A    between atoms: C_7  and  C_8 
REMARK    4  A    between atoms: C_8  and  N_9 
REMARK       I    between atoms: N_9  and  C_10 
REMARK    5  A    between atoms: C_10  and  C_11 
REMARK    6  A    between atoms: C_13  and  C_14 
ROOT
HETATM    1  N   UNL     1      43.402 -13.480   7.249  1.00  0.00    -0.357 N 
HETATM    2  C   UNL     1      43.920 -12.375   6.601  1.00  0.00     0.251 C 
HETATM    3  O   UNL     1      43.899 -12.237   5.384  1.00  0.00    -0.268 OA
HETATM    4  H   UNL     1      43.714 -13.666   8.192  1.00  0.00     0.162 HD
ENDROOT
BRANCH   2   5
HETATM    5  C   UNL     1      44.559 -11.332   7.454  1.00  0.00     0.032 A 
HETATM    6  C   UNL     1      43.937 -11.004   8.670  1.00  0.00     0.029 A 
HETATM    7  C   UNL     1      44.496 -10.047   9.528  1.00  0.00    -0.023 A 
HETATM    8  C   UNL     1      45.695  -9.427   9.153  1.00  0.00     0.012 A 
HETATM    9  C   UNL     1      46.325  -9.757   7.950  1.00  0.00     0.002 A 
HETATM   10  C   UNL     1      45.762 -10.712   7.103  1.00  0.00     0.017 A 
BRANCH   7  11
HETATM   11  C   UNL     1      43.863  -9.711  10.795  1.00  0.00    -0.002 A 
HETATM   12  C   UNL     1      43.415 -10.635  11.719  1.00  0.00     0.153 A 
HETATM   13  O   UNL     1      42.870 -10.016  12.799  1.00  0.00    -0.334 OA
HETATM   14  C   UNL     1      42.966  -8.681  12.576  1.00  0.00     0.142 A 
HETATM   15  C   UNL     1      43.561  -8.440  11.361  1.00  0.00     0.038 A 
ENDBRANCH   7  11
ENDBRANCH   2   5
BRANCH   1  16
HETATM   16  C   UNL     1      42.891 -14.600   6.476  1.00  0.00     0.127 C 
BRANCH  16  17
HETATM   17  C   UNL     1      43.919 -15.722   6.344  1.00  0.00     0.058 C 
BRANCH  17  18
HETATM   18  C   UNL     1      43.753 -16.476   5.049  1.00  0.00    -0.054 A 
HETATM   19  C   UNL     1      44.036 -17.847   4.989  1.00  0.00     0.043 A 
HETATM   20  C   UNL     1      43.844 -18.548   3.802  1.00  0.00     0.066 A 
HETATM   21  C   UNL     1      43.367 -17.907   2.663  1.00  0.00     0.036 A 
HETATM   22  C   UNL     1      43.081 -16.542   2.716  1.00  0.00     0.003 A 
HETATM   23  C   UNL     1      43.270 -15.831   3.903  1.00  0.00     0.007 A 
BRANCH  20  24
HETATM   24  O   UNL     1      44.132 -19.881   3.798  1.00  0.00    -0.361 OA
HETATM   25  H   UNL     1      43.302 -20.376   3.889  1.00  0.00     0.217 HD
ENDBRANCH  20  24
ENDBRANCH  17  18
ENDBRANCH  16  17
ENDBRANCH   1  16
TORSDOF 6
ENDMDL
MODEL 6
REMARK VINA RESULT:      -7.6      3.848      7.691
REMARK  6 active torsions:
REMARK  status: ('A' for Active; 'I' for Inactive)
REMARK    1  A    between atoms: C_3  and  O_4 
REMARK    2  A    between atoms: C_6  and  C_7 
REMARK    3  A    between atoms: C_7  and  C_8 
REMARK    4  A    between atoms: C_8  and  N_9 
REMARK       I    between atoms: N_9  and  C_10 
REMARK    5  A    between atoms: C_10  and  C_11 
REMARK    6  A    between atoms: C_13  and  C_14 
ROOT
HETATM    1  N   UNL     1      41.667 -15.265   4.421  1.00  0.00    -0.357 N 
HETATM    2  C   UNL     1      40.945 -14.146   4.049  1.00  0.00     0.251 C 
HETATM    3  O   UNL     1      40.234 -14.106   3.052  1.00  0.00    -0.268 OA
HETATM    4  H   UNL     1      42.442 -15.138   5.057  1.00  0.00     0.162 HD
ENDROOT
BRANCH   2   5
HETATM    5  C   UNL     1      41.087 -12.936   4.908  1.00  0.00     0.032 A 
HETATM    6  C   UNL     1      42.334 -12.699   5.510  1.00  0.00     0.029 A 
HETATM    7  C   UNL     1      42.541 -11.569   6.312  1.00  0.00    -0.023 A 
HETATM    8  C   UNL     1      41.479 -10.673   6.499  1.00  0.00     0.012 A 
HETATM    9  C   UNL     1      40.239 -10.898   5.893  1.00  0.00     0.002 A 
HETATM   10  C   UNL     1      40.043 -12.025   5.094  1.00  0.00     0.017 A 
BRANCH   7  11
HETATM   11  C   UNL     1      43.833 -11.309   6.929  1.00  0.00    -0.002 A 
HETATM   12  C   UNL     1      44.038 -11.145   8.285  1.00  0.00     0.153 A 
HETATM   13  O   UNL     1      45.349 -10.913   8.554  1.00  0.00    -0.334 OA
HETATM   14  C   UNL     1      46.002 -10.928   7.365  1.00  0.00     0.142 A 
HETATM   15  C   UNL     1      45.119 -11.160   6.336  1.00  0.00     0.038 A 
ENDBRANCH   7  11
ENDBRANCH   2   5
BRANCH   1  16
HETATM   16  C   UNL     1      41.689 -16.434   3.558  1.00  0.00     0.127 C 
BRANCH  16  17
HETATM   17  C   UNL     1      43.098 -16.752   3.060  1.00  0.00     0.058 C 
BRANCH  17  18
HETATM   18  C   UNL     1      43.390 -18.229   3.130  1.00  0.00    -0.054 A 
HETATM   19  C   UNL     1      43.862 -18.800   4.320  1.00  0.00     0.043 A 
HETATM   20  C   UNL     1      44.094 -20.170   4.393  1.00  0.00     0.066 A 
HETATM   21  C   UNL     1      43.860 -20.994   3.296  1.00  0.00     0.036 A 
HETATM   22  C   UNL     1      43.388 -20.433   2.109  1.00  0.00     0.003 A 
HETATM   23  C   UNL     1      43.152 -19.059   2.026  1.00  0.00     0.007 A 
BRANCH  20  24
HETATM   24  O   UNL     1      44.549 -20.674   5.575  1.00  0.00    -0.361 OA
HETATM   25  H   UNL     1      44.551 -21.644   5.518  1.00  0.00     0.217 HD
ENDBRANCH  20  24
ENDBRANCH  17  18
ENDBRANCH  16  17
ENDBRANCH   1  16
TORSDOF 6
ENDMDL
MODEL 7
REMARK VINA RESULT:      -7.6      3.746      5.652
REMARK  6 active torsions:
REMARK  status: ('A' for Active; 'I' for Inactive)
REMARK    1  A    between atoms: C_3  and  O_4 
REMARK    2  A    between atoms: C_6  and  C_7 
REMARK    3  A    between atoms: C_7  and  C_8 
REMARK    4  A    between atoms: C_8  and  N_9 
REMARK       I    between atoms: N_9  and  C_10 
REMARK    5  A    between atoms: C_10  and  C_11 
REMARK    6  A    between atoms: C_13  and  C_14 
ROOT
HETATM    1  N   UNL     1      41.905 -13.662   3.826  1.00  0.00    -0.357 N 
HETATM    2  C   UNL     1      41.550 -14.698   4.668  1.00  0.00     0.251 C 
HETATM    3  O   UNL     1      40.450 -14.785   5.200  1.00  0.00    -0.268 OA
HETATM    4  H   UNL     1      42.889 -13.494   3.671  1.00  0.00     0.162 HD
ENDROOT
BRANCH   2   5
HETATM    5  C   UNL     1      42.593 -15.726   4.949  1.00  0.00     0.032 A 
HETATM    6  C   UNL     1      42.624 -16.870   4.136  1.00  0.00     0.029 A 
HETATM    7  C   UNL     1      43.592 -17.865   4.332  1.00  0.00    -0.023 A 
HETATM    8  C   UNL     1      44.534 -17.693   5.355  1.00  0.00     0.012 A 
HETATM    9  C   UNL     1      44.516 -16.551   6.160  1.00  0.00     0.002 A 
HETATM   10  C   UNL     1      43.550 -15.565   5.955  1.00  0.00     0.017 A 
BRANCH   7  11
HETATM   11  C   UNL     1      43.639 -19.048   3.486  1.00  0.00    -0.002 A 
HETATM   12  C   UNL     1      44.013 -20.306   3.914  1.00  0.00     0.153 A 
HETATM   13  O   UNL     1      43.960 -21.203   2.895  1.00  0.00    -0.334 OA
HETATM   14  C   UNL     1      43.546 -20.523   1.796  1.00  0.00     0.142 A 
HETATM   15  C   UNL     1      43.341 -19.198   2.101  1.00  0.00     0.038 A 
ENDBRANCH   7  11
ENDBRANCH   2   5
BRANCH   1  16
HETATM   16  C   UNL     1      40.991 -12.551   3.616  1.00  0.00     0.127 C 
BRANCH  16  17
HETATM   17  C   UNL     1      41.331 -11.355   4.504  1.00  0.00     0.058 C 
BRANCH  17  18
HETATM   18  C   UNL     1      42.667 -11.529   5.181  1.00  0.00    -0.054 A 
HETATM   19  C   UNL     1      43.854 -11.301   4.470  1.00  0.00     0.043 A 
HETATM   20  C   UNL     1      45.084 -11.424   5.110  1.00  0.00     0.066 A 
HETATM   21  C   UNL     1      45.158 -11.770   6.455  1.00  0.00     0.036 A 
HETATM   22  C   UNL     1      43.981 -11.996   7.169  1.00  0.00     0.003 A 
HETATM   23  C   UNL     1      42.742 -11.874   6.537  1.00  0.00     0.007 A 
BRANCH  20  24
HETATM   24  O   UNL     1      46.207 -11.188   4.374  1.00  0.00    -0.361 OA
HETATM   25  H   UNL     1      46.427 -10.245   4.440  1.00  0.00     0.217 HD
ENDBRANCH  20  24
ENDBRANCH  17  18
ENDBRANCH  16  17
ENDBRANCH   1  16
TORSDOF 6
ENDMDL
MODEL 8
REMARK VINA RESULT:      -7.5      3.139      4.988
REMARK  6 active torsions:
REMARK  status: ('A' for Active; 'I' for Inactive)
REMARK    1  A    between atoms: C_3  and  O_4 
REMARK    2  A    between atoms: C_6  and  C_7 
REMARK    3  A    between atoms: C_7  and  C_8 
REMARK    4  A    between atoms: C_8  and  N_9 
REMARK       I    between atoms: N_9  and  C_10 
REMARK    5  A    between atoms: C_10  and  C_11 
REMARK    6  A    between atoms: C_13  and  C_14 
ROOT
HETATM    1  N   UNL     1      41.104 -14.254   3.340  1.00  0.00    -0.357 N 
HETATM    2  C   UNL     1      42.425 -14.174   3.736  1.00  0.00     0.251 C 
HETATM    3  O   UNL     1      43.122 -13.182   3.559  1.00  0.00    -0.268 OA
HETATM    4  H   UNL     1      40.694 -15.172   3.243  1.00  0.00     0.162 HD
ENDROOT
BRANCH   2   5
HETATM    5  C   UNL     1      43.010 -15.386   4.379  1.00  0.00     0.032 A 
HETATM    6  C   UNL     1      43.039 -16.576   3.635  1.00  0.00     0.029 A 
HETATM    7  C   UNL     1      43.594 -17.746   4.172  1.00  0.00    -0.023 A 
HETATM    8  C   UNL     1      44.128 -17.703   5.467  1.00  0.00     0.012 A 
HETATM    9  C   UNL     1      44.112 -16.519   6.208  1.00  0.00     0.002 A 
HETATM   10  C   UNL     1      43.560 -15.359   5.665  1.00  0.00     0.017 A 
BRANCH   7  11
HETATM   11  C   UNL     1      43.639 -18.981   3.403  1.00  0.00    -0.002 A 
HETATM   12  C   UNL     1      44.021 -20.208   3.909  1.00  0.00     0.153 A 
HETATM   13  O   UNL     1      43.963 -21.168   2.950  1.00  0.00    -0.334 OA
HETATM   14  C   UNL     1      43.540 -20.562   1.813  1.00  0.00     0.142 A 
HETATM   15  C   UNL     1      43.333 -19.220   2.033  1.00  0.00     0.038 A 
ENDBRANCH   7  11
ENDBRANCH   2   5
BRANCH   1  16
HETATM   16  C   UNL     1      40.506 -13.167   2.583  1.00  0.00     0.127 C 
BRANCH  16  17
HETATM   17  C   UNL     1      39.288 -12.577   3.292  1.00  0.00     0.058 C 
BRANCH  17  18
HETATM   18  C   UNL     1      39.693 -11.675   4.431  1.00  0.00    -0.054 A 
HETATM   19  C   UNL     1      39.139 -11.856   5.706  1.00  0.00     0.043 A 
HETATM   20  C   UNL     1      39.544 -11.046   6.763  1.00  0.00     0.066 A 
HETATM   21  C   UNL     1      40.500 -10.053   6.577  1.00  0.00     0.036 A 
HETATM   22  C   UNL     1      41.058  -9.870   5.311  1.00  0.00     0.003 A 
HETATM   23  C   UNL     1      40.658 -10.677   4.244  1.00  0.00     0.007 A 
BRANCH  20  24
HETATM   24  O   UNL     1      38.977 -11.266   7.983  1.00  0.00    -0.361 OA
HETATM   25  H   UNL     1      39.321 -10.607   8.607  1.00  0.00     0.217 HD
ENDBRANCH  20  24
ENDBRANCH  17  18
ENDBRANCH  16  17
ENDBRANCH   1  16
TORSDOF 6
ENDMDL
MODEL 9
REMARK VINA RESULT:      -7.4      2.304      3.526
REMARK  6 active torsions:
REMARK  status: ('A' for Active; 'I' for Inactive)
REMARK    1  A    between atoms: C_3  and  O_4 
REMARK    2  A    between atoms: C_6  and  C_7 
REMARK    3  A    between atoms: C_7  and  C_8 
REMARK    4  A    between atoms: C_8  and  N_9 
REMARK       I    between atoms: N_9  and  C_10 
REMARK    5  A    between atoms: C_10  and  C_11 
REMARK    6  A    between atoms: C_13  and  C_14 
ROOT
HETATM    1  N   UNL     1      41.368 -13.650   0.676  1.00  0.00    -0.357 N 
HETATM    2  C   UNL     1      42.166 -13.532   1.799  1.00  0.00     0.251 C 
HETATM    3  O   UNL     1      42.499 -12.455   2.277  1.00  0.00    -0.268 OA
HETATM    4  H   UNL     1      41.383 -14.527   0.175  1.00  0.00     0.162 HD
ENDROOT
BRANCH   2   5
HETATM    5  C   UNL     1      42.654 -14.799   2.414  1.00  0.00     0.032 A 
HETATM    6  C   UNL     1      42.769 -14.851   3.813  1.00  0.00     0.029 A 
HETATM    7  C   UNL     1      43.202 -16.019   4.456  1.00  0.00    -0.023 A 
HETATM    8  C   UNL     1      43.513 -17.140   3.675  1.00  0.00     0.012 A 
HETATM    9  C   UNL     1      43.390 -17.099   2.283  1.00  0.00     0.002 A 
HETATM   10  C   UNL     1      42.956 -15.933   1.652  1.00  0.00     0.017 A 
BRANCH   7  11
HETATM   11  C   UNL     1      43.312 -16.084   5.905  1.00  0.00    -0.002 A 
HETATM   12  C   UNL     1      44.115 -16.972   6.593  1.00  0.00     0.153 A 
HETATM   13  O   UNL     1      44.001 -16.792   7.935  1.00  0.00    -0.334 OA
HETATM   14  C   UNL     1      43.119 -15.778   8.121  1.00  0.00     0.142 A 
HETATM   15  C   UNL     1      42.661 -15.313   6.910  1.00  0.00     0.038 A 
ENDBRANCH   7  11
ENDBRANCH   2   5
BRANCH   1  16
HETATM   16  C   UNL     1      40.970 -12.461  -0.058  1.00  0.00     0.127 C 
BRANCH  16  17
HETATM   17  C   UNL     1      39.451 -12.299  -0.107  1.00  0.00     0.058 C 
BRANCH  17  18
HETATM   18  C   UNL     1      38.849 -13.068  -1.255  1.00  0.00    -0.054 A 
HETATM   19  C   UNL     1      37.701 -12.589  -1.901  1.00  0.00     0.043 A 
HETATM   20  C   UNL     1      37.171 -13.281  -2.986  1.00  0.00     0.066 A 
HETATM   21  C   UNL     1      37.767 -14.450  -3.448  1.00  0.00     0.036 A 
HETATM   22  C   UNL     1      38.911 -14.931  -2.811  1.00  0.00     0.003 A 
HETATM   23  C   UNL     1      39.451 -14.244  -1.722  1.00  0.00     0.007 A 
BRANCH  20  24
HETATM   24  O   UNL     1      36.055 -12.769  -3.580  1.00  0.00    -0.361 OA
HETATM   25  H   UNL     1      35.551 -13.501  -3.971  1.00  0.00     0.217 HD
ENDBRANCH  20  24
ENDBRANCH  17  18
ENDBRANCH  16  17
ENDBRANCH   1  16
TORSDOF 6
ENDMDL
MODEL 10
REMARK VINA RESULT:      -7.3      1.635      2.199
REMARK  6 active torsions:
REMARK  status: ('A' for Active; 'I' for Inactive)
REMARK    1  A    between atoms: C_3  and  O_4 
REMARK    2  A    between atoms: C_6  and  C_7 
REMARK    3  A    between atoms: C_7  and  C_8 
REMARK    4  A    between atoms: C_8  and  N_9 
REMARK       I    between atoms: N_9  and  C_10 
REMARK    5  A    between atoms: C_10  and  C_11 
REMARK    6  A    between atoms: C_13  and  C_14 
ROOT
HETATM    1  N   UNL     1      41.134 -13.076   1.496  1.00  0.00    -0.357 N 
HETATM    2  C   UNL     1      40.242 -13.399   2.500  1.00  0.00     0.251 C 
HETATM    3  O   UNL     1      39.093 -12.974   2.541  1.00  0.00    -0.268 OA
HETATM    4  H   UNL     1      42.119 -13.208   1.678  1.00  0.00     0.162 HD
ENDROOT
BRANCH   2   5
HETATM    5  C   UNL     1      40.744 -14.283   3.590  1.00  0.00     0.032 A 
HETATM    6  C   UNL     1      41.589 -15.348   3.237  1.00  0.00     0.029 A 
HETATM    7  C   UNL     1      42.113 -16.204   4.215  1.00  0.00    -0.023 A 
HETATM    8  C   UNL     1      41.783 -15.973   5.557  1.00  0.00     0.012 A 
HETATM    9  C   UNL     1      40.952 -14.908   5.916  1.00  0.00     0.002 A 
HETATM   10  C   UNL     1      40.437 -14.059   4.936  1.00  0.00     0.017 A 
BRANCH   7  11
HETATM   11  C   UNL     1      42.998 -17.303   3.858  1.00  0.00    -0.002 A 
HETATM   12  C   UNL     1      43.961 -17.838   4.692  1.00  0.00     0.153 A 
HETATM   13  O   UNL     1      44.629 -18.849   4.076  1.00  0.00    -0.334 OA
HETATM   14  C   UNL     1      44.095 -18.973   2.835  1.00  0.00     0.142 A 
HETATM   15  C   UNL     1      43.097 -18.046   2.648  1.00  0.00     0.038 A 
ENDBRANCH   7  11
ENDBRANCH   2   5
BRANCH   1  16
HETATM   16  C   UNL     1      40.761 -12.110   0.476  1.00  0.00     0.127 C 
BRANCH  16  17
HETATM   17  C   UNL     1      40.960 -12.660  -0.935  1.00  0.00     0.058 C 
BRANCH  17  18
HETATM   18  C   UNL     1      39.643 -12.906  -1.625  1.00  0.00    -0.054 A 
HETATM   19  C   UNL     1      39.540 -13.882  -2.626  1.00  0.00     0.043 A 
HETATM   20  C   UNL     1      38.313 -14.133  -3.232  1.00  0.00     0.066 A 
HETATM   21  C   UNL     1      37.174 -13.428  -2.858  1.00  0.00     0.036 A 
HETATM   22  C   UNL     1      37.267 -12.457  -1.861  1.00  0.00     0.003 A 
HETATM   23  C   UNL     1      38.494 -12.198  -1.246  1.00  0.00     0.007 A 
BRANCH  20  24
HETATM   24  O   UNL     1      38.268 -15.095  -4.198  1.00  0.00    -0.361 OA
HETATM   25  H   UNL     1      37.925 -14.697  -5.014  1.00  0.00     0.217 HD
ENDBRANCH  20  24
ENDBRANCH  17  18
ENDBRANCH  16  17
ENDBRANCH   1  16
TORSDOF 6
ENDMDL
