MODEL 1
REMARK VINA RESULT:      -8.5      0.000      0.000
REMARK  5 active torsions:
REMARK  status: ('A' for Active; 'I' for Inactive)
REMARK    1  A    between atoms: C_8  and  N_9 
REMARK    2  A    between atoms: N_9  and  C_10 
REMARK    3  A    between atoms: C_10  and  C_11 
REMARK       I    between atoms: C_11  and  N_12 
REMARK    4  A    between atoms: N_12  and  N_13 
REMARK    5  A    between atoms: C_14  and  C_15 
ROOT
HETATM    1  C   UNL     1      41.431 -15.313   4.400  1.00  0.00     0.250 C 
HETATM    2  N   UNL     1      40.648 -15.767   3.338  1.00  0.00    -0.246 N 
HETATM    3  O   UNL     1      41.679 -14.133   4.640  1.00  0.00    -0.270 OA
HETATM    4  H   UNL     1      40.274 -16.711   3.382  1.00  0.00     0.192 HD
ENDROOT
BRANCH   2   5
HETATM    5  N   UNL     1      39.951 -14.967   2.463  1.00  0.00    -0.184 NA
HETATM    6  C   UNL     1      40.570 -14.490   1.429  1.00  0.00     0.152 C 
BRANCH   6   7
HETATM    7  C   UNL     1      39.858 -13.610   0.522  1.00  0.00     0.011 A 
HETATM    8  C   UNL     1      39.329 -13.945  -0.768  1.00  0.00     0.004 A 
HETATM    9  C   UNL     1      38.726 -12.795  -1.282  1.00  0.00     0.043 A 
HETATM   10  C   UNL     1      39.307 -15.120  -1.549  1.00  0.00     0.014 A 
HETATM   11  C   UNL     1      38.100 -12.763  -2.535  1.00  0.00     0.030 A 
HETATM   12  N   UNL     1      38.884 -11.800  -0.347  1.00  0.00    -0.364 N 
HETATM   13  C   UNL     1      38.092 -13.941  -3.287  1.00  0.00     0.002 A 
HETATM   14  C   UNL     1      38.686 -15.103  -2.804  1.00  0.00     0.001 A 
HETATM   15  H   UNL     1      38.549 -10.853  -0.455  1.00  0.00     0.165 HD
HETATM   16  C   UNL     1      39.563 -12.277   0.741  1.00  0.00     0.102 A 
ENDBRANCH   6   7
ENDBRANCH   2   5
BRANCH   1  17
HETATM   17  C   UNL     1      41.967 -16.458   5.275  1.00  0.00     0.197 C 
BRANCH  17  18
HETATM   18  N   UNL     1      43.385 -16.726   4.969  1.00  0.00    -0.284 NA
HETATM   19  H   UNL     1      43.989 -16.408   5.725  1.00  0.00     0.128 HD
BRANCH  18  20
HETATM   20  C   UNL     1      43.632 -18.075   4.640  1.00  0.00     0.016 A 
HETATM   21  C   UNL     1      43.588 -18.531   3.303  1.00  0.00    -0.019 A 
HETATM   22  C   UNL     1      43.406 -17.566   2.158  1.00  0.00     0.052 C 
HETATM   23  C   UNL     1      43.725 -19.911   3.057  1.00  0.00     0.041 A 
HETATM   24 CL   UNL     1      43.638 -20.564   1.457  1.00  0.00    -0.084 Cl
HETATM   25  C   UNL     1      43.930 -20.813   4.104  1.00  0.00     0.024 A 
HETATM   26  C   UNL     1      43.990 -20.356   5.416  1.00  0.00     0.003 A 
HETATM   27  C   UNL     1      43.833 -18.997   5.681  1.00  0.00     0.024 A 
ENDBRANCH  18  20
ENDBRANCH  17  18
ENDBRANCH   1  17
TORSDOF 5
ENDMDL
MODEL 2
REMARK VINA RESULT:      -8.2      2.799      8.499
REMARK  5 active torsions:
REMARK  status: ('A' for Active; 'I' for Inactive)
REMARK    1  A    between atoms: C_8  and  N_9 
REMARK    2  A    between atoms: N_9  and  C_10 
REMARK    3  A    between atoms: C_10  and  C_11 
REMARK       I    between atoms: C_11  and  N_12 
REMARK    4  A    between atoms: N_12  and  N_13 
REMARK    5  A    between atoms: C_14  and  C_15 
ROOT
HETATM    1  C   UNL     1      41.485 -13.183   1.652  1.00  0.00     0.250 C 
HETATM    2  N   UNL     1      41.308 -14.567   1.610  1.00  0.00    -0.246 N 
HETATM    3  O   UNL     1      41.960 -12.560   2.599  1.00  0.00    -0.270 OA
HETATM    4  H   UNL     1      41.176 -15.010   0.705  1.00  0.00     0.192 HD
ENDROOT
BRANCH   2   5
HETATM    5  N   UNL     1      41.731 -15.453   2.572  1.00  0.00    -0.184 NA
HETATM    6  C   UNL     1      42.961 -15.861   2.545  1.00  0.00     0.152 C 
BRANCH   6   7
HETATM    7  C   UNL     1      43.408 -16.829   3.529  1.00  0.00     0.011 A 
HETATM    8  C   UNL     1      43.525 -18.246   3.352  1.00  0.00     0.004 A 
HETATM    9  C   UNL     1      43.993 -18.779   4.555  1.00  0.00     0.043 A 
HETATM   10  C   UNL     1      43.274 -19.130   2.281  1.00  0.00     0.014 A 
HETATM   11  C   UNL     1      44.226 -20.148   4.739  1.00  0.00     0.030 A 
HETATM   12  N   UNL     1      44.151 -17.730   5.430  1.00  0.00    -0.364 N 
HETATM   13  C   UNL     1      43.971 -21.000   3.661  1.00  0.00     0.002 A 
HETATM   14  C   UNL     1      43.502 -20.501   2.449  1.00  0.00     0.001 A 
HETATM   15  H   UNL     1      44.474 -17.822   6.382  1.00  0.00     0.165 HD
HETATM   16  C   UNL     1      43.804 -16.553   4.824  1.00  0.00     0.102 A 
ENDBRANCH   6   7
ENDBRANCH   2   5
BRANCH   1  17
HETATM   17  C   UNL     1      41.023 -12.486   0.362  1.00  0.00     0.197 C 
BRANCH  17  18
HETATM   18  N   UNL     1      39.550 -12.426   0.301  1.00  0.00    -0.284 NA
HETATM   19  H   UNL     1      39.216 -11.476   0.446  1.00  0.00     0.128 HD
BRANCH  18  20
HETATM   20  C   UNL     1      39.025 -12.986  -0.882  1.00  0.00     0.016 A 
HETATM   21  C   UNL     1      37.896 -12.431  -1.526  1.00  0.00    -0.019 A 
HETATM   22  C   UNL     1      37.288 -11.136  -1.050  1.00  0.00     0.052 C 
HETATM   23  C   UNL     1      37.351 -13.109  -2.634  1.00  0.00     0.041 A 
HETATM   24 CL   UNL     1      35.944 -12.526  -3.456  1.00  0.00    -0.084 Cl
HETATM   25  C   UNL     1      37.925 -14.291  -3.110  1.00  0.00     0.024 A 
HETATM   26  C   UNL     1      39.045 -14.823  -2.482  1.00  0.00     0.003 A 
HETATM   27  C   UNL     1      39.585 -14.179  -1.370  1.00  0.00     0.024 A 
ENDBRANCH  18  20
ENDBRANCH  17  18
ENDBRANCH   1  17
TORSDOF 5
ENDMDL
MODEL 3
REMARK VINA RESULT:      -8.2      5.012      7.657
REMARK  5 active torsions:
REMARK  status: ('A' for Active; 'I' for Inactive)
REMARK    1  A    between atoms: C_8  and  N_9 
REMARK    2  A    between atoms: N_9  and  C_10 
REMARK    3  A    between atoms: C_10  and  C_11 
REMARK       I    between atoms: C_11  and  N_12 
REMARK    4  A    between atoms: N_12  and  N_13 
REMARK    5  A    between atoms: C_14  and  C_15 
ROOT
HETATM    1  C   UNL     1      42.309 -14.673   6.181  1.00  0.00     0.250 C 
HETATM    2  N   UNL     1      43.577 -14.441   6.717  1.00  0.00    -0.246 N 
HETATM    3  O   UNL     1      41.368 -13.882   6.225  1.00  0.00    -0.270 OA
HETATM    4  H   UNL     1      44.350 -15.016   6.394  1.00  0.00     0.192 HD
ENDROOT
BRANCH   2   5
HETATM    5  N   UNL     1      44.000 -13.259   7.278  1.00  0.00    -0.184 NA
HETATM    6  C   UNL     1      44.618 -12.401   6.529  1.00  0.00     0.152 C 
BRANCH   6   7
HETATM    7  C   UNL     1      45.108 -11.169   7.119  1.00  0.00     0.011 A 
HETATM    8  C   UNL     1      44.330 -10.152   7.763  1.00  0.00     0.004 A 
HETATM    9  C   UNL     1      45.212  -9.153   8.180  1.00  0.00     0.043 A 
HETATM   10  C   UNL     1      42.954  -9.985   8.031  1.00  0.00     0.014 A 
HETATM   11  C   UNL     1      44.790  -7.999   8.852  1.00  0.00     0.030 A 
HETATM   12  N   UNL     1      46.475  -9.543   7.801  1.00  0.00    -0.364 N 
HETATM   13  C   UNL     1      43.422  -7.861   9.105  1.00  0.00     0.002 A 
HETATM   14  C   UNL     1      42.516  -8.837   8.702  1.00  0.00     0.001 A 
HETATM   15  H   UNL     1      47.315  -9.008   7.969  1.00  0.00     0.165 HD
HETATM   16  C   UNL     1      46.426 -10.753   7.164  1.00  0.00     0.102 A 
ENDBRANCH   6   7
ENDBRANCH   2   5
BRANCH   1  17
HETATM   17  C   UNL     1      42.192 -16.048   5.505  1.00  0.00     0.197 C 
BRANCH  17  18
HETATM   18  N   UNL     1      43.365 -16.309   4.650  1.00  0.00    -0.284 NA
HETATM   19  H   UNL     1      44.189 -15.824   5.001  1.00  0.00     0.128 HD
BRANCH  18  20
HETATM   20  C   UNL     1      43.614 -17.684   4.460  1.00  0.00     0.016 A 
HETATM   21  C   UNL     1      43.573 -18.274   3.176  1.00  0.00    -0.019 A 
HETATM   22  C   UNL     1      43.394 -17.431   1.939  1.00  0.00     0.052 C 
HETATM   23  C   UNL     1      43.712 -19.672   3.072  1.00  0.00     0.041 A 
HETATM   24 CL   UNL     1      43.629 -20.484   1.546  1.00  0.00    -0.084 Cl
HETATM   25  C   UNL     1      43.915 -20.462   4.206  1.00  0.00     0.024 A 
HETATM   26  C   UNL     1      43.972 -19.875   5.464  1.00  0.00     0.003 A 
HETATM   27  C   UNL     1      43.813 -18.496   5.589  1.00  0.00     0.024 A 
ENDBRANCH  18  20
ENDBRANCH  17  18
ENDBRANCH   1  17
TORSDOF 5
ENDMDL
MODEL 4
REMARK VINA RESULT:      -8.1      6.860      9.548
REMARK  5 active torsions:
REMARK  status: ('A' for Active; 'I' for Inactive)
REMARK    1  A    between atoms: C_8  and  N_9 
REMARK    2  A    between atoms: N_9  and  C_10 
REMARK    3  A    between atoms: C_10  and  C_11 
REMARK       I    between atoms: C_11  and  N_12 
REMARK    4  A    between atoms: N_12  and  N_13 
REMARK    5  A    between atoms: C_14  and  C_15 
ROOT
HETATM    1  C   UNL     1      44.871 -11.562   7.104  1.00  0.00     0.250 C 
HETATM    2  N   UNL     1      43.749 -12.391   7.137  1.00  0.00    -0.246 N 
HETATM    3  O   UNL     1      45.600 -11.398   6.127  1.00  0.00    -0.270 OA
HETATM    4  H   UNL     1      43.066 -12.249   7.875  1.00  0.00     0.192 HD
ENDROOT
BRANCH   2   5
HETATM    5  N   UNL     1      43.226 -13.066   6.060  1.00  0.00    -0.184 NA
HETATM    6  C   UNL     1      43.417 -14.346   5.975  1.00  0.00     0.152 C 
BRANCH   6   7
HETATM    7  C   UNL     1      42.907 -15.063   4.821  1.00  0.00     0.011 A 
HETATM    8  C   UNL     1      43.314 -16.358   4.363  1.00  0.00     0.004 A 
HETATM    9  C   UNL     1      42.560 -16.653   3.224  1.00  0.00     0.043 A 
HETATM   10  C   UNL     1      44.256 -17.311   4.807  1.00  0.00     0.014 A 
HETATM   11  C   UNL     1      42.698 -17.852   2.513  1.00  0.00     0.030 A 
HETATM   12  N   UNL     1      41.732 -15.580   2.997  1.00  0.00    -0.364 N 
HETATM   13  C   UNL     1      43.637 -18.777   2.976  1.00  0.00     0.002 A 
HETATM   14  C   UNL     1      44.406 -18.513   4.106  1.00  0.00     0.001 A 
HETATM   15  H   UNL     1      41.075 -15.515   2.232  1.00  0.00     0.165 HD
HETATM   16  C   UNL     1      41.930 -14.618   3.950  1.00  0.00     0.102 A 
ENDBRANCH   6   7
ENDBRANCH   2   5
BRANCH   1  17
HETATM   17  C   UNL     1      45.120 -10.844   8.440  1.00  0.00     0.197 C 
BRANCH  17  18
HETATM   18  N   UNL     1      43.966 -11.014   9.344  1.00  0.00    -0.284 NA
HETATM   19  H   UNL     1      44.096 -11.817   9.957  1.00  0.00     0.128 HD
BRANCH  18  20
HETATM   20  C   UNL     1      43.663  -9.847  10.076  1.00  0.00     0.016 A 
HETATM   21  C   UNL     1      43.373  -9.894  11.458  1.00  0.00    -0.019 A 
HETATM   22  C   UNL     1      43.507 -11.178  12.237  1.00  0.00     0.052 C 
HETATM   23  C   UNL     1      42.961  -8.710  12.100  1.00  0.00     0.041 A 
HETATM   24 CL   UNL     1      42.541  -8.684  13.779  1.00  0.00    -0.084 Cl
HETATM   25  C   UNL     1      42.866  -7.505  11.400  1.00  0.00     0.024 A 
HETATM   26  C   UNL     1      43.170  -7.461  10.044  1.00  0.00     0.003 A 
HETATM   27  C   UNL     1      43.557  -8.628   9.386  1.00  0.00     0.024 A 
ENDBRANCH  18  20
ENDBRANCH  17  18
ENDBRANCH   1  17
TORSDOF 5
ENDMDL
MODEL 5
REMARK VINA RESULT:      -8.0      6.842      9.908
REMARK  5 active torsions:
REMARK  status: ('A' for Active; 'I' for Inactive)
REMARK    1  A    between atoms: C_8  and  N_9 
REMARK    2  A    between atoms: N_9  and  C_10 
REMARK    3  A    between atoms: C_10  and  C_11 
REMARK       I    between atoms: C_11  and  N_12 
REMARK    4  A    between atoms: N_12  and  N_13 
REMARK    5  A    between atoms: C_14  and  C_15 
ROOT
HETATM    1  C   UNL     1      44.250 -11.668   6.925  1.00  0.00     0.250 C 
HETATM    2  N   UNL     1      43.570 -12.857   7.191  1.00  0.00    -0.246 N 
HETATM    3  O   UNL     1      45.234 -11.564   6.194  1.00  0.00    -0.270 OA
HETATM    4  H   UNL     1      42.628 -12.801   7.568  1.00  0.00     0.192 HD
ENDROOT
BRANCH   2   5
HETATM    5  N   UNL     1      43.827 -14.071   6.598  1.00  0.00    -0.184 NA
HETATM    6  C   UNL     1      42.962 -15.026   6.736  1.00  0.00     0.152 C 
BRANCH   6   7
HETATM    7  C   UNL     1      43.242 -16.325   6.152  1.00  0.00     0.011 A 
HETATM    8  C   UNL     1      43.290 -16.650   4.757  1.00  0.00     0.004 A 
HETATM    9  C   UNL     1      43.593 -18.010   4.657  1.00  0.00     0.043 A 
HETATM   10  C   UNL     1      43.101 -15.917   3.567  1.00  0.00     0.014 A 
HETATM   11  C   UNL     1      43.721 -18.670   3.428  1.00  0.00     0.030 A 
HETATM   12  N   UNL     1      43.721 -18.493   5.938  1.00  0.00    -0.364 N 
HETATM   13  C   UNL     1      43.531 -17.919   2.265  1.00  0.00     0.002 A 
HETATM   14  C   UNL     1      43.225 -16.562   2.331  1.00  0.00     0.001 A 
HETATM   15  H   UNL     1      43.935 -19.453   6.169  1.00  0.00     0.165 HD
HETATM   16  C   UNL     1      43.513 -17.490   6.845  1.00  0.00     0.102 A 
ENDBRANCH   6   7
ENDBRANCH   2   5
BRANCH   1  17
HETATM   17  C   UNL     1      43.636 -10.458   7.647  1.00  0.00     0.197 C 
BRANCH  17  18
HETATM   18  N   UNL     1      43.567 -10.699   9.101  1.00  0.00    -0.284 NA
HETATM   19  H   UNL     1      44.368 -11.241   9.421  1.00  0.00     0.128 HD
BRANCH  18  20
HETATM   20  C   UNL     1      43.410  -9.515   9.850  1.00  0.00     0.016 A 
HETATM   21  C   UNL     1      43.274  -9.540  11.256  1.00  0.00    -0.019 A 
HETATM   22  C   UNL     1      43.427 -10.826  12.029  1.00  0.00     0.052 C 
HETATM   23  C   UNL     1      43.000  -8.333  11.928  1.00  0.00     0.041 A 
HETATM   24 CL   UNL     1      42.774  -8.277  13.644  1.00  0.00    -0.084 Cl
HETATM   25  C   UNL     1      42.892  -7.127  11.231  1.00  0.00     0.024 A 
HETATM   26  C   UNL     1      43.044  -7.106   9.849  1.00  0.00     0.003 A 
HETATM   27  C   UNL     1      43.292  -8.294   9.164  1.00  0.00     0.024 A 
ENDBRANCH  18  20
ENDBRANCH  17  18
ENDBRANCH   1  17
TORSDOF 5
ENDMDL
MODEL 6
REMARK VINA RESULT:      -8.0      4.647      7.220
REMARK  5 active torsions:
REMARK  status: ('A' for Active; 'I' for Inactive)
REMARK    1  A    between atoms: C_8  and  N_9 
REMARK    2  A    between atoms: N_9  and  C_10 
REMARK    3  A    between atoms: C_10  and  C_11 
REMARK       I    between atoms: C_11  and  N_12 
REMARK    4  A    between atoms: N_12  and  N_13 
REMARK    5  A    between atoms: C_14  and  C_15 
ROOT
HETATM    1  C   UNL     1      41.794 -14.435   3.391  1.00  0.00     0.250 C 
HETATM    2  N   UNL     1      41.768 -14.255   4.775  1.00  0.00    -0.246 N 
HETATM    3  O   UNL     1      41.742 -13.531   2.559  1.00  0.00    -0.270 OA
HETATM    4  H   UNL     1      42.093 -15.014   5.367  1.00  0.00     0.192 HD
ENDROOT
BRANCH   2   5
HETATM    5  N   UNL     1      41.788 -13.040   5.420  1.00  0.00    -0.184 NA
HETATM    6  C   UNL     1      42.919 -12.588   5.861  1.00  0.00     0.152 C 
BRANCH   6   7
HETATM    7  C   UNL     1      42.947 -11.329   6.581  1.00  0.00     0.011 A 
HETATM    8  C   UNL     1      44.091 -10.696   7.167  1.00  0.00     0.004 A 
HETATM    9  C   UNL     1      43.654  -9.506   7.754  1.00  0.00     0.043 A 
HETATM   10  C   UNL     1      45.461 -11.022   7.256  1.00  0.00     0.014 A 
HETATM   11  C   UNL     1      44.517  -8.627   8.421  1.00  0.00     0.030 A 
HETATM   12  N   UNL     1      42.298  -9.421   7.539  1.00  0.00    -0.364 N 
HETATM   13  C   UNL     1      45.869  -8.975   8.493  1.00  0.00     0.002 A 
HETATM   14  C   UNL     1      46.336 -10.154   7.920  1.00  0.00     0.001 A 
HETATM   15  H   UNL     1      41.714  -8.663   7.860  1.00  0.00     0.165 HD
HETATM   16  C   UNL     1      41.862 -10.510   6.835  1.00  0.00     0.102 A 
ENDBRANCH   6   7
ENDBRANCH   2   5
BRANCH   1  17
HETATM   17  C   UNL     1      41.903 -15.914   2.987  1.00  0.00     0.197 C 
BRANCH  17  18
HETATM   18  N   UNL     1      43.274 -16.413   3.203  1.00  0.00    -0.284 NA
HETATM   19  H   UNL     1      43.681 -16.012   4.046  1.00  0.00     0.128 HD
BRANCH  18  20
HETATM   20  C   UNL     1      43.354 -17.821   3.208  1.00  0.00     0.016 A 
HETATM   21  C   UNL     1      43.787 -18.534   4.349  1.00  0.00    -0.019 A 
HETATM   22  C   UNL     1      44.053 -17.827   5.653  1.00  0.00     0.052 C 
HETATM   23  C   UNL     1      43.958 -19.929   4.246  1.00  0.00     0.041 A 
HETATM   24 CL   UNL     1      44.527 -20.876   5.578  1.00  0.00    -0.084 Cl
HETATM   25  C   UNL     1      43.681 -20.604   3.055  1.00  0.00     0.024 A 
HETATM   26  C   UNL     1      43.239 -19.899   1.942  1.00  0.00     0.003 A 
HETATM   27  C   UNL     1      43.086 -18.516   2.017  1.00  0.00     0.024 A 
ENDBRANCH  18  20
ENDBRANCH  17  18
ENDBRANCH   1  17
TORSDOF 5
ENDMDL
MODEL 7
REMARK VINA RESULT:      -7.9      6.994      9.784
REMARK  5 active torsions:
REMARK  status: ('A' for Active; 'I' for Inactive)
REMARK    1  A    between atoms: C_8  and  N_9 
REMARK    2  A    between atoms: N_9  and  C_10 
REMARK    3  A    between atoms: C_10  and  C_11 
REMARK       I    between atoms: C_11  and  N_12 
REMARK    4  A    between atoms: N_12  and  N_13 
REMARK    5  A    between atoms: C_14  and  C_15 
ROOT
HETATM    1  C   UNL     1      44.235 -11.420   7.086  1.00  0.00     0.250 C 
HETATM    2  N   UNL     1      43.489 -12.510   7.534  1.00  0.00    -0.246 N 
HETATM    3  O   UNL     1      45.265 -11.495   6.418  1.00  0.00    -0.270 OA
HETATM    4  H   UNL     1      42.530 -12.351   7.827  1.00  0.00     0.192 HD
ENDROOT
BRANCH   2   5
HETATM    5  N   UNL     1      43.729 -13.825   7.211  1.00  0.00    -0.184 NA
HETATM    6  C   UNL     1      43.345 -14.261   6.052  1.00  0.00     0.152 C 
BRANCH   6   7
HETATM    7  C   UNL     1      43.552 -15.657   5.716  1.00  0.00     0.011 A 
HETATM    8  C   UNL     1      43.443 -16.258   4.419  1.00  0.00     0.004 A 
HETATM    9  C   UNL     1      43.728 -17.617   4.564  1.00  0.00     0.043 A 
HETATM   10  C   UNL     1      43.126 -15.773   3.132  1.00  0.00     0.014 A 
HETATM   11  C   UNL     1      43.716 -18.514   3.488  1.00  0.00     0.030 A 
HETATM   12  N   UNL     1      43.996 -17.836   5.895  1.00  0.00    -0.364 N 
HETATM   13  C   UNL     1      43.400 -18.006   2.224  1.00  0.00     0.002 A 
HETATM   14  C   UNL     1      43.109 -16.656   2.047  1.00  0.00     0.001 A 
HETATM   15  H   UNL     1      44.230 -18.735   6.291  1.00  0.00     0.165 HD
HETATM   16  C   UNL     1      43.894 -16.667   6.597  1.00  0.00     0.102 A 
ENDBRANCH   6   7
ENDBRANCH   2   5
BRANCH   1  17
HETATM   17  C   UNL     1      43.632 -10.071   7.511  1.00  0.00     0.197 C 
BRANCH  17  18
HETATM   18  N   UNL     1      44.490  -9.410   8.513  1.00  0.00    -0.284 NA
HETATM   19  H   UNL     1      44.844  -8.521   8.162  1.00  0.00     0.128 HD
BRANCH  18  20
HETATM   20  C   UNL     1      43.861  -9.260   9.766  1.00  0.00     0.016 A 
HETATM   21  C   UNL     1      43.410  -8.001  10.222  1.00  0.00    -0.019 A 
HETATM   22  C   UNL     1      43.462  -6.786   9.330  1.00  0.00     0.052 C 
HETATM   23  C   UNL     1      42.900  -7.902  11.531  1.00  0.00     0.041 A 
HETATM   24 CL   UNL     1      42.367  -6.393  12.190  1.00  0.00    -0.084 Cl
HETATM   25  C   UNL     1      42.811  -9.026  12.357  1.00  0.00     0.024 A 
HETATM   26  C   UNL     1      43.240 -10.265  11.897  1.00  0.00     0.003 A 
HETATM   27  C   UNL     1      43.769 -10.378  10.612  1.00  0.00     0.024 A 
ENDBRANCH  18  20
ENDBRANCH  17  18
ENDBRANCH   1  17
TORSDOF 5
ENDMDL
MODEL 8
REMARK VINA RESULT:      -7.7      3.843      8.788
REMARK  5 active torsions:
REMARK  status: ('A' for Active; 'I' for Inactive)
REMARK    1  A    between atoms: C_8  and  N_9 
REMARK    2  A    between atoms: N_9  and  C_10 
REMARK    3  A    between atoms: C_10  and  C_11 
REMARK       I    between atoms: C_11  and  N_12 
REMARK    4  A    between atoms: N_12  and  N_13 
REMARK    5  A    between atoms: C_14  and  C_15 
ROOT
HETATM    1  C   UNL     1      42.507 -11.434   2.724  1.00  0.00     0.250 C 
HETATM    2  N   UNL     1      42.030 -12.745   2.703  1.00  0.00    -0.246 N 
HETATM    3  O   UNL     1      43.589 -11.083   3.191  1.00  0.00    -0.270 OA
HETATM    4  H   UNL     1      41.276 -12.974   2.063  1.00  0.00     0.192 HD
ENDROOT
BRANCH   2   5
HETATM    5  N   UNL     1      42.737 -13.856   3.101  1.00  0.00    -0.184 NA
HETATM    6  C   UNL     1      42.251 -14.596   4.047  1.00  0.00     0.152 C 
BRANCH   6   7
HETATM    7  C   UNL     1      43.007 -15.746   4.507  1.00  0.00     0.011 A 
HETATM    8  C   UNL     1      43.184 -16.992   3.820  1.00  0.00     0.004 A 
HETATM    9  C   UNL     1      43.983 -17.803   4.629  1.00  0.00     0.043 A 
HETATM   10  C   UNL     1      42.738 -17.508   2.585  1.00  0.00     0.014 A 
HETATM   11  C   UNL     1      44.360 -19.102   4.263  1.00  0.00     0.030 A 
HETATM   12  N   UNL     1      44.277 -17.083   5.763  1.00  0.00    -0.364 N 
HETATM   13  C   UNL     1      43.906 -19.588   3.034  1.00  0.00     0.002 A 
HETATM   14  C   UNL     1      43.106 -18.805   2.205  1.00  0.00     0.001 A 
HETATM   15  H   UNL     1      44.838 -17.426   6.529  1.00  0.00     0.165 HD
HETATM   16  C   UNL     1      43.697 -15.846   5.701  1.00  0.00     0.102 A 
ENDBRANCH   6   7
ENDBRANCH   2   5
BRANCH   1  17
HETATM   17  C   UNL     1      41.528 -10.435   2.086  1.00  0.00     0.197 C 
BRANCH  17  18
HETATM   18  N   UNL     1      42.151  -9.762   0.931  1.00  0.00    -0.284 NA
HETATM   19  H   UNL     1      43.155  -9.933   0.905  1.00  0.00     0.128 HD
BRANCH  18  20
HETATM   20  C   UNL     1      41.536 -10.089  -0.295  1.00  0.00     0.016 A 
HETATM   21  C   UNL     1      41.778  -9.338  -1.468  1.00  0.00    -0.019 A 
HETATM   22  C   UNL     1      42.808  -8.237  -1.488  1.00  0.00     0.052 C 
HETATM   23  C   UNL     1      41.040  -9.645  -2.628  1.00  0.00     0.041 A 
HETATM   24 CL   UNL     1      41.237  -8.749  -4.096  1.00  0.00    -0.084 Cl
HETATM   25  C   UNL     1      40.108 -10.686  -2.636  1.00  0.00     0.024 A 
HETATM   26  C   UNL     1      39.887 -11.431  -1.484  1.00  0.00     0.003 A 
HETATM   27  C   UNL     1      40.591 -11.128  -0.320  1.00  0.00     0.024 A 
ENDBRANCH  18  20
ENDBRANCH  17  18
ENDBRANCH   1  17
TORSDOF 5
ENDMDL
MODEL 9
REMARK VINA RESULT:      -7.6      4.610      7.336
REMARK  5 active torsions:
REMARK  status: ('A' for Active; 'I' for Inactive)
REMARK    1  A    between atoms: C_8  and  N_9 
REMARK    2  A    between atoms: N_9  and  C_10 
REMARK    3  A    between atoms: C_10  and  C_11 
REMARK       I    between atoms: C_11  and  N_12 
REMARK    4  A    between atoms: N_12  and  N_13 
REMARK    5  A    between atoms: C_14  and  C_15 
ROOT
HETATM    1  C   UNL     1      41.183 -13.336   2.785  1.00  0.00     0.250 C 
HETATM    2  N   UNL     1      40.526 -12.670   3.820  1.00  0.00    -0.246 N 
HETATM    3  O   UNL     1      42.309 -13.063   2.372  1.00  0.00    -0.270 OA
HETATM    4  H   UNL     1      39.740 -13.132   4.269  1.00  0.00     0.192 HD
ENDROOT
BRANCH   2   5
HETATM    5  N   UNL     1      41.072 -11.681   4.604  1.00  0.00    -0.184 NA
HETATM    6  C   UNL     1      41.745 -12.023   5.658  1.00  0.00     0.152 C 
BRANCH   6   7
HETATM    7  C   UNL     1      42.289 -10.988   6.517  1.00  0.00     0.011 A 
HETATM    8  C   UNL     1      43.665 -10.792   6.864  1.00  0.00     0.004 A 
HETATM    9  C   UNL     1      43.728  -9.681   7.709  1.00  0.00     0.043 A 
HETATM   10  C   UNL     1      44.868 -11.455   6.541  1.00  0.00     0.014 A 
HETATM   11  C   UNL     1      44.930  -9.200   8.243  1.00  0.00     0.030 A 
HETATM   12  N   UNL     1      42.442  -9.223   7.873  1.00  0.00    -0.364 N 
HETATM   13  C   UNL     1      46.106  -9.876   7.904  1.00  0.00     0.002 A 
HETATM   14  C   UNL     1      46.078 -10.987   7.066  1.00  0.00     0.001 A 
HETATM   15  H   UNL     1      42.185  -8.429   8.442  1.00  0.00     0.165 HD
HETATM   16  C   UNL     1      41.569 -10.000   7.162  1.00  0.00     0.102 A 
ENDBRANCH   6   7
ENDBRANCH   2   5
BRANCH   1  17
HETATM   17  C   UNL     1      40.350 -14.483   2.192  1.00  0.00     0.197 C 
BRANCH  17  18
HETATM   18  N   UNL     1      40.024 -15.480   3.230  1.00  0.00    -0.284 NA
HETATM   19  H   UNL     1      39.239 -16.063   2.945  1.00  0.00     0.128 HD
BRANCH  18  20
HETATM   20  C   UNL     1      41.135 -16.258   3.614  1.00  0.00     0.016 A 
HETATM   21  C   UNL     1      41.526 -16.374   4.967  1.00  0.00    -0.019 A 
HETATM   22  C   UNL     1      40.691 -15.777   6.071  1.00  0.00     0.052 C 
HETATM   23  C   UNL     1      42.715 -17.068   5.268  1.00  0.00     0.041 A 
HETATM   24 CL   UNL     1      43.294 -17.220   6.892  1.00  0.00    -0.084 Cl
HETATM   25  C   UNL     1      43.481 -17.657   4.259  1.00  0.00     0.024 A 
HETATM   26  C   UNL     1      43.082 -17.555   2.932  1.00  0.00     0.003 A 
HETATM   27  C   UNL     1      41.921 -16.853   2.612  1.00  0.00     0.024 A 
ENDBRANCH  18  20
ENDBRANCH  17  18
ENDBRANCH   1  17
TORSDOF 5
ENDMDL
MODEL 10
REMARK VINA RESULT:      -7.6      4.839      7.230
REMARK  5 active torsions:
REMARK  status: ('A' for Active; 'I' for Inactive)
REMARK    1  A    between atoms: C_8  and  N_9 
REMARK    2  A    between atoms: N_9  and  C_10 
REMARK    3  A    between atoms: C_10  and  C_11 
REMARK       I    between atoms: C_11  and  N_12 
REMARK    4  A    between atoms: N_12  and  N_13 
REMARK    5  A    between atoms: C_14  and  C_15 
ROOT
HETATM    1  C   UNL     1      42.333 -15.377   6.453  1.00  0.00     0.250 C 
HETATM    2  N   UNL     1      42.078 -14.298   5.606  1.00  0.00    -0.246 N 
HETATM    3  O   UNL     1      42.538 -15.292   7.663  1.00  0.00    -0.270 OA
HETATM    4  H   UNL     1      41.652 -14.484   4.702  1.00  0.00     0.192 HD
ENDROOT
BRANCH   2   5
HETATM    5  N   UNL     1      41.913 -12.993   6.006  1.00  0.00    -0.184 NA
HETATM    6  C   UNL     1      42.929 -12.362   6.504  1.00  0.00     0.152 C 
BRANCH   6   7
HETATM    7  C   UNL     1      42.757 -10.999   6.970  1.00  0.00     0.011 A 
HETATM    8  C   UNL     1      43.745 -10.171   7.597  1.00  0.00     0.004 A 
HETATM    9  C   UNL     1      43.143  -8.941   7.875  1.00  0.00     0.043 A 
HETATM   10  C   UNL     1      45.097 -10.351   7.957  1.00  0.00     0.014 A 
HETATM   11  C   UNL     1      43.825  -7.884   8.490  1.00  0.00     0.030 A 
HETATM   12  N   UNL     1      41.841  -9.019   7.439  1.00  0.00    -0.364 N 
HETATM   13  C   UNL     1      45.164  -8.090   8.835  1.00  0.00     0.002 A 
HETATM   14  C   UNL     1      45.793  -9.304   8.574  1.00  0.00     0.001 A 
HETATM   15  H   UNL     1      41.166  -8.272   7.517  1.00  0.00     0.165 HD
HETATM   16  C   UNL     1      41.598 -10.250   6.893  1.00  0.00     0.102 A 
ENDBRANCH   6   7
ENDBRANCH   2   5
BRANCH   1  17
HETATM   17  C   UNL     1      42.328 -16.726   5.716  1.00  0.00     0.197 C 
BRANCH  17  18
HETATM   18  N   UNL     1      43.670 -17.033   5.184  1.00  0.00    -0.284 NA
HETATM   19  H   UNL     1      44.394 -16.803   5.862  1.00  0.00     0.128 HD
BRANCH  18  20
HETATM   20  C   UNL     1      43.791 -18.361   4.726  1.00  0.00     0.016 A 
HETATM   21  C   UNL     1      43.680 -18.685   3.355  1.00  0.00    -0.019 A 
HETATM   22  C   UNL     1      43.562 -17.606   2.309  1.00  0.00     0.052 C 
HETATM   23  C   UNL     1      43.691 -20.043   2.981  1.00  0.00     0.041 A 
HETATM   24 CL   UNL     1      43.515 -20.534   1.331  1.00  0.00    -0.084 Cl
HETATM   25  C   UNL     1      43.837 -21.053   3.935  1.00  0.00     0.024 A 
HETATM   26  C   UNL     1      43.962 -20.727   5.281  1.00  0.00     0.003 A 
HETATM   27  C   UNL     1      43.930 -19.390   5.673  1.00  0.00     0.024 A 
ENDBRANCH  18  20
ENDBRANCH  17  18
ENDBRANCH   1  17
TORSDOF 5
ENDMDL
