MODEL 1
REMARK VINA RESULT:      -7.8      0.000      0.000
REMARK  7 active torsions:
REMARK  status: ('A' for Active; 'I' for Inactive)
REMARK    1  A    between atoms: C_2  and  O_3 
REMARK    2  A    between atoms: O_3  and  C_4 
REMARK       I    between atoms: C_4  and  N_5 
REMARK    3  A    between atoms: C_8  and  N_9 
REMARK    4  A    between atoms: C_18  and  C_19 
REMARK    5  A    between atoms: C_19  and  N_20 
REMARK    6  A    between atoms: C_22  and  C_23 
REMARK    7  A    between atoms: C_23  and  O_24 
ROOT
HETATM    1  N   UNL     1      42.495 -10.972   4.248  1.00  0.00    -0.061 N 
HETATM    2  H   UNL     1      43.103 -10.189   4.524  1.00  0.00     0.280 HD
HETATM    3  C   UNL     1      43.149 -11.540   2.981  1.00  0.00     0.276 C 
HETATM    4  C   UNL     1      42.528 -12.807   2.456  1.00  0.00     0.002 A 
HETATM    5  C   UNL     1      41.211 -12.798   2.000  1.00  0.00     0.076 A 
HETATM    6  O   UNL     1      40.468 -11.654   1.998  1.00  0.00    -0.349 OA
HETATM    7  C   UNL     1      40.122 -11.246   3.330  1.00  0.00     0.203 C 
HETATM    8  C   UNL     1      41.169 -10.284   3.889  1.00  0.00     0.262 C 
HETATM    9  C   UNL     1      43.242 -14.023   2.408  1.00  0.00     0.020 A 
HETATM   10  C   UNL     1      42.651 -15.219   1.934  1.00  0.00    -0.032 A 
HETATM   11  C   UNL     1      41.323 -15.156   1.491  1.00  0.00     0.011 A 
HETATM   12  C   UNL     1      40.618 -13.950   1.494  1.00  0.00     0.038 A 
ENDROOT
BRANCH   1  13
HETATM   13  C   UNL     1      42.456 -11.949   5.438  1.00  0.00     0.191 C 
HETATM   14  C   UNL     1      43.839 -12.557   5.708  1.00  0.00     0.053 C 
HETATM   15  C   UNL     1      44.835 -11.523   6.211  1.00  0.00     0.130 C 
HETATM   16  N   UNL     1      44.320 -10.745   7.325  1.00  0.00    -0.328 N 
HETATM   17  C   UNL     1      45.275 -10.078   8.101  1.00  0.00     0.362 C 
HETATM   18  C   UNL     1      42.945 -10.261   7.284  1.00  0.00     0.130 C 
HETATM   19  O   UNL     1      46.480 -10.208   7.925  1.00  0.00    -0.238 OA
HETATM   20  C   UNL     1      41.971 -11.296   6.738  1.00  0.00     0.053 C 
BRANCH  17  21
HETATM   21  O   UNL     1      44.715  -9.272   9.039  1.00  0.00    -0.304 OA
BRANCH  21  22
HETATM   22  C   UNL     1      44.934  -9.650  10.409  1.00  0.00     0.176 C 
HETATM   23  C   UNL     1      43.767 -10.460  10.947  1.00  0.00     0.034 C 
ENDBRANCH  21  22
ENDBRANCH  17  21
ENDBRANCH   1  13
BRANCH  10  24
HETATM   24  C   UNL     1      43.389 -16.537   2.058  1.00  0.00     0.274 C 
BRANCH  24  25
HETATM   25  N   UNL     1      42.807 -17.694   2.844  1.00  0.00    -0.054 N 
HETATM   26  H   UNL     1      41.807 -17.455   2.906  1.00  0.00     0.281 HD
HETATM   27  C   UNL     1      43.250 -17.949   4.297  1.00  0.00     0.287 C 
HETATM   28  C   UNL     1      44.383 -18.939   4.131  1.00  0.00     0.045 C 
HETATM   29  C   UNL     1      43.942 -19.825   2.972  1.00  0.00     0.030 C 
HETATM   30  C   UNL     1      42.888 -19.050   2.190  1.00  0.00     0.236 C 
BRANCH  27  31
HETATM   31  C   UNL     1      43.568 -16.750   5.185  1.00  0.00     0.289 C 
HETATM   32  O   UNL     1      44.681 -16.471   5.610  1.00  0.00    -0.263 OA
BRANCH  31  33
HETATM   33  O   UNL     1      42.440 -16.017   5.374  1.00  0.00    -0.325 OA
HETATM   34  C   UNL     1      41.885 -16.052   6.695  1.00  0.00     0.213 C 
ENDBRANCH  31  33
ENDBRANCH  27  31
ENDBRANCH  24  25
ENDBRANCH  10  24
TORSDOF 7
ENDMDL
MODEL 2
REMARK VINA RESULT:      -7.8      2.947      5.824
REMARK  7 active torsions:
REMARK  status: ('A' for Active; 'I' for Inactive)
REMARK    1  A    between atoms: C_2  and  O_3 
REMARK    2  A    between atoms: O_3  and  C_4 
REMARK       I    between atoms: C_4  and  N_5 
REMARK    3  A    between atoms: C_8  and  N_9 
REMARK    4  A    between atoms: C_18  and  C_19 
REMARK    5  A    between atoms: C_19  and  N_20 
REMARK    6  A    between atoms: C_22  and  C_23 
REMARK    7  A    between atoms: C_23  and  O_24 
ROOT
HETATM    1  N   UNL     1      41.696 -13.496   6.184  1.00  0.00    -0.061 N 
HETATM    2  H   UNL     1      41.498 -12.898   6.998  1.00  0.00     0.280 HD
HETATM    3  C   UNL     1      40.394 -13.483   5.373  1.00  0.00     0.276 C 
HETATM    4  C   UNL     1      40.469 -14.170   4.034  1.00  0.00     0.002 A 
HETATM    5  C   UNL     1      40.719 -15.540   3.971  1.00  0.00     0.076 A 
HETATM    6  O   UNL     1      40.876 -16.288   5.102  1.00  0.00    -0.349 OA
HETATM    7  C   UNL     1      42.112 -15.986   5.765  1.00  0.00     0.203 C 
HETATM    8  C   UNL     1      41.913 -14.884   6.805  1.00  0.00     0.262 C 
HETATM    9  C   UNL     1      40.296 -13.467   2.824  1.00  0.00     0.020 A 
HETATM   10  C   UNL     1      40.388 -14.110   1.566  1.00  0.00    -0.032 A 
HETATM   11  C   UNL     1      40.644 -15.488   1.558  1.00  0.00     0.011 A 
HETATM   12  C   UNL     1      40.776 -16.204   2.750  1.00  0.00     0.038 A 
ENDROOT
BRANCH   1  13
HETATM   13  C   UNL     1      42.905 -12.877   5.459  1.00  0.00     0.191 C 
HETATM   14  C   UNL     1      42.630 -11.424   5.052  1.00  0.00     0.053 C 
HETATM   15  C   UNL     1      42.509 -10.501   6.255  1.00  0.00     0.130 C 
HETATM   16  N   UNL     1      43.619 -10.640   7.182  1.00  0.00    -0.328 N 
HETATM   17  C   UNL     1      43.808  -9.580   8.076  1.00  0.00     0.362 C 
HETATM   18  C   UNL     1      44.112 -11.972   7.513  1.00  0.00     0.130 C 
HETATM   19  O   UNL     1      43.148  -8.550   8.032  1.00  0.00    -0.238 OA
HETATM   20  C   UNL     1      44.186 -12.891   6.302  1.00  0.00     0.053 C 
BRANCH  17  21
HETATM   21  O   UNL     1      44.777  -9.835   8.992  1.00  0.00    -0.304 OA
BRANCH  21  22
HETATM   22  C   UNL     1      44.488  -9.442  10.345  1.00  0.00     0.176 C 
HETATM   23  C   UNL     1      43.636 -10.484  11.048  1.00  0.00     0.034 C 
ENDBRANCH  21  22
ENDBRANCH  17  21
ENDBRANCH   1  13
BRANCH  10  24
HETATM   24  C   UNL     1      40.368 -13.294   0.289  1.00  0.00     0.274 C 
BRANCH  24  25
HETATM   25  N   UNL     1      39.063 -12.938  -0.396  1.00  0.00    -0.054 N 
HETATM   26  H   UNL     1      38.504 -13.796  -0.295  1.00  0.00     0.281 HD
HETATM   27  C   UNL     1      39.038 -12.617  -1.903  1.00  0.00     0.287 C 
HETATM   28  C   UNL     1      39.189 -11.111  -1.925  1.00  0.00     0.045 C 
HETATM   29  C   UNL     1      38.397 -10.636  -0.713  1.00  0.00     0.030 C 
HETATM   30  C   UNL     1      38.265 -11.824   0.232  1.00  0.00     0.236 C 
BRANCH  27  31
HETATM   31  C   UNL     1      39.988 -13.372  -2.826  1.00  0.00     0.289 C 
HETATM   32  O   UNL     1      41.043 -12.928  -3.258  1.00  0.00    -0.263 OA
BRANCH  31  33
HETATM   33  O   UNL     1      39.508 -14.625  -3.040  1.00  0.00    -0.325 OA
HETATM   34  C   UNL     1      38.172 -14.704  -3.554  1.00  0.00     0.213 C 
ENDBRANCH  31  33
ENDBRANCH  27  31
ENDBRANCH  24  25
ENDBRANCH  10  24
TORSDOF 7
ENDMDL
MODEL 3
REMARK VINA RESULT:      -7.7      1.890      7.771
REMARK  7 active torsions:
REMARK  status: ('A' for Active; 'I' for Inactive)
REMARK    1  A    between atoms: C_2  and  O_3 
REMARK    2  A    between atoms: O_3  and  C_4 
REMARK       I    between atoms: C_4  and  N_5 
REMARK    3  A    between atoms: C_8  and  N_9 
REMARK    4  A    between atoms: C_18  and  C_19 
REMARK    5  A    between atoms: C_19  and  N_20 
REMARK    6  A    between atoms: C_22  and  C_23 
REMARK    7  A    between atoms: C_23  and  O_24 
ROOT
HETATM    1  N   UNL     1      41.061 -14.465   3.990  1.00  0.00    -0.061 N 
HETATM    2  H   UNL     1      40.923 -15.476   4.122  1.00  0.00     0.280 HD
HETATM    3  C   UNL     1      40.402 -13.823   5.218  1.00  0.00     0.276 C 
HETATM    4  C   UNL     1      40.601 -12.335   5.345  1.00  0.00     0.002 A 
HETATM    5  C   UNL     1      40.073 -11.480   4.379  1.00  0.00     0.076 A 
HETATM    6  O   UNL     1      39.355 -11.959   3.322  1.00  0.00    -0.349 OA
HETATM    7  C   UNL     1      40.190 -12.664   2.393  1.00  0.00     0.203 C 
HETATM    8  C   UNL     1      40.237 -14.154   2.731  1.00  0.00     0.262 C 
HETATM    9  C   UNL     1      41.314 -11.767   6.421  1.00  0.00     0.020 A 
HETATM   10  C   UNL     1      41.519 -10.370   6.528  1.00  0.00    -0.032 A 
HETATM   11  C   UNL     1      40.970  -9.555   5.528  1.00  0.00     0.011 A 
HETATM   12  C   UNL     1      40.226 -10.101   4.480  1.00  0.00     0.038 A 
ENDROOT
BRANCH   1  13
HETATM   13  C   UNL     1      42.579 -14.230   3.885  1.00  0.00     0.191 C 
HETATM   14  C   UNL     1      43.305 -14.690   5.156  1.00  0.00     0.053 C 
HETATM   15  C   UNL     1      43.255 -16.200   5.336  1.00  0.00     0.130 C 
HETATM   16  N   UNL     1      43.669 -16.920   4.143  1.00  0.00    -0.328 N 
HETATM   17  C   UNL     1      44.043 -18.255   4.332  1.00  0.00     0.362 C 
HETATM   18  C   UNL     1      43.201 -16.469   2.838  1.00  0.00     0.130 C 
HETATM   19  O   UNL     1      44.114 -18.773   5.439  1.00  0.00    -0.238 OA
HETATM   20  C   UNL     1      43.220 -14.954   2.695  1.00  0.00     0.053 C 
BRANCH  17  21
HETATM   21  O   UNL     1      44.292 -18.897   3.163  1.00  0.00    -0.304 OA
BRANCH  21  22
HETATM   22  C   UNL     1      43.720 -20.210   3.029  1.00  0.00     0.176 C 
HETATM   23  C   UNL     1      43.410 -20.528   1.577  1.00  0.00     0.034 C 
ENDBRANCH  21  22
ENDBRANCH  17  21
ENDBRANCH   1  13
BRANCH  10  24
HETATM   24  C   UNL     1      42.432  -9.813   7.600  1.00  0.00     0.274 C 
BRANCH  24  25
HETATM   25  N   UNL     1      43.344 -10.717   8.405  1.00  0.00    -0.054 N 
HETATM   26  H   UNL     1      42.728 -11.499   8.665  1.00  0.00     0.281 HD
HETATM   27  C   UNL     1      43.953 -10.226   9.732  1.00  0.00     0.287 C 
HETATM   28  C   UNL     1      45.287  -9.660   9.297  1.00  0.00     0.045 C 
HETATM   29  C   UNL     1      45.749 -10.595   8.186  1.00  0.00     0.030 C 
HETATM   30  C   UNL     1      44.512 -11.314   7.662  1.00  0.00     0.236 C 
BRANCH  27  31
HETATM   31  C   UNL     1      43.122  -9.306  10.621  1.00  0.00     0.289 C 
HETATM   32  O   UNL     1      43.283  -8.097  10.717  1.00  0.00    -0.263 OA
BRANCH  31  33
HETATM   33  O   UNL     1      42.148 -10.029  11.232  1.00  0.00    -0.325 OA
HETATM   34  C   UNL     1      40.821  -9.496  11.139  1.00  0.00     0.213 C 
ENDBRANCH  31  33
ENDBRANCH  27  31
ENDBRANCH  24  25
ENDBRANCH  10  24
TORSDOF 7
ENDMDL
MODEL 4
REMARK VINA RESULT:      -7.4      2.369      5.229
REMARK  7 active torsions:
REMARK  status: ('A' for Active; 'I' for Inactive)
REMARK    1  A    between atoms: C_2  and  O_3 
REMARK    2  A    between atoms: O_3  and  C_4 
REMARK       I    between atoms: C_4  and  N_5 
REMARK    3  A    between atoms: C_8  and  N_9 
REMARK    4  A    between atoms: C_18  and  C_19 
REMARK    5  A    between atoms: C_19  and  N_20 
REMARK    6  A    between atoms: C_22  and  C_23 
REMARK    7  A    between atoms: C_23  and  O_24 
ROOT
HETATM    1  N   UNL     1      41.991 -13.522   6.456  1.00  0.00    -0.061 N 
HETATM    2  H   UNL     1      41.839 -13.036   7.350  1.00  0.00     0.280 HD
HETATM    3  C   UNL     1      40.586 -13.675   5.859  1.00  0.00     0.276 C 
HETATM    4  C   UNL     1      40.545 -14.228   4.458  1.00  0.00     0.002 A 
HETATM    5  C   UNL     1      40.999 -15.522   4.209  1.00  0.00     0.076 A 
HETATM    6  O   UNL     1      41.464 -16.318   5.215  1.00  0.00    -0.349 OA
HETATM    7  C   UNL     1      42.729 -15.856   5.711  1.00  0.00     0.203 C 
HETATM    8  C   UNL     1      42.532 -14.895   6.882  1.00  0.00     0.262 C 
HETATM    9  C   UNL     1      40.057 -13.471   3.372  1.00  0.00     0.020 A 
HETATM   10  C   UNL     1      40.039 -13.983   2.052  1.00  0.00    -0.032 A 
HETATM   11  C   UNL     1      40.510 -15.289   1.856  1.00  0.00     0.011 A 
HETATM   12  C   UNL     1      40.956 -16.064   2.929  1.00  0.00     0.038 A 
ENDROOT
BRANCH   1  13
HETATM   13  C   UNL     1      42.944 -12.641   5.626  1.00  0.00     0.191 C 
HETATM   14  C   UNL     1      42.363 -11.238   5.409  1.00  0.00     0.053 C 
HETATM   15  C   UNL     1      42.283 -10.441   6.703  1.00  0.00     0.130 C 
HETATM   16  N   UNL     1      43.536 -10.440   7.439  1.00  0.00    -0.328 N 
HETATM   17  C   UNL     1      43.684  -9.430   8.396  1.00  0.00     0.362 C 
HETATM   18  C   UNL     1      44.296 -11.679   7.561  1.00  0.00     0.130 C 
HETATM   19  O   UNL     1      42.860  -8.538   8.551  1.00  0.00    -0.238 OA
HETATM   20  C   UNL     1      44.327 -12.480   6.267  1.00  0.00     0.053 C 
BRANCH  17  21
HETATM   21  O   UNL     1      44.818  -9.568   9.130  1.00  0.00    -0.304 OA
BRANCH  21  22
HETATM   22  C   UNL     1      44.674  -9.407  10.552  1.00  0.00     0.176 C 
HETATM   23  C   UNL     1      43.931 -10.581  11.164  1.00  0.00     0.034 C 
ENDBRANCH  21  22
ENDBRANCH  17  21
ENDBRANCH   1  13
BRANCH  10  24
HETATM   24  C   UNL     1      39.671 -13.084   0.889  1.00  0.00     0.274 C 
BRANCH  24  25
HETATM   25  N   UNL     1      40.697 -12.685  -0.152  1.00  0.00    -0.054 N 
HETATM   26  H   UNL     1      41.497 -13.297   0.060  1.00  0.00     0.281 HD
HETATM   27  C   UNL     1      41.277 -11.257  -0.165  1.00  0.00     0.287 C 
HETATM   28  C   UNL     1      40.362 -10.535  -1.130  1.00  0.00     0.045 C 
HETATM   29  C   UNL     1      40.045 -11.575  -2.199  1.00  0.00     0.030 C 
HETATM   30  C   UNL     1      40.322 -12.944  -1.589  1.00  0.00     0.236 C 
BRANCH  27  31
HETATM   31  C   UNL     1      41.498 -10.546   1.166  1.00  0.00     0.289 C 
HETATM   32  O   UNL     1      42.409 -10.790   1.945  1.00  0.00    -0.263 OA
BRANCH  31  33
HETATM   33  O   UNL     1      40.566  -9.569   1.315  1.00  0.00    -0.325 OA
HETATM   34  C   UNL     1      39.686  -9.708   2.437  1.00  0.00     0.213 C 
ENDBRANCH  31  33
ENDBRANCH  27  31
ENDBRANCH  24  25
ENDBRANCH  10  24
TORSDOF 7
ENDMDL
MODEL 5
REMARK VINA RESULT:      -7.2      2.138      8.142
REMARK  7 active torsions:
REMARK  status: ('A' for Active; 'I' for Inactive)
REMARK    1  A    between atoms: C_2  and  O_3 
REMARK    2  A    between atoms: O_3  and  C_4 
REMARK       I    between atoms: C_4  and  N_5 
REMARK    3  A    between atoms: C_8  and  N_9 
REMARK    4  A    between atoms: C_18  and  C_19 
REMARK    5  A    between atoms: C_19  and  N_20 
REMARK    6  A    between atoms: C_22  and  C_23 
REMARK    7  A    between atoms: C_23  and  O_24 
ROOT
HETATM    1  N   UNL     1      40.824 -14.814   3.613  1.00  0.00    -0.061 N 
HETATM    2  H   UNL     1      40.773 -15.824   3.804  1.00  0.00     0.280 HD
HETATM    3  C   UNL     1      40.106 -14.161   4.802  1.00  0.00     0.276 C 
HETATM    4  C   UNL     1      40.174 -12.657   4.841  1.00  0.00     0.002 A 
HETATM    5  C   UNL     1      39.580 -11.908   3.827  1.00  0.00     0.076 A 
HETATM    6  O   UNL     1      38.911 -12.508   2.800  1.00  0.00    -0.349 OA
HETATM    7  C   UNL     1      39.809 -13.191   1.914  1.00  0.00     0.203 C 
HETATM    8  C   UNL     1      39.982 -14.649   2.338  1.00  0.00     0.262 C 
HETATM    9  C   UNL     1      40.830 -11.967   5.883  1.00  0.00     0.020 A 
HETATM   10  C   UNL     1      40.913 -10.554   5.908  1.00  0.00    -0.032 A 
HETATM   11  C   UNL     1      40.301  -9.849   4.862  1.00  0.00     0.011 A 
HETATM   12  C   UNL     1      39.613 -10.518   3.848  1.00  0.00     0.038 A 
ENDROOT
BRANCH   1  13
HETATM   13  C   UNL     1      42.316 -14.455   3.495  1.00  0.00     0.191 C 
HETATM   14  C   UNL     1      43.066 -14.740   4.803  1.00  0.00     0.053 C 
HETATM   15  C   UNL     1      43.146 -16.228   5.109  1.00  0.00     0.130 C 
HETATM   16  N   UNL     1      43.636 -17.006   3.984  1.00  0.00    -0.328 N 
HETATM   17  C   UNL     1      44.124 -18.282   4.286  1.00  0.00     0.362 C 
HETATM   18  C   UNL     1      43.145 -16.710   2.643  1.00  0.00     0.130 C 
HETATM   19  O   UNL     1      44.227 -18.697   5.434  1.00  0.00    -0.238 OA
HETATM   20  C   UNL     1      43.032 -15.216   2.372  1.00  0.00     0.053 C 
BRANCH  17  21
HETATM   21  O   UNL     1      44.441 -18.996   3.176  1.00  0.00    -0.304 OA
BRANCH  21  22
HETATM   22  C   UNL     1      43.776 -20.263   3.028  1.00  0.00     0.176 C 
HETATM   23  C   UNL     1      43.301 -20.469   1.600  1.00  0.00     0.034 C 
ENDBRANCH  21  22
ENDBRANCH  17  21
ENDBRANCH   1  13
BRANCH  10  24
HETATM   24  C   UNL     1      41.770  -9.858   6.946  1.00  0.00     0.274 C 
BRANCH  24  25
HETATM   25  N   UNL     1      41.195  -8.784   7.848  1.00  0.00    -0.054 N 
HETATM   26  H   UNL     1      41.138  -7.964   7.228  1.00  0.00     0.281 HD
HETATM   27  C   UNL     1      41.981  -8.302   9.082  1.00  0.00     0.287 C 
HETATM   28  C   UNL     1      41.443  -9.186  10.185  1.00  0.00     0.045 C 
HETATM   29  C   UNL     1      39.965  -9.350   9.851  1.00  0.00     0.030 C 
HETATM   30  C   UNL     1      39.802  -9.030   8.370  1.00  0.00     0.236 C 
BRANCH  27  31
HETATM   31  C   UNL     1      43.503  -8.233   8.997  1.00  0.00     0.289 C 
HETATM   32  O   UNL     1      44.137  -7.264   8.602  1.00  0.00    -0.263 OA
BRANCH  31  33
HETATM   33  O   UNL     1      44.034  -9.384   9.484  1.00  0.00    -0.325 OA
HETATM   34  C   UNL     1      45.449  -9.375   9.709  1.00  0.00     0.213 C 
ENDBRANCH  31  33
ENDBRANCH  27  31
ENDBRANCH  24  25
ENDBRANCH  10  24
TORSDOF 7
ENDMDL
MODEL 6
REMARK VINA RESULT:      -6.9      3.273      6.210
REMARK  7 active torsions:
REMARK  status: ('A' for Active; 'I' for Inactive)
REMARK    1  A    between atoms: C_2  and  O_3 
REMARK    2  A    between atoms: O_3  and  C_4 
REMARK       I    between atoms: C_4  and  N_5 
REMARK    3  A    between atoms: C_8  and  N_9 
REMARK    4  A    between atoms: C_18  and  C_19 
REMARK    5  A    between atoms: C_19  and  N_20 
REMARK    6  A    between atoms: C_22  and  C_23 
REMARK    7  A    between atoms: C_23  and  O_24 
ROOT
HETATM    1  N   UNL     1      41.081 -13.525   5.195  1.00  0.00    -0.061 N 
HETATM    2  H   UNL     1      40.852 -13.009   6.055  1.00  0.00     0.280 HD
HETATM    3  C   UNL     1      39.861 -13.321   4.288  1.00  0.00     0.276 C 
HETATM    4  C   UNL     1      40.009 -13.857   2.888  1.00  0.00     0.002 A 
HETATM    5  C   UNL     1      40.171 -15.227   2.683  1.00  0.00     0.076 A 
HETATM    6  O   UNL     1      40.176 -16.106   3.727  1.00  0.00    -0.349 OA
HETATM    7  C   UNL     1      41.365 -15.977   4.519  1.00  0.00     0.203 C 
HETATM    8  C   UNL     1      41.148 -14.987   5.663  1.00  0.00     0.262 C 
HETATM    9  C   UNL     1      39.993 -13.011   1.759  1.00  0.00     0.020 A 
HETATM   10  C   UNL     1      40.154 -13.514   0.446  1.00  0.00    -0.032 A 
HETATM   11  C   UNL     1      40.316 -14.898   0.295  1.00  0.00     0.011 A 
HETATM   12  C   UNL     1      40.292 -15.751   1.401  1.00  0.00     0.038 A 
ENDROOT
BRANCH   1  13
HETATM   13  C   UNL     1      42.389 -12.924   4.648  1.00  0.00     0.191 C 
HETATM   14  C   UNL     1      42.300 -11.397   4.535  1.00  0.00     0.053 C 
HETATM   15  C   UNL     1      42.215 -10.722   5.896  1.00  0.00     0.130 C 
HETATM   16  N   UNL     1      43.251 -11.172   6.811  1.00  0.00    -0.328 N 
HETATM   17  C   UNL     1      43.506 -10.339   7.906  1.00  0.00     0.362 C 
HETATM   18  C   UNL     1      43.574 -12.592   6.881  1.00  0.00     0.130 C 
HETATM   19  O   UNL     1      42.967  -9.250   8.050  1.00  0.00    -0.238 OA
HETATM   20  C   UNL     1      43.612 -13.257   5.512  1.00  0.00     0.053 C 
BRANCH  17  21
HETATM   21  O   UNL     1      44.389 -10.884   8.781  1.00  0.00    -0.304 OA
BRANCH  21  22
HETATM   22  C   UNL     1      45.436 -10.015   9.247  1.00  0.00     0.176 C 
HETATM   23  C   UNL     1      46.292  -9.521   8.094  1.00  0.00     0.034 C 
ENDBRANCH  21  22
ENDBRANCH  17  21
ENDBRANCH   1  13
BRANCH  10  24
HETATM   24  C   UNL     1      40.303 -12.561  -0.723  1.00  0.00     0.274 C 
BRANCH  24  25
HETATM   25  N   UNL     1      39.689 -12.871  -2.074  1.00  0.00    -0.054 N 
HETATM   26  H   UNL     1      40.468 -13.300  -2.592  1.00  0.00     0.281 HD
HETATM   27  C   UNL     1      39.182 -11.732  -2.978  1.00  0.00     0.287 C 
HETATM   28  C   UNL     1      37.720 -11.632  -2.600  1.00  0.00     0.045 C 
HETATM   29  C   UNL     1      37.296 -13.074  -2.351  1.00  0.00     0.030 C 
HETATM   30  C   UNL     1      38.563 -13.874  -2.077  1.00  0.00     0.236 C 
BRANCH  27  31
HETATM   31  C   UNL     1      39.939 -10.408  -2.978  1.00  0.00     0.289 C 
HETATM   32  O   UNL     1      40.969 -10.192  -3.603  1.00  0.00    -0.263 OA
BRANCH  31  33
HETATM   33  O   UNL     1      39.259  -9.500  -2.231  1.00  0.00    -0.325 OA
HETATM   34  C   UNL     1      40.028  -8.398  -1.732  1.00  0.00     0.213 C 
ENDBRANCH  31  33
ENDBRANCH  27  31
ENDBRANCH  24  25
ENDBRANCH  10  24
TORSDOF 7
ENDMDL
MODEL 7
REMARK VINA RESULT:      -6.8      3.036      8.929
REMARK  7 active torsions:
REMARK  status: ('A' for Active; 'I' for Inactive)
REMARK    1  A    between atoms: C_2  and  O_3 
REMARK    2  A    between atoms: O_3  and  C_4 
REMARK       I    between atoms: C_4  and  N_5 
REMARK    3  A    between atoms: C_8  and  N_9 
REMARK    4  A    between atoms: C_18  and  C_19 
REMARK    5  A    between atoms: C_19  and  N_20 
REMARK    6  A    between atoms: C_22  and  C_23 
REMARK    7  A    between atoms: C_23  and  O_24 
ROOT
HETATM    1  N   UNL     1      42.959 -11.785   5.436  1.00  0.00    -0.061 N 
HETATM    2  H   UNL     1      42.436 -11.893   4.557  1.00  0.00     0.280 HD
HETATM    3  C   UNL     1      42.757 -10.314   5.826  1.00  0.00     0.276 C 
HETATM    4  C   UNL     1      43.304  -9.931   7.176  1.00  0.00     0.002 A 
HETATM    5  C   UNL     1      44.675 -10.004   7.416  1.00  0.00     0.076 A 
HETATM    6  O   UNL     1      45.547 -10.396   6.442  1.00  0.00    -0.349 OA
HETATM    7  C   UNL     1      45.417 -11.795   6.150  1.00  0.00     0.203 C 
HETATM    8  C   UNL     1      44.418 -12.020   5.015  1.00  0.00     0.262 C 
HETATM    9  C   UNL     1      42.466  -9.496   8.224  1.00  0.00     0.020 A 
HETATM   10  C   UNL     1      42.978  -9.157   9.499  1.00  0.00    -0.032 A 
HETATM   11  C   UNL     1      44.364  -9.250   9.688  1.00  0.00     0.011 A 
HETATM   12  C   UNL     1      45.209  -9.639   8.647  1.00  0.00     0.038 A 
ENDROOT
BRANCH   1  13
HETATM   13  C   UNL     1      42.367 -12.796   6.435  1.00  0.00     0.191 C 
HETATM   14  C   UNL     1      40.917 -13.151   6.080  1.00  0.00     0.053 C 
HETATM   15  C   UNL     1      40.817 -13.934   4.779  1.00  0.00     0.130 C 
HETATM   16  N   UNL     1      41.716 -15.075   4.742  1.00  0.00    -0.328 N 
HETATM   17  C   UNL     1      41.413 -16.063   3.798  1.00  0.00     0.362 C 
HETATM   18  C   UNL     1      43.081 -14.927   5.232  1.00  0.00     0.130 C 
HETATM   19  O   UNL     1      40.405 -16.030   3.104  1.00  0.00    -0.238 OA
HETATM   20  C   UNL     1      43.162 -14.105   6.511  1.00  0.00     0.053 C 
BRANCH  17  21
HETATM   21  O   UNL     1      42.363 -17.030   3.731  1.00  0.00    -0.304 OA
BRANCH  21  22
HETATM   22  C   UNL     1      42.855 -17.344   2.416  1.00  0.00     0.176 C 
HETATM   23  C   UNL     1      42.993 -18.845   2.227  1.00  0.00     0.034 C 
ENDBRANCH  21  22
ENDBRANCH  17  21
ENDBRANCH   1  13
BRANCH  10  24
HETATM   24  C   UNL     1      42.034  -8.861  10.647  1.00  0.00     0.274 C 
BRANCH  24  25
HETATM   25  N   UNL     1      41.260  -9.968  11.334  1.00  0.00    -0.054 N 
HETATM   26  H   UNL     1      41.560 -10.812  10.829  1.00  0.00     0.281 HD
HETATM   27  C   UNL     1      39.721  -9.990  11.278  1.00  0.00     0.287 C 
HETATM   28  C   UNL     1      39.330  -9.254  12.541  1.00  0.00     0.045 C 
HETATM   29  C   UNL     1      40.373  -9.683  13.566  1.00  0.00     0.030 C 
HETATM   30  C   UNL     1      41.580 -10.198  12.790  1.00  0.00     0.236 C 
BRANCH  27  31
HETATM   31  C   UNL     1      39.029  -9.504  10.009  1.00  0.00     0.289 C 
HETATM   32  O   UNL     1      38.877 -10.172   8.996  1.00  0.00    -0.263 OA
BRANCH  31  33
HETATM   33  O   UNL     1      38.560  -8.244  10.207  1.00  0.00    -0.325 OA
HETATM   34  C   UNL     1      38.978  -7.263   9.249  1.00  0.00     0.213 C 
ENDBRANCH  31  33
ENDBRANCH  27  31
ENDBRANCH  24  25
ENDBRANCH  10  24
TORSDOF 7
ENDMDL
MODEL 8
REMARK VINA RESULT:      -6.8      2.931      9.515
REMARK  7 active torsions:
REMARK  status: ('A' for Active; 'I' for Inactive)
REMARK    1  A    between atoms: C_2  and  O_3 
REMARK    2  A    between atoms: O_3  and  C_4 
REMARK       I    between atoms: C_4  and  N_5 
REMARK    3  A    between atoms: C_8  and  N_9 
REMARK    4  A    between atoms: C_18  and  C_19 
REMARK    5  A    between atoms: C_19  and  N_20 
REMARK    6  A    between atoms: C_22  and  C_23 
REMARK    7  A    between atoms: C_23  and  O_24 
ROOT
HETATM    1  N   UNL     1      43.424 -11.057   6.011  1.00  0.00    -0.061 N 
HETATM    2  H   UNL     1      43.062 -10.884   5.063  1.00  0.00     0.280 HD
HETATM    3  C   UNL     1      43.094  -9.776   6.789  1.00  0.00     0.276 C 
HETATM    4  C   UNL     1      43.388  -9.833   8.265  1.00  0.00     0.002 A 
HETATM    5  C   UNL     1      44.702  -9.989   8.706  1.00  0.00     0.076 A 
HETATM    6  O   UNL     1      45.742 -10.071   7.826  1.00  0.00    -0.349 OA
HETATM    7  C   UNL     1      45.725 -11.310   7.103  1.00  0.00     0.203 C 
HETATM    8  C   UNL     1      44.942 -11.165   5.799  1.00  0.00     0.262 C 
HETATM    9  C   UNL     1      42.367  -9.734   9.234  1.00  0.00     0.020 A 
HETATM   10  C   UNL     1      42.642  -9.808  10.620  1.00  0.00    -0.032 A 
HETATM   11  C   UNL     1      43.979  -9.969  11.010  1.00  0.00     0.011 A 
HETATM   12  C   UNL     1      45.004 -10.027  10.063  1.00  0.00     0.038 A 
ENDROOT
BRANCH   1  13
HETATM   13  C   UNL     1      42.717 -12.321   6.535  1.00  0.00     0.191 C 
HETATM   14  C   UNL     1      41.202 -12.251   6.305  1.00  0.00     0.053 C 
HETATM   15  C   UNL     1      40.840 -12.305   4.828  1.00  0.00     0.130 C 
HETATM   16  N   UNL     1      41.477 -13.412   4.135  1.00  0.00    -0.328 N 
HETATM   17  C   UNL     1      40.903 -13.783   2.914  1.00  0.00     0.362 C 
HETATM   18  C   UNL     1      42.878 -13.713   4.405  1.00  0.00     0.130 C 
HETATM   19  O   UNL     1      39.871 -13.280   2.487  1.00  0.00    -0.238 OA
HETATM   20  C   UNL     1      43.229 -13.611   5.883  1.00  0.00     0.053 C 
BRANCH  17  21
HETATM   21  O   UNL     1      41.624 -14.732   2.265  1.00  0.00    -0.304 OA
BRANCH  21  22
HETATM   22  C   UNL     1      41.066 -16.057   2.261  1.00  0.00     0.176 C 
HETATM   23  C   UNL     1      42.132 -17.102   2.541  1.00  0.00     0.034 C 
ENDBRANCH  21  22
ENDBRANCH  17  21
ENDBRANCH   1  13
BRANCH  10  24
HETATM   24  C   UNL     1      41.506  -9.871  11.621  1.00  0.00     0.274 C 
BRANCH  24  25
HETATM   25  N   UNL     1      41.308  -8.781  12.655  1.00  0.00    -0.054 N 
HETATM   26  H   UNL     1      40.390  -9.007  13.061  1.00  0.00     0.281 HD
HETATM   27  C   UNL     1      41.205  -7.307  12.222  1.00  0.00     0.287 C 
HETATM   28  C   UNL     1      42.635  -6.826  12.332  1.00  0.00     0.045 C 
HETATM   29  C   UNL     1      43.183  -7.549  13.557  1.00  0.00     0.030 C 
HETATM   30  C   UNL     1      42.293  -8.762  13.797  1.00  0.00     0.236 C 
BRANCH  27  31
HETATM   31  C   UNL     1      40.515  -6.980  10.901  1.00  0.00     0.289 C 
HETATM   32  O   UNL     1      41.077  -6.525   9.914  1.00  0.00    -0.263 OA
BRANCH  31  33
HETATM   33  O   UNL     1      39.205  -7.331  10.978  1.00  0.00    -0.325 OA
HETATM   34  C   UNL     1      38.702  -8.115   9.889  1.00  0.00     0.213 C 
ENDBRANCH  31  33
ENDBRANCH  27  31
ENDBRANCH  24  25
ENDBRANCH  10  24
TORSDOF 7
ENDMDL
MODEL 9
REMARK VINA RESULT:      -6.7      7.313     13.575
REMARK  7 active torsions:
REMARK  status: ('A' for Active; 'I' for Inactive)
REMARK    1  A    between atoms: C_2  and  O_3 
REMARK    2  A    between atoms: O_3  and  C_4 
REMARK       I    between atoms: C_4  and  N_5 
REMARK    3  A    between atoms: C_8  and  N_9 
REMARK    4  A    between atoms: C_18  and  C_19 
REMARK    5  A    between atoms: C_19  and  N_20 
REMARK    6  A    between atoms: C_22  and  C_23 
REMARK    7  A    between atoms: C_23  and  O_24 
ROOT
HETATM    1  N   UNL     1      40.795  -7.826  11.967  1.00  0.00    -0.061 N 
HETATM    2  H   UNL     1      40.941  -8.631  11.343  1.00  0.00     0.280 HD
HETATM    3  C   UNL     1      40.231  -8.437  13.257  1.00  0.00     0.276 C 
HETATM    4  C   UNL     1      40.071  -7.471  14.402  1.00  0.00     0.002 A 
HETATM    5  C   UNL     1      39.178  -6.406  14.292  1.00  0.00     0.076 A 
HETATM    6  O   UNL     1      38.423  -6.225  13.170  1.00  0.00    -0.349 OA
HETATM    7  C   UNL     1      39.225  -5.807  12.056  1.00  0.00     0.203 C 
HETATM    8  C   UNL     1      39.704  -7.015  11.252  1.00  0.00     0.262 C 
HETATM    9  C   UNL     1      40.802  -7.607  15.601  1.00  0.00     0.020 A 
HETATM   10  C   UNL     1      40.666  -6.687  16.668  1.00  0.00    -0.032 A 
HETATM   11  C   UNL     1      39.757  -5.632  16.505  1.00  0.00     0.011 A 
HETATM   12  C   UNL     1      38.997  -5.510  15.340  1.00  0.00     0.038 A 
ENDROOT
BRANCH   1  13
HETATM   13  C   UNL     1      42.160  -7.134  12.133  1.00  0.00     0.191 C 
HETATM   14  C   UNL     1      43.180  -8.062  12.807  1.00  0.00     0.053 C 
HETATM   15  C   UNL     1      43.556  -9.243  11.925  1.00  0.00     0.130 C 
HETATM   16  N   UNL     1      43.943  -8.840  10.583  1.00  0.00    -0.328 N 
HETATM   17  C   UNL     1      44.678  -9.778   9.850  1.00  0.00     0.362 C 
HETATM   18  C   UNL     1      43.166  -7.818   9.892  1.00  0.00     0.130 C 
HETATM   19  O   UNL     1      45.063 -10.838  10.326  1.00  0.00    -0.238 OA
HETATM   20  C   UNL     1      42.764  -6.666  10.803  1.00  0.00     0.053 C 
BRANCH  17  21
HETATM   21  O   UNL     1      44.891  -9.386   8.568  1.00  0.00    -0.304 OA
BRANCH  21  22
HETATM   22  C   UNL     1      44.619 -10.369   7.553  1.00  0.00     0.176 C 
HETATM   23  C   UNL     1      45.906 -10.946   6.990  1.00  0.00     0.034 C 
ENDBRANCH  21  22
ENDBRANCH  17  21
ENDBRANCH   1  13
BRANCH  10  24
HETATM   24  C   UNL     1      41.590  -6.767  17.867  1.00  0.00     0.274 C 
BRANCH  24  25
HETATM   25  N   UNL     1      41.051  -7.012  19.262  1.00  0.00    -0.054 N 
HETATM   26  H   UNL     1      40.692  -6.088  19.539  1.00  0.00     0.281 HD
HETATM   27  C   UNL     1      41.999  -7.433  20.400  1.00  0.00     0.287 C 
HETATM   28  C   UNL     1      41.919  -8.944  20.358  1.00  0.00     0.045 C 
HETATM   29  C   UNL     1      40.464  -9.234  20.010  1.00  0.00     0.030 C 
HETATM   30  C   UNL     1      39.896  -7.975  19.367  1.00  0.00     0.236 C 
BRANCH  27  31
HETATM   31  C   UNL     1      43.414  -6.864  20.420  1.00  0.00     0.289 C 
HETATM   32  O   UNL     1      44.372  -7.352  19.835  1.00  0.00    -0.263 OA
BRANCH  31  33
HETATM   33  O   UNL     1      43.425  -5.708  21.134  1.00  0.00    -0.325 OA
HETATM   34  C   UNL     1      43.314  -4.500  20.371  1.00  0.00     0.213 C 
ENDBRANCH  31  33
ENDBRANCH  27  31
ENDBRANCH  24  25
ENDBRANCH  10  24
TORSDOF 7
ENDMDL
MODEL 10
REMARK VINA RESULT:      -6.7      2.809      7.591
REMARK  7 active torsions:
REMARK  status: ('A' for Active; 'I' for Inactive)
REMARK    1  A    between atoms: C_2  and  O_3 
REMARK    2  A    between atoms: O_3  and  C_4 
REMARK       I    between atoms: C_4  and  N_5 
REMARK    3  A    between atoms: C_8  and  N_9 
REMARK    4  A    between atoms: C_18  and  C_19 
REMARK    5  A    between atoms: C_19  and  N_20 
REMARK    6  A    between atoms: C_22  and  C_23 
REMARK    7  A    between atoms: C_23  and  O_24 
ROOT
HETATM    1  N   UNL     1      43.263 -13.061   4.501  1.00  0.00    -0.061 N 
HETATM    2  H   UNL     1      44.037 -13.725   4.363  1.00  0.00     0.280 HD
HETATM    3  C   UNL     1      43.524 -11.948   3.477  1.00  0.00     0.276 C 
HETATM    4  C   UNL     1      42.435 -10.913   3.368  1.00  0.00     0.002 A 
HETATM    5  C   UNL     1      42.139 -10.099   4.460  1.00  0.00     0.076 A 
HETATM    6  O   UNL     1      42.833 -10.202   5.631  1.00  0.00    -0.349 OA
HETATM    7  C   UNL     1      42.524 -11.421   6.322  1.00  0.00     0.203 C 
HETATM    8  C   UNL     1      43.498 -12.530   5.923  1.00  0.00     0.262 C 
HETATM    9  C   UNL     1      41.691 -10.735   2.182  1.00  0.00     0.020 A 
HETATM   10  C   UNL     1      40.654  -9.777   2.088  1.00  0.00    -0.032 A 
HETATM   11  C   UNL     1      40.395  -8.986   3.216  1.00  0.00     0.011 A 
HETATM   12  C   UNL     1      41.152  -9.124   4.382  1.00  0.00     0.038 A 
ENDROOT
BRANCH   1  13
HETATM   13  C   UNL     1      41.956 -13.843   4.273  1.00  0.00     0.191 C 
HETATM   14  C   UNL     1      41.941 -14.517   2.895  1.00  0.00     0.053 C 
HETATM   15  C   UNL     1      42.971 -15.631   2.785  1.00  0.00     0.130 C 
HETATM   16  N   UNL     1      42.896 -16.574   3.888  1.00  0.00    -0.328 N 
HETATM   17  C   UNL     1      43.499 -17.819   3.674  1.00  0.00     0.362 C 
HETATM   18  C   UNL     1      42.717 -16.073   5.246  1.00  0.00     0.130 C 
HETATM   19  O   UNL     1      43.981 -18.145   2.597  1.00  0.00    -0.238 OA
HETATM   20  C   UNL     1      41.713 -14.931   5.326  1.00  0.00     0.053 C 
BRANCH  17  21
HETATM   21  O   UNL     1      43.502 -18.596   4.787  1.00  0.00    -0.304 OA
BRANCH  21  22
HETATM   22  C   UNL     1      44.476 -19.654   4.815  1.00  0.00     0.176 C 
HETATM   23  C   UNL     1      43.852 -20.961   5.273  1.00  0.00     0.034 C 
ENDBRANCH  21  22
ENDBRANCH  17  21
ENDBRANCH   1  13
BRANCH  10  24
HETATM   24  C   UNL     1      39.765  -9.733   0.861  1.00  0.00     0.274 C 
BRANCH  24  25
HETATM   25  N   UNL     1      38.661 -10.750   0.653  1.00  0.00    -0.054 N 
HETATM   26  H   UNL     1      38.703 -11.320   1.508  1.00  0.00     0.281 HD
HETATM   27  C   UNL     1      38.742 -11.758  -0.509  1.00  0.00     0.287 C 
HETATM   28  C   UNL     1      37.983 -11.056  -1.614  1.00  0.00     0.045 C 
HETATM   29  C   UNL     1      36.849 -10.337  -0.894  1.00  0.00     0.030 C 
HETATM   30  C   UNL     1      37.260 -10.200   0.567  1.00  0.00     0.236 C 
BRANCH  27  31
HETATM   31  C   UNL     1      40.110 -12.301  -0.911  1.00  0.00     0.289 C 
HETATM   32  O   UNL     1      40.683 -13.229  -0.359  1.00  0.00    -0.263 OA
BRANCH  31  33
HETATM   33  O   UNL     1      40.554 -11.633  -2.008  1.00  0.00    -0.325 OA
HETATM   34  C   UNL     1      41.085 -12.444  -3.062  1.00  0.00     0.213 C 
ENDBRANCH  31  33
ENDBRANCH  27  31
ENDBRANCH  24  25
ENDBRANCH  10  24
TORSDOF 7
ENDMDL
