MODEL 1
REMARK VINA RESULT:      -9.3      0.000      0.000
REMARK  7 active torsions:
REMARK  status: ('A' for Active; 'I' for Inactive)
REMARK    1  A    between atoms: N_7  and  C_8 
REMARK    2  A    between atoms: C_8  and  C_9 
REMARK       I    between atoms: C_9  and  N_10 
REMARK    3  A    between atoms: N_10  and  C_11 
REMARK    4  A    between atoms: C_11  and  C_12 
REMARK    5  A    between atoms: C_12  and  C_13 
REMARK    6  A    between atoms: C_12  and  C_23 
REMARK    7  A    between atoms: C_26  and  O_27 
ROOT
HETATM    1  C   UNL     1      40.405 -14.337   6.164  1.00  0.00     0.136 C 
ENDROOT
BRANCH   1   2
HETATM    2  N   UNL     1      40.080 -12.987   6.604  1.00  0.00    -0.359 N 
HETATM    3  C   UNL     1      39.400 -12.180   5.699  1.00  0.00     0.236 C 
HETATM    4  O   UNL     1      39.308 -12.467   4.505  1.00  0.00    -0.272 OA
HETATM    5  H   UNL     1      39.846 -12.853   7.583  1.00  0.00     0.162 HD
BRANCH   3   6
HETATM    6  C   UNL     1      38.577 -11.046   6.295  1.00  0.00     0.239 C 
BRANCH   6   7
HETATM    7  N   UNL     1      39.281 -10.166   7.200  1.00  0.00    -0.259 N 
HETATM    8  C   UNL     1      39.184 -10.251   8.554  1.00  0.00     0.326 C 
HETATM    9  N   UNL     1      40.125  -9.420   9.110  1.00  0.00    -0.324 N 
HETATM   10  O   UNL     1      38.442 -10.961   9.209  1.00  0.00    -0.247 OA
HETATM   11  C   UNL     1      41.071  -8.913   8.127  1.00  0.00     0.119 C 
HETATM   12  H   UNL     1      40.280  -9.454  10.110  1.00  0.00     0.165 HD
HETATM   13  C   UNL     1      41.292  -7.399   8.321  1.00  0.00     0.019 C 
HETATM   14  C   UNL     1      40.307  -9.338   6.847  1.00  0.00     0.257 C 
HETATM   15  C   UNL     1      42.380  -9.723   8.184  1.00  0.00     0.041 C 
HETATM   16  C   UNL     1      41.958  -6.712   7.124  1.00  0.00     0.013 C 
HETATM   17  C   UNL     1      42.120  -7.146   9.601  1.00  0.00     0.007 C 
HETATM   18  C   UNL     1      43.427  -7.938   9.637  1.00  0.00     0.001 C 
HETATM   19  C   UNL     1      43.195  -9.432   9.442  1.00  0.00     0.003 C 
HETATM   20  O   UNL     1      40.629  -9.082   5.693  1.00  0.00    -0.270 OA
ENDBRANCH   6   7
ENDBRANCH   3   6
ENDBRANCH   1   2
BRANCH   1  21
HETATM   21  C   UNL     1      41.758 -14.630   5.493  1.00  0.00     0.071 C 
BRANCH  21  22
HETATM   22  C   UNL     1      42.426 -15.953   5.789  1.00  0.00    -0.020 A 
HETATM   23  C   UNL     1      42.961 -16.850   4.790  1.00  0.00    -0.001 A 
HETATM   24  C   UNL     1      43.464 -17.972   5.448  1.00  0.00     0.042 A 
HETATM   25  C   UNL     1      43.060 -16.807   3.383  1.00  0.00     0.014 A 
HETATM   26  C   UNL     1      44.052 -19.051   4.774  1.00  0.00     0.030 A 
HETATM   27  N   UNL     1      43.267 -17.773   6.790  1.00  0.00    -0.365 N 
HETATM   28  C   UNL     1      44.134 -18.979   3.381  1.00  0.00     0.002 A 
HETATM   29  C   UNL     1      43.648 -17.873   2.692  1.00  0.00     0.001 A 
HETATM   30  H   UNL     1      43.543 -18.424   7.513  1.00  0.00     0.165 HD
HETATM   31  C   UNL     1      42.657 -16.565   7.009  1.00  0.00     0.097 A 
ENDBRANCH  21  22
BRANCH  21  32
HETATM   32  C   UNL     1      42.811 -13.543   5.603  1.00  0.00    -0.048 A 
HETATM   33  C   UNL     1      43.583 -13.463   6.776  1.00  0.00     0.011 A 
HETATM   34  C   UNL     1      44.574 -12.493   6.921  1.00  0.00     0.037 A 
HETATM   35  C   UNL     1      44.825 -11.578   5.901  1.00  0.00     0.068 A 
HETATM   36  C   UNL     1      44.066 -11.641   4.732  1.00  0.00     0.037 A 
HETATM   37  C   UNL     1      43.073 -12.621   4.582  1.00  0.00     0.011 A 
BRANCH  35  38
HETATM   38  O   UNL     1      45.823 -10.684   6.174  1.00  0.00    -0.356 OA
HETATM   39  C   UNL     1      46.165 -10.503   7.541  1.00  0.00     0.210 C 
ENDBRANCH  35  38
ENDBRANCH  21  32
ENDBRANCH   1  21
TORSDOF 7
ENDMDL
MODEL 2
REMARK VINA RESULT:      -9.3      2.751      5.847
REMARK  7 active torsions:
REMARK  status: ('A' for Active; 'I' for Inactive)
REMARK    1  A    between atoms: N_7  and  C_8 
REMARK    2  A    between atoms: C_8  and  C_9 
REMARK       I    between atoms: C_9  and  N_10 
REMARK    3  A    between atoms: N_10  and  C_11 
REMARK    4  A    between atoms: C_11  and  C_12 
REMARK    5  A    between atoms: C_12  and  C_13 
REMARK    6  A    between atoms: C_12  and  C_23 
REMARK    7  A    between atoms: C_26  and  O_27 
ROOT
HETATM    1  C   UNL     1      43.727 -13.726   6.627  1.00  0.00     0.136 C 
ENDROOT
BRANCH   1   2
HETATM    2  N   UNL     1      43.500 -12.619   7.547  1.00  0.00    -0.359 N 
HETATM    3  C   UNL     1      44.378 -11.545   7.461  1.00  0.00     0.236 C 
HETATM    4  O   UNL     1      45.444 -11.616   6.849  1.00  0.00    -0.272 OA
HETATM    5  H   UNL     1      42.540 -12.391   7.784  1.00  0.00     0.162 HD
BRANCH   3   6
HETATM    6  C   UNL     1      43.853 -10.205   7.960  1.00  0.00     0.239 C 
BRANCH   6   7
HETATM    7  N   UNL     1      43.499 -10.151   9.361  1.00  0.00    -0.259 N 
HETATM    8  C   UNL     1      44.368 -10.449  10.363  1.00  0.00     0.326 C 
HETATM    9  N   UNL     1      43.787 -10.100  11.558  1.00  0.00    -0.324 N 
HETATM   10  O   UNL     1      45.495 -10.901  10.269  1.00  0.00    -0.247 OA
HETATM   11  C   UNL     1      42.574  -9.318  11.381  1.00  0.00     0.119 C 
HETATM   12  H   UNL     1      44.345 -10.135  12.403  1.00  0.00     0.165 HD
HETATM   13  C   UNL     1      41.456  -9.839  12.307  1.00  0.00     0.019 C 
HETATM   14  C   UNL     1      42.377  -9.559   9.862  1.00  0.00     0.257 C 
HETATM   15  C   UNL     1      42.873  -7.820  11.584  1.00  0.00     0.041 C 
HETATM   16  C   UNL     1      40.056  -9.341  11.928  1.00  0.00     0.013 C 
HETATM   17  C   UNL     1      41.768  -9.465  13.774  1.00  0.00     0.007 C 
HETATM   18  C   UNL     1      42.042  -7.973  13.968  1.00  0.00     0.001 C 
HETATM   19  C   UNL     1      43.147  -7.472  13.046  1.00  0.00     0.003 C 
HETATM   20  O   UNL     1      41.429  -9.178   9.185  1.00  0.00    -0.270 OA
ENDBRANCH   6   7
ENDBRANCH   3   6
ENDBRANCH   1   2
BRANCH   1  21
HETATM   21  C   UNL     1      43.011 -13.763   5.264  1.00  0.00     0.071 C 
BRANCH  21  22
HETATM   22  C   UNL     1      41.590 -13.255   5.196  1.00  0.00    -0.020 A 
HETATM   23  C   UNL     1      41.204 -11.941   4.733  1.00  0.00    -0.001 A 
HETATM   24  C   UNL     1      39.819 -11.836   4.847  1.00  0.00     0.042 A 
HETATM   25  C   UNL     1      41.913 -10.830   4.227  1.00  0.00     0.014 A 
HETATM   26  C   UNL     1      39.109 -10.682   4.490  1.00  0.00     0.030 A 
HETATM   27  N   UNL     1      39.365 -13.032   5.340  1.00  0.00    -0.365 N 
HETATM   28  C   UNL     1      39.839  -9.598   3.994  1.00  0.00     0.002 A 
HETATM   29  C   UNL     1      41.222  -9.669   3.861  1.00  0.00     0.001 A 
HETATM   30  H   UNL     1      38.393 -13.248   5.519  1.00  0.00     0.165 HD
HETATM   31  C   UNL     1      40.412 -13.893   5.543  1.00  0.00     0.097 A 
ENDBRANCH  21  22
BRANCH  21  32
HETATM   32  C   UNL     1      43.072 -15.078   4.510  1.00  0.00    -0.048 A 
HETATM   33  C   UNL     1      42.905 -15.067   3.114  1.00  0.00     0.011 A 
HETATM   34  C   UNL     1      42.968 -16.246   2.372  1.00  0.00     0.037 A 
HETATM   35  C   UNL     1      43.202 -17.467   3.000  1.00  0.00     0.068 A 
HETATM   36  C   UNL     1      43.367 -17.497   4.385  1.00  0.00     0.037 A 
HETATM   37  C   UNL     1      43.310 -16.310   5.133  1.00  0.00     0.011 A 
BRANCH  35  38
HETATM   38  O   UNL     1      43.241 -18.542   2.155  1.00  0.00    -0.356 OA
HETATM   39  C   UNL     1      43.712 -19.767   2.697  1.00  0.00     0.210 C 
ENDBRANCH  35  38
ENDBRANCH  21  32
ENDBRANCH   1  21
TORSDOF 7
ENDMDL
MODEL 3
REMARK VINA RESULT:      -9.3      2.615      5.359
REMARK  7 active torsions:
REMARK  status: ('A' for Active; 'I' for Inactive)
REMARK    1  A    between atoms: N_7  and  C_8 
REMARK    2  A    between atoms: C_8  and  C_9 
REMARK       I    between atoms: C_9  and  N_10 
REMARK    3  A    between atoms: N_10  and  C_11 
REMARK    4  A    between atoms: C_11  and  C_12 
REMARK    5  A    between atoms: C_12  and  C_13 
REMARK    6  A    between atoms: C_12  and  C_23 
REMARK    7  A    between atoms: C_26  and  O_27 
ROOT
HETATM    1  C   UNL     1      41.620 -12.234   5.961  1.00  0.00     0.136 C 
ENDROOT
BRANCH   1   2
HETATM    2  N   UNL     1      40.788 -11.456   6.871  1.00  0.00    -0.359 N 
HETATM    3  C   UNL     1      40.891 -10.073   6.783  1.00  0.00     0.236 C 
HETATM    4  O   UNL     1      41.811  -9.520   6.181  1.00  0.00    -0.272 OA
HETATM    5  H   UNL     1      39.869 -11.821   7.099  1.00  0.00     0.162 HD
BRANCH   3   6
HETATM    6  C   UNL     1      39.686  -9.277   7.268  1.00  0.00     0.239 C 
BRANCH   6   7
HETATM    7  N   UNL     1      39.558  -9.140   8.701  1.00  0.00    -0.259 N 
HETATM    8  C   UNL     1      38.954 -10.068   9.490  1.00  0.00     0.326 C 
HETATM    9  N   UNL     1      39.184  -9.738  10.804  1.00  0.00    -0.324 N 
HETATM   10  O   UNL     1      38.344 -11.064   9.144  1.00  0.00    -0.247 OA
HETATM   11  C   UNL     1      40.175  -8.683  10.947  1.00  0.00     0.119 C 
HETATM   12  H   UNL     1      38.914 -10.392  11.528  1.00  0.00     0.165 HD
HETATM   13  C   UNL     1      39.697  -7.628  11.964  1.00  0.00     0.019 C 
HETATM   14  C   UNL     1      40.234  -8.233   9.465  1.00  0.00     0.257 C 
HETATM   15  C   UNL     1      41.546  -9.288  11.309  1.00  0.00     0.041 C 
HETATM   16  C   UNL     1      40.477  -6.309  11.902  1.00  0.00     0.013 C 
HETATM   17  C   UNL     1      39.758  -8.208  13.396  1.00  0.00     0.007 C 
HETATM   18  C   UNL     1      41.128  -8.785  13.752  1.00  0.00     0.001 C 
HETATM   19  C   UNL     1      41.589  -9.825  12.737  1.00  0.00     0.003 C 
HETATM   20  O   UNL     1      40.876  -7.289   9.019  1.00  0.00    -0.270 OA
ENDBRANCH   6   7
ENDBRANCH   3   6
ENDBRANCH   1   2
BRANCH   1  21
HETATM   21  C   UNL     1      42.913 -12.898   6.468  1.00  0.00     0.071 C 
BRANCH  21  22
HETATM   22  C   UNL     1      44.176 -12.069   6.486  1.00  0.00    -0.020 A 
HETATM   23  C   UNL     1      44.573 -11.193   7.565  1.00  0.00    -0.001 A 
HETATM   24  C   UNL     1      45.773 -10.583   7.202  1.00  0.00     0.042 A 
HETATM   25  C   UNL     1      44.016 -10.865   8.820  1.00  0.00     0.014 A 
HETATM   26  C   UNL     1      46.438  -9.661   8.020  1.00  0.00     0.030 A 
HETATM   27  N   UNL     1      46.112 -11.069   5.965  1.00  0.00    -0.365 N 
HETATM   28  C   UNL     1      45.861  -9.355   9.256  1.00  0.00     0.002 A 
HETATM   29  C   UNL     1      44.668  -9.949   9.654  1.00  0.00     0.001 A 
HETATM   30  H   UNL     1      46.945 -10.807   5.455  1.00  0.00     0.165 HD
HETATM   31  C   UNL     1      45.172 -11.966   5.531  1.00  0.00     0.097 A 
ENDBRANCH  21  22
BRANCH  21  32
HETATM   32  C   UNL     1      43.252 -14.250   5.868  1.00  0.00    -0.048 A 
HETATM   33  C   UNL     1      43.995 -15.165   6.634  1.00  0.00     0.011 A 
HETATM   34  C   UNL     1      44.319 -16.427   6.135  1.00  0.00     0.037 A 
HETATM   35  C   UNL     1      43.909 -16.811   4.860  1.00  0.00     0.068 A 
HETATM   36  C   UNL     1      43.175 -15.914   4.085  1.00  0.00     0.037 A 
HETATM   37  C   UNL     1      42.842 -14.647   4.588  1.00  0.00     0.011 A 
BRANCH  35  38
HETATM   38  O   UNL     1      44.294 -18.072   4.498  1.00  0.00    -0.356 OA
HETATM   39  C   UNL     1      43.976 -18.484   3.176  1.00  0.00     0.210 C 
ENDBRANCH  35  38
ENDBRANCH  21  32
ENDBRANCH   1  21
TORSDOF 7
ENDMDL
MODEL 4
REMARK VINA RESULT:      -9.2      1.882      2.869
REMARK  7 active torsions:
REMARK  status: ('A' for Active; 'I' for Inactive)
REMARK    1  A    between atoms: N_7  and  C_8 
REMARK    2  A    between atoms: C_8  and  C_9 
REMARK       I    between atoms: C_9  and  N_10 
REMARK    3  A    between atoms: N_10  and  C_11 
REMARK    4  A    between atoms: C_11  and  C_12 
REMARK    5  A    between atoms: C_12  and  C_13 
REMARK    6  A    between atoms: C_12  and  C_23 
REMARK    7  A    between atoms: C_26  and  O_27 
ROOT
HETATM    1  C   UNL     1      40.076 -12.251   5.305  1.00  0.00     0.136 C 
ENDROOT
BRANCH   1   2
HETATM    2  N   UNL     1      40.023 -10.836   5.649  1.00  0.00    -0.359 N 
HETATM    3  C   UNL     1      39.162 -10.474   6.678  1.00  0.00     0.236 C 
HETATM    4  O   UNL     1      38.291 -11.234   7.103  1.00  0.00    -0.272 OA
HETATM    5  H   UNL     1      40.882 -10.300   5.578  1.00  0.00     0.162 HD
BRANCH   3   6
HETATM    6  C   UNL     1      39.498  -9.183   7.413  1.00  0.00     0.239 C 
BRANCH   6   7
HETATM    7  N   UNL     1      40.459  -9.302   8.486  1.00  0.00    -0.259 N 
HETATM    8  C   UNL     1      41.803  -9.225   8.299  1.00  0.00     0.326 C 
HETATM    9  N   UNL     1      42.411  -9.169   9.529  1.00  0.00    -0.324 N 
HETATM   10  O   UNL     1      42.410  -9.164   7.244  1.00  0.00    -0.247 OA
HETATM   11  C   UNL     1      41.461  -8.962  10.611  1.00  0.00     0.119 C 
HETATM   12  H   UNL     1      43.405  -8.980   9.576  1.00  0.00     0.165 HD
HETATM   13  C   UNL     1      41.763  -9.916  11.784  1.00  0.00     0.019 C 
HETATM   14  C   UNL     1      40.159  -9.241   9.816  1.00  0.00     0.257 C 
HETATM   15  C   UNL     1      41.448  -7.479  11.030  1.00  0.00     0.041 C 
HETATM   16  C   UNL     1      40.614 -10.043  12.791  1.00  0.00     0.013 C 
HETATM   17  C   UNL     1      43.052  -9.468  12.511  1.00  0.00     0.007 C 
HETATM   18  C   UNL     1      43.019  -8.001  12.941  1.00  0.00     0.001 C 
HETATM   19  C   UNL     1      42.718  -7.070  11.772  1.00  0.00     0.003 C 
HETATM   20  O   UNL     1      39.024  -9.280  10.277  1.00  0.00    -0.270 OA
ENDBRANCH   6   7
ENDBRANCH   3   6
ENDBRANCH   1   2
BRANCH   1  21
HETATM   21  C   UNL     1      41.355 -12.854   4.697  1.00  0.00     0.071 C 
BRANCH  21  22
HETATM   22  C   UNL     1      41.440 -14.358   4.571  1.00  0.00    -0.020 A 
HETATM   23  C   UNL     1      42.162 -15.060   3.534  1.00  0.00    -0.001 A 
HETATM   24  C   UNL     1      41.980 -16.427   3.737  1.00  0.00     0.042 A 
HETATM   25  C   UNL     1      42.955 -14.651   2.440  1.00  0.00     0.014 A 
HETATM   26  C   UNL     1      42.541 -17.403   2.902  1.00  0.00     0.030 A 
HETATM   27  N   UNL     1      41.197 -16.567   4.854  1.00  0.00    -0.365 N 
HETATM   28  C   UNL     1      43.319 -16.967   1.826  1.00  0.00     0.002 A 
HETATM   29  C   UNL     1      43.527 -15.611   1.597  1.00  0.00     0.001 A 
HETATM   30  H   UNL     1      40.909 -17.454   5.244  1.00  0.00     0.165 HD
HETATM   31  C   UNL     1      40.877 -15.338   5.369  1.00  0.00     0.097 A 
ENDBRANCH  21  22
BRANCH  21  32
HETATM   32  C   UNL     1      42.669 -12.361   5.274  1.00  0.00    -0.048 A 
HETATM   33  C   UNL     1      42.966 -12.640   6.620  1.00  0.00     0.011 A 
HETATM   34  C   UNL     1      44.167 -12.224   7.194  1.00  0.00     0.037 A 
HETATM   35  C   UNL     1      45.106 -11.521   6.442  1.00  0.00     0.068 A 
HETATM   36  C   UNL     1      44.826 -11.233   5.106  1.00  0.00     0.037 A 
HETATM   37  C   UNL     1      43.621 -11.657   4.525  1.00  0.00     0.011 A 
BRANCH  35  38
HETATM   38  O   UNL     1      46.237 -11.176   7.128  1.00  0.00    -0.356 OA
HETATM   39  C   UNL     1      46.152 -10.037   7.973  1.00  0.00     0.210 C 
ENDBRANCH  35  38
ENDBRANCH  21  32
ENDBRANCH   1  21
TORSDOF 7
ENDMDL
MODEL 5
REMARK VINA RESULT:      -9.2      2.713      4.569
REMARK  7 active torsions:
REMARK  status: ('A' for Active; 'I' for Inactive)
REMARK    1  A    between atoms: N_7  and  C_8 
REMARK    2  A    between atoms: C_8  and  C_9 
REMARK       I    between atoms: C_9  and  N_10 
REMARK    3  A    between atoms: N_10  and  C_11 
REMARK    4  A    between atoms: C_11  and  C_12 
REMARK    5  A    between atoms: C_12  and  C_13 
REMARK    6  A    between atoms: C_12  and  C_23 
REMARK    7  A    between atoms: C_26  and  O_27 
ROOT
HETATM    1  C   UNL     1      43.343 -13.306   5.821  1.00  0.00     0.136 C 
ENDROOT
BRANCH   1   2
HETATM    2  N   UNL     1      43.067 -12.307   6.845  1.00  0.00    -0.359 N 
HETATM    3  C   UNL     1      44.115 -11.466   7.199  1.00  0.00     0.236 C 
HETATM    4  O   UNL     1      45.282 -11.704   6.884  1.00  0.00    -0.272 OA
HETATM    5  H   UNL     1      42.140 -11.894   6.864  1.00  0.00     0.162 HD
BRANCH   3   6
HETATM    6  C   UNL     1      43.726 -10.118   7.792  1.00  0.00     0.239 C 
BRANCH   6   7
HETATM    7  N   UNL     1      43.442 -10.113   9.209  1.00  0.00    -0.259 N 
HETATM    8  C   UNL     1      44.359 -10.445  10.157  1.00  0.00     0.326 C 
HETATM    9  N   UNL     1      43.838 -10.139  11.391  1.00  0.00    -0.324 N 
HETATM   10  O   UNL     1      45.479 -10.893   9.991  1.00  0.00    -0.247 OA
HETATM   11  C   UNL     1      42.618  -9.351  11.300  1.00  0.00     0.119 C 
HETATM   12  H   UNL     1      44.437 -10.203  12.205  1.00  0.00     0.165 HD
HETATM   13  C   UNL     1      41.547  -9.904  12.261  1.00  0.00     0.019 C 
HETATM   14  C   UNL     1      42.346  -9.539   9.786  1.00  0.00     0.257 C 
HETATM   15  C   UNL     1      42.930  -7.862  11.541  1.00  0.00     0.041 C 
HETATM   16  C   UNL     1      40.131  -9.395  11.969  1.00  0.00     0.013 C 
HETATM   17  C   UNL     1      41.931  -9.582  13.723  1.00  0.00     0.007 C 
HETATM   18  C   UNL     1      42.216  -8.098  13.956  1.00  0.00     0.001 C 
HETATM   19  C   UNL     1      43.275  -7.564  12.998  1.00  0.00     0.003 C 
HETATM   20  O   UNL     1      41.367  -9.135   9.170  1.00  0.00    -0.270 OA
ENDBRANCH   6   7
ENDBRANCH   3   6
ENDBRANCH   1   2
BRANCH   1  21
HETATM   21  C   UNL     1      42.359 -14.465   5.582  1.00  0.00     0.071 C 
BRANCH  21  22
HETATM   22  C   UNL     1      42.762 -15.845   6.048  1.00  0.00    -0.020 A 
HETATM   23  C   UNL     1      43.229 -16.905   5.183  1.00  0.00    -0.001 A 
HETATM   24  C   UNL     1      43.470 -18.028   5.974  1.00  0.00     0.042 A 
HETATM   25  C   UNL     1      43.467 -17.008   3.795  1.00  0.00     0.014 A 
HETATM   26  C   UNL     1      43.928 -19.244   5.451  1.00  0.00     0.030 A 
HETATM   27  N   UNL     1      43.184 -17.676   7.268  1.00  0.00    -0.365 N 
HETATM   28  C   UNL     1      44.152 -19.316   4.073  1.00  0.00     0.002 A 
HETATM   29  C   UNL     1      43.927 -18.214   3.255  1.00  0.00     0.001 A 
HETATM   30  H   UNL     1      43.276 -18.294   8.063  1.00  0.00     0.165 HD
HETATM   31  C   UNL     1      42.770 -16.371   7.328  1.00  0.00     0.097 A 
ENDBRANCH  21  22
BRANCH  21  32
HETATM   32  C   UNL     1      41.803 -14.593   4.176  1.00  0.00    -0.048 A 
HETATM   33  C   UNL     1      40.607 -15.306   3.982  1.00  0.00     0.011 A 
HETATM   34  C   UNL     1      40.045 -15.439   2.713  1.00  0.00     0.037 A 
HETATM   35  C   UNL     1      40.659 -14.863   1.602  1.00  0.00     0.068 A 
HETATM   36  C   UNL     1      41.848 -14.155   1.776  1.00  0.00     0.037 A 
HETATM   37  C   UNL     1      42.411 -14.015   3.054  1.00  0.00     0.011 A 
BRANCH  35  38
HETATM   38  O   UNL     1      40.002 -15.069   0.421  1.00  0.00    -0.356 OA
HETATM   39  C   UNL     1      40.006 -13.997  -0.510  1.00  0.00     0.210 C 
ENDBRANCH  35  38
ENDBRANCH  21  32
ENDBRANCH   1  21
TORSDOF 7
ENDMDL
MODEL 6
REMARK VINA RESULT:      -9.2      2.166      5.063
REMARK  7 active torsions:
REMARK  status: ('A' for Active; 'I' for Inactive)
REMARK    1  A    between atoms: N_7  and  C_8 
REMARK    2  A    between atoms: C_8  and  C_9 
REMARK       I    between atoms: C_9  and  N_10 
REMARK    3  A    between atoms: N_10  and  C_11 
REMARK    4  A    between atoms: C_11  and  C_12 
REMARK    5  A    between atoms: C_12  and  C_13 
REMARK    6  A    between atoms: C_12  and  C_23 
REMARK    7  A    between atoms: C_26  and  O_27 
ROOT
HETATM    1  C   UNL     1      40.368 -14.155   3.869  1.00  0.00     0.136 C 
ENDROOT
BRANCH   1   2
HETATM    2  N   UNL     1      39.810 -12.810   3.850  1.00  0.00    -0.359 N 
HETATM    3  C   UNL     1      39.372 -12.296   5.065  1.00  0.00     0.236 C 
HETATM    4  O   UNL     1      39.204 -13.009   6.055  1.00  0.00    -0.272 OA
HETATM    5  H   UNL     1      40.214 -12.140   3.203  1.00  0.00     0.162 HD
BRANCH   3   6
HETATM    6  C   UNL     1      39.335 -10.778   5.180  1.00  0.00     0.239 C 
BRANCH   6   7
HETATM    7  N   UNL     1      40.423 -10.177   5.919  1.00  0.00    -0.259 N 
HETATM    8  C   UNL     1      41.526  -9.647   5.327  1.00  0.00     0.326 C 
HETATM    9  N   UNL     1      42.254  -8.981   6.283  1.00  0.00    -0.324 N 
HETATM   10  O   UNL     1      41.836  -9.685   4.150  1.00  0.00    -0.247 OA
HETATM   11  C   UNL     1      41.528  -8.836   7.535  1.00  0.00     0.119 C 
HETATM   12  H   UNL     1      43.044  -8.417   5.993  1.00  0.00     0.165 HD
HETATM   13  C   UNL     1      42.437  -9.183   8.730  1.00  0.00     0.019 C 
HETATM   14  C   UNL     1      40.374  -9.828   7.237  1.00  0.00     0.257 C 
HETATM   15  C   UNL     1      40.919  -7.424   7.634  1.00  0.00     0.041 C 
HETATM   16  C   UNL     1      41.675  -9.428  10.038  1.00  0.00     0.013 C 
HETATM   17  C   UNL     1      43.490  -8.070   8.935  1.00  0.00     0.007 C 
HETATM   18  C   UNL     1      42.873  -6.675   9.054  1.00  0.00     0.001 C 
HETATM   19  C   UNL     1      41.975  -6.346   7.867  1.00  0.00     0.003 C 
HETATM   20  O   UNL     1      39.486 -10.161   8.013  1.00  0.00    -0.270 OA
ENDBRANCH   6   7
ENDBRANCH   3   6
ENDBRANCH   1   2
BRANCH   1  21
HETATM   21  C   UNL     1      41.760 -14.409   4.475  1.00  0.00     0.071 C 
BRANCH  21  22
HETATM   22  C   UNL     1      42.796 -13.315   4.357  1.00  0.00    -0.020 A 
HETATM   23  C   UNL     1      43.490 -12.711   5.472  1.00  0.00    -0.001 A 
HETATM   24  C   UNL     1      44.337 -11.727   4.966  1.00  0.00     0.042 A 
HETATM   25  C   UNL     1      43.471 -12.916   6.868  1.00  0.00     0.014 A 
HETATM   26  C   UNL     1      45.157 -10.934   5.781  1.00  0.00     0.030 A 
HETATM   27  N   UNL     1      44.189 -11.731   3.603  1.00  0.00    -0.365 N 
HETATM   28  C   UNL     1      45.114 -11.159   7.159  1.00  0.00     0.002 A 
HETATM   29  C   UNL     1      44.285 -12.137   7.698  1.00  0.00     0.001 A 
HETATM   30  H   UNL     1      44.691 -11.122   2.970  1.00  0.00     0.165 HD
HETATM   31  C   UNL     1      43.279 -12.683   3.225  1.00  0.00     0.097 A 
ENDBRANCH  21  22
BRANCH  21  32
HETATM   32  C   UNL     1      42.426 -15.721   4.101  1.00  0.00    -0.048 A 
HETATM   33  C   UNL     1      42.138 -16.295   2.850  1.00  0.00     0.011 A 
HETATM   34  C   UNL     1      42.735 -17.491   2.451  1.00  0.00     0.037 A 
HETATM   35  C   UNL     1      43.637 -18.146   3.288  1.00  0.00     0.068 A 
HETATM   36  C   UNL     1      43.931 -17.592   4.534  1.00  0.00     0.037 A 
HETATM   37  C   UNL     1      43.336 -16.385   4.934  1.00  0.00     0.011 A 
BRANCH  35  38
HETATM   38  O   UNL     1      44.148 -19.305   2.773  1.00  0.00    -0.356 OA
HETATM   39  C   UNL     1      43.242 -20.154   2.084  1.00  0.00     0.210 C 
ENDBRANCH  35  38
ENDBRANCH  21  32
ENDBRANCH   1  21
TORSDOF 7
ENDMDL
MODEL 7
REMARK VINA RESULT:      -9.1      2.403      4.592
REMARK  7 active torsions:
REMARK  status: ('A' for Active; 'I' for Inactive)
REMARK    1  A    between atoms: N_7  and  C_8 
REMARK    2  A    between atoms: C_8  and  C_9 
REMARK       I    between atoms: C_9  and  N_10 
REMARK    3  A    between atoms: N_10  and  C_11 
REMARK    4  A    between atoms: C_11  and  C_12 
REMARK    5  A    between atoms: C_12  and  C_13 
REMARK    6  A    between atoms: C_12  and  C_23 
REMARK    7  A    between atoms: C_26  and  O_27 
ROOT
HETATM    1  C   UNL     1      44.147 -12.171   6.027  1.00  0.00     0.136 C 
ENDROOT
BRANCH   1   2
HETATM    2  N   UNL     1      44.239 -11.766   7.424  1.00  0.00    -0.359 N 
HETATM    3  C   UNL     1      45.374 -11.056   7.797  1.00  0.00     0.236 C 
HETATM    4  O   UNL     1      46.375 -10.997   7.082  1.00  0.00    -0.272 OA
HETATM    5  H   UNL     1      43.378 -11.511   7.899  1.00  0.00     0.162 HD
BRANCH   3   6
HETATM    6  C   UNL     1      45.236 -10.163   9.023  1.00  0.00     0.239 C 
BRANCH   6   7
HETATM    7  N   UNL     1      43.907 -10.067   9.585  1.00  0.00    -0.259 N 
HETATM    8  C   UNL     1      43.542 -10.667  10.748  1.00  0.00     0.326 C 
HETATM    9  N   UNL     1      42.295 -10.211  11.099  1.00  0.00    -0.324 N 
HETATM   10  O   UNL     1      44.190 -11.445  11.426  1.00  0.00    -0.247 OA
HETATM   11  C   UNL     1      41.867  -9.082  10.289  1.00  0.00     0.119 C 
HETATM   12  H   UNL     1      41.920 -10.458  12.007  1.00  0.00     0.165 HD
HETATM   13  C   UNL     1      40.407  -9.269   9.830  1.00  0.00     0.019 C 
HETATM   14  C   UNL     1      42.952  -9.177   9.186  1.00  0.00     0.257 C 
HETATM   15  C   UNL     1      42.090  -7.764  11.056  1.00  0.00     0.041 C 
HETATM   16  C   UNL     1      39.995  -8.342   8.681  1.00  0.00     0.013 C 
HETATM   17  C   UNL     1      39.448  -9.081  11.028  1.00  0.00     0.007 C 
HETATM   18  C   UNL     1      39.664  -7.760  11.768  1.00  0.00     0.001 C 
HETATM   19  C   UNL     1      41.111  -7.587  12.214  1.00  0.00     0.003 C 
HETATM   20  O   UNL     1      43.020  -8.488   8.175  1.00  0.00    -0.270 OA
ENDBRANCH   6   7
ENDBRANCH   3   6
ENDBRANCH   1   2
BRANCH   1  21
HETATM   21  C   UNL     1      42.919 -12.950   5.524  1.00  0.00     0.071 C 
BRANCH  21  22
HETATM   22  C   UNL     1      42.997 -13.593   4.158  1.00  0.00    -0.020 A 
HETATM   23  C   UNL     1      43.071 -15.016   3.920  1.00  0.00    -0.001 A 
HETATM   24  C   UNL     1      43.161 -15.216   2.543  1.00  0.00     0.042 A 
HETATM   25  C   UNL     1      43.070 -16.154   4.756  1.00  0.00     0.014 A 
HETATM   26  C   UNL     1      43.257 -16.487   1.961  1.00  0.00     0.030 A 
HETATM   27  N   UNL     1      43.127 -13.977   1.955  1.00  0.00    -0.365 N 
HETATM   28  C   UNL     1      43.256 -17.593   2.815  1.00  0.00     0.002 A 
HETATM   29  C   UNL     1      43.162 -17.433   4.193  1.00  0.00     0.001 A 
HETATM   30  H   UNL     1      43.167 -13.815   0.958  1.00  0.00     0.165 HD
HETATM   31  C   UNL     1      43.018 -12.999   2.909  1.00  0.00     0.097 A 
ENDBRANCH  21  22
BRANCH  21  32
HETATM   32  C   UNL     1      41.584 -12.234   5.625  1.00  0.00    -0.048 A 
HETATM   33  C   UNL     1      41.552 -10.836   5.486  1.00  0.00     0.011 A 
HETATM   34  C   UNL     1      40.349 -10.132   5.554  1.00  0.00     0.037 A 
HETATM   35  C   UNL     1      39.146 -10.804   5.760  1.00  0.00     0.068 A 
HETATM   36  C   UNL     1      39.160 -12.192   5.903  1.00  0.00     0.037 A 
HETATM   37  C   UNL     1      40.368 -12.902   5.828  1.00  0.00     0.011 A 
BRANCH  35  38
HETATM   38  O   UNL     1      38.045  -9.995   5.804  1.00  0.00    -0.356 OA
HETATM   39  C   UNL     1      38.214  -8.658   5.353  1.00  0.00     0.210 C 
ENDBRANCH  35  38
ENDBRANCH  21  32
ENDBRANCH   1  21
TORSDOF 7
ENDMDL
MODEL 8
REMARK VINA RESULT:      -8.7      3.521      5.423
REMARK  7 active torsions:
REMARK  status: ('A' for Active; 'I' for Inactive)
REMARK    1  A    between atoms: N_7  and  C_8 
REMARK    2  A    between atoms: C_8  and  C_9 
REMARK       I    between atoms: C_9  and  N_10 
REMARK    3  A    between atoms: N_10  and  C_11 
REMARK    4  A    between atoms: C_11  and  C_12 
REMARK    5  A    between atoms: C_12  and  C_13 
REMARK    6  A    between atoms: C_12  and  C_23 
REMARK    7  A    between atoms: C_26  and  O_27 
ROOT
HETATM    1  C   UNL     1      41.926 -13.689   3.849  1.00  0.00     0.136 C 
ENDROOT
BRANCH   1   2
HETATM    2  N   UNL     1      42.742 -12.497   4.040  1.00  0.00    -0.359 N 
HETATM    3  C   UNL     1      42.094 -11.366   4.522  1.00  0.00     0.236 C 
HETATM    4  O   UNL     1      40.867 -11.268   4.536  1.00  0.00    -0.272 OA
HETATM    5  H   UNL     1      43.701 -12.625   4.346  1.00  0.00     0.162 HD
BRANCH   3   6
HETATM    6  C   UNL     1      42.966 -10.349   5.247  1.00  0.00     0.239 C 
BRANCH   6   7
HETATM    7  N   UNL     1      42.918 -10.396   6.691  1.00  0.00    -0.259 N 
HETATM    8  C   UNL     1      43.486 -11.388   7.427  1.00  0.00     0.326 C 
HETATM    9  N   UNL     1      43.440 -11.027   8.751  1.00  0.00    -0.324 N 
HETATM   10  O   UNL     1      44.003 -12.416   7.026  1.00  0.00    -0.247 OA
HETATM   11  C   UNL     1      43.044  -9.640   8.937  1.00  0.00     0.119 C 
HETATM   12  H   UNL     1      43.934 -11.593   9.430  1.00  0.00     0.165 HD
HETATM   13  C   UNL     1      41.991  -9.525  10.058  1.00  0.00     0.019 C 
HETATM   14  C   UNL     1      42.548  -9.357   7.496  1.00  0.00     0.257 C 
HETATM   15  C   UNL     1      44.286  -8.763   9.187  1.00  0.00     0.041 C 
HETATM   16  C   UNL     1      41.244  -8.187  10.070  1.00  0.00     0.013 C 
HETATM   17  C   UNL     1      42.654  -9.770  11.433  1.00  0.00     0.007 C 
HETATM   18  C   UNL     1      43.872  -8.879  11.679  1.00  0.00     0.001 C 
HETATM   19  C   UNL     1      44.903  -9.001  10.563  1.00  0.00     0.003 C 
HETATM   20  O   UNL     1      42.018  -8.325   7.101  1.00  0.00    -0.270 OA
ENDBRANCH   6   7
ENDBRANCH   3   6
ENDBRANCH   1   2
BRANCH   1  21
HETATM   21  C   UNL     1      42.245 -14.674   2.710  1.00  0.00     0.071 C 
BRANCH  21  22
HETATM   22  C   UNL     1      41.181 -14.918   1.664  1.00  0.00    -0.020 A 
HETATM   23  C   UNL     1      40.856 -14.007   0.590  1.00  0.00    -0.001 A 
HETATM   24  C   UNL     1      39.809 -14.565  -0.142  1.00  0.00     0.042 A 
HETATM   25  C   UNL     1      41.361 -12.756   0.176  1.00  0.00     0.014 A 
HETATM   26  C   UNL     1      39.238 -13.937  -1.257  1.00  0.00     0.030 A 
HETATM   27  N   UNL     1      39.510 -15.771   0.440  1.00  0.00    -0.365 N 
HETATM   28  C   UNL     1      39.758 -12.698  -1.641  1.00  0.00     0.002 A 
HETATM   29  C   UNL     1      40.806 -12.114  -0.938  1.00  0.00     0.001 A 
HETATM   30  H   UNL     1      38.792 -16.403   0.112  1.00  0.00     0.165 HD
HETATM   31  C   UNL     1      40.330 -15.998   1.514  1.00  0.00     0.097 A 
ENDBRANCH  21  22
BRANCH  21  32
HETATM   32  C   UNL     1      42.805 -16.022   3.126  1.00  0.00    -0.048 A 
HETATM   33  C   UNL     1      42.891 -16.327   4.495  1.00  0.00     0.011 A 
HETATM   34  C   UNL     1      43.382 -17.558   4.930  1.00  0.00     0.037 A 
HETATM   35  C   UNL     1      43.801 -18.518   4.011  1.00  0.00     0.068 A 
HETATM   36  C   UNL     1      43.727 -18.230   2.647  1.00  0.00     0.037 A 
HETATM   37  C   UNL     1      43.225 -16.995   2.209  1.00  0.00     0.011 A 
BRANCH  35  38
HETATM   38  O   UNL     1      44.259 -19.678   4.571  1.00  0.00    -0.356 OA
HETATM   39  C   UNL     1      43.937 -20.886   3.898  1.00  0.00     0.210 C 
ENDBRANCH  35  38
ENDBRANCH  21  32
ENDBRANCH   1  21
TORSDOF 7
ENDMDL
MODEL 9
REMARK VINA RESULT:      -8.7      4.783      7.295
REMARK  7 active torsions:
REMARK  status: ('A' for Active; 'I' for Inactive)
REMARK    1  A    between atoms: N_7  and  C_8 
REMARK    2  A    between atoms: C_8  and  C_9 
REMARK       I    between atoms: C_9  and  N_10 
REMARK    3  A    between atoms: N_10  and  C_11 
REMARK    4  A    between atoms: C_11  and  C_12 
REMARK    5  A    between atoms: C_12  and  C_13 
REMARK    6  A    between atoms: C_12  and  C_23 
REMARK    7  A    between atoms: C_26  and  O_27 
ROOT
HETATM    1  C   UNL     1      42.142 -10.011   3.734  1.00  0.00     0.136 C 
ENDROOT
BRANCH   1   2
HETATM    2  N   UNL     1      41.618 -10.042   2.375  1.00  0.00    -0.359 N 
HETATM    3  C   UNL     1      40.299  -9.639   2.203  1.00  0.00     0.236 C 
HETATM    4  O   UNL     1      39.521  -9.520   3.150  1.00  0.00    -0.272 OA
HETATM    5  H   UNL     1      42.255  -9.816   1.618  1.00  0.00     0.162 HD
BRANCH   3   6
HETATM    6  C   UNL     1      39.928  -9.126   0.818  1.00  0.00     0.239 C 
BRANCH   6   7
HETATM    7  N   UNL     1      39.874 -10.123  -0.228  1.00  0.00    -0.259 N 
HETATM    8  C   UNL     1      40.975 -10.585  -0.878  1.00  0.00     0.326 C 
HETATM    9  N   UNL     1      40.604 -11.657  -1.652  1.00  0.00    -0.324 N 
HETATM   10  O   UNL     1      42.122 -10.184  -0.788  1.00  0.00    -0.247 OA
HETATM   11  C   UNL     1      39.255 -12.114  -1.361  1.00  0.00     0.119 C 
HETATM   12  H   UNL     1      41.324 -12.205  -2.108  1.00  0.00     0.165 HD
HETATM   13  C   UNL     1      38.477 -12.370  -2.667  1.00  0.00     0.019 C 
HETATM   14  C   UNL     1      38.791 -10.904  -0.510  1.00  0.00     0.257 C 
HETATM   15  C   UNL     1      39.299 -13.347  -0.437  1.00  0.00     0.041 C 
HETATM   16  C   UNL     1      36.960 -12.482  -2.474  1.00  0.00     0.013 C 
HETATM   17  C   UNL     1      39.015 -13.642  -3.362  1.00  0.00     0.007 C 
HETATM   18  C   UNL     1      39.035 -14.865  -2.443  1.00  0.00     0.001 C 
HETATM   19  C   UNL     1      39.804 -14.597  -1.155  1.00  0.00     0.003 C 
HETATM   20  O   UNL     1      37.667 -10.725  -0.057  1.00  0.00    -0.270 OA
ENDBRANCH   6   7
ENDBRANCH   3   6
ENDBRANCH   1   2
BRANCH   1  21
HETATM   21  C   UNL     1      42.762 -11.276   4.356  1.00  0.00     0.071 C 
BRANCH  21  22
HETATM   22  C   UNL     1      41.929 -12.536   4.378  1.00  0.00    -0.020 A 
HETATM   23  C   UNL     1      42.148 -13.685   3.528  1.00  0.00    -0.001 A 
HETATM   24  C   UNL     1      41.164 -14.628   3.821  1.00  0.00     0.042 A 
HETATM   25  C   UNL     1      43.097 -14.005   2.534  1.00  0.00     0.014 A 
HETATM   26  C   UNL     1      41.075 -15.865   3.170  1.00  0.00     0.030 A 
HETATM   27  N   UNL     1      40.383 -14.098   4.817  1.00  0.00    -0.365 N 
HETATM   28  C   UNL     1      42.028 -16.152   2.188  1.00  0.00     0.002 A 
HETATM   29  C   UNL     1      43.027 -15.237   1.874  1.00  0.00     0.001 A 
HETATM   30  H   UNL     1      39.592 -14.567   5.236  1.00  0.00     0.165 HD
HETATM   31  C   UNL     1      40.836 -12.853   5.166  1.00  0.00     0.097 A 
ENDBRANCH  21  22
BRANCH  21  32
HETATM   32  C   UNL     1      43.390 -11.109   5.728  1.00  0.00    -0.048 A 
HETATM   33  C   UNL     1      44.657 -11.669   5.966  1.00  0.00     0.011 A 
HETATM   34  C   UNL     1      45.286 -11.531   7.203  1.00  0.00     0.037 A 
HETATM   35  C   UNL     1      44.669 -10.828   8.236  1.00  0.00     0.068 A 
HETATM   36  C   UNL     1      43.409 -10.269   8.019  1.00  0.00     0.037 A 
HETATM   37  C   UNL     1      42.779 -10.402   6.772  1.00  0.00     0.011 A 
BRANCH  35  38
HETATM   38  O   UNL     1      45.394 -10.769   9.393  1.00  0.00    -0.356 OA
HETATM   39  C   UNL     1      44.946  -9.856  10.385  1.00  0.00     0.210 C 
ENDBRANCH  35  38
ENDBRANCH  21  32
ENDBRANCH   1  21
TORSDOF 7
ENDMDL
MODEL 10
REMARK VINA RESULT:      -8.7      3.082      5.581
REMARK  7 active torsions:
REMARK  status: ('A' for Active; 'I' for Inactive)
REMARK    1  A    between atoms: N_7  and  C_8 
REMARK    2  A    between atoms: C_8  and  C_9 
REMARK       I    between atoms: C_9  and  N_10 
REMARK    3  A    between atoms: N_10  and  C_11 
REMARK    4  A    between atoms: C_11  and  C_12 
REMARK    5  A    between atoms: C_12  and  C_13 
REMARK    6  A    between atoms: C_12  and  C_23 
REMARK    7  A    between atoms: C_26  and  O_27 
ROOT
HETATM    1  C   UNL     1      43.292 -14.758   4.755  1.00  0.00     0.136 C 
ENDROOT
BRANCH   1   2
HETATM    2  N   UNL     1      42.673 -13.543   5.270  1.00  0.00    -0.359 N 
HETATM    3  C   UNL     1      43.460 -12.738   6.085  1.00  0.00     0.236 C 
HETATM    4  O   UNL     1      44.517 -13.135   6.577  1.00  0.00    -0.272 OA
HETATM    5  H   UNL     1      42.012 -13.059   4.671  1.00  0.00     0.162 HD
BRANCH   3   6
HETATM    6  C   UNL     1      43.072 -11.266   6.152  1.00  0.00     0.239 C 
BRANCH   6   7
HETATM    7  N   UNL     1      42.179 -10.804   5.114  1.00  0.00    -0.259 N 
HETATM    8  C   UNL     1      42.504 -10.803   3.793  1.00  0.00     0.326 C 
HETATM    9  N   UNL     1      41.376 -10.503   3.069  1.00  0.00    -0.324 N 
HETATM   10  O   UNL     1      43.580 -11.063   3.286  1.00  0.00    -0.247 OA
HETATM   11  C   UNL     1      40.170 -10.525   3.881  1.00  0.00     0.119 C 
HETATM   12  H   UNL     1      41.406 -10.584   2.060  1.00  0.00     0.165 HD
HETATM   13  C   UNL     1      39.295  -9.291   3.582  1.00  0.00     0.019 C 
HETATM   14  C   UNL     1      40.845 -10.567   5.277  1.00  0.00     0.257 C 
HETATM   15  C   UNL     1      39.420 -11.856   3.682  1.00  0.00     0.041 C 
HETATM   16  C   UNL     1      38.214  -9.027   4.637  1.00  0.00     0.013 C 
HETATM   17  C   UNL     1      38.644  -9.431   2.187  1.00  0.00     0.007 C 
HETATM   18  C   UNL     1      37.884 -10.746   2.007  1.00  0.00     0.001 C 
HETATM   19  C   UNL     1      38.761 -11.956   2.308  1.00  0.00     0.003 C 
HETATM   20  O   UNL     1      40.273 -10.518   6.360  1.00  0.00    -0.270 OA
ENDBRANCH   6   7
ENDBRANCH   3   6
ENDBRANCH   1   2
BRANCH   1  21
HETATM   21  C   UNL     1      42.452 -15.787   3.976  1.00  0.00     0.071 C 
BRANCH  21  22
HETATM   22  C   UNL     1      43.087 -17.119   3.651  1.00  0.00    -0.020 A 
HETATM   23  C   UNL     1      43.342 -18.168   4.611  1.00  0.00    -0.001 A 
HETATM   24  C   UNL     1      43.961 -19.222   3.940  1.00  0.00     0.042 A 
HETATM   25  C   UNL     1      43.101 -18.315   5.994  1.00  0.00     0.014 A 
HETATM   26  C   UNL     1      44.356 -20.405   4.577  1.00  0.00     0.030 A 
HETATM   27  N   UNL     1      44.068 -18.851   2.624  1.00  0.00    -0.365 N 
HETATM   28  C   UNL     1      44.106 -20.519   5.948  1.00  0.00     0.002 A 
HETATM   29  C   UNL     1      43.485 -19.491   6.648  1.00  0.00     0.001 A 
HETATM   30  H   UNL     1      44.473 -19.427   1.897  1.00  0.00     0.165 HD
HETATM   31  C   UNL     1      43.540 -17.601   2.435  1.00  0.00     0.097 A 
ENDBRANCH  21  22
BRANCH  21  32
HETATM   32  C   UNL     1      41.765 -15.280   2.722  1.00  0.00    -0.048 A 
HETATM   33  C   UNL     1      40.595 -15.924   2.283  1.00  0.00     0.011 A 
HETATM   34  C   UNL     1      39.915 -15.487   1.146  1.00  0.00     0.037 A 
HETATM   35  C   UNL     1      40.383 -14.395   0.417  1.00  0.00     0.068 A 
HETATM   36  C   UNL     1      41.544 -13.746   0.837  1.00  0.00     0.037 A 
HETATM   37  C   UNL     1      42.225 -14.180   1.985  1.00  0.00     0.011 A 
BRANCH  35  38
HETATM   38  O   UNL     1      39.622 -14.074  -0.672  1.00  0.00    -0.356 OA
HETATM   39  C   UNL     1      39.833 -12.791  -1.245  1.00  0.00     0.210 C 
ENDBRANCH  35  38
ENDBRANCH  21  32
ENDBRANCH   1  21
TORSDOF 7
ENDMDL
