MODEL 1
REMARK VINA RESULT:      -8.0      0.000      0.000
REMARK  1 active torsions:
REMARK  status: ('A' for Active; 'I' for Inactive)
REMARK    1  A    between atoms: C_11  and  N_12 
REMARK       I    between atoms: N_12  and  C_13 
REMARK       I    between atoms: C_13  and  N_14 
ROOT
HETATM    1  N   UNL     1      41.755 -16.213   2.359  1.00  0.00    -0.308 N 
HETATM    2  C   UNL     1      42.205 -14.969   1.995  1.00  0.00     0.323 C 
HETATM    3  N   UNL     1      41.188 -14.063   1.651  1.00  0.00    -0.332 N 
HETATM    4  C   UNL     1      41.627 -12.762   1.146  1.00  0.00     0.160 C 
HETATM    5  C   UNL     1      41.647 -11.651   2.225  1.00  0.00     0.204 C 
HETATM    6  N   UNL     1      40.316 -10.929   2.232  1.00  0.00    -0.069 N 
HETATM    7  H   UNL     1      40.141 -10.513   1.307  1.00  0.00     0.277 HD
HETATM    8  H   UNL     1      40.406 -10.121   2.867  1.00  0.00     0.277 HD
HETATM    9  C   UNL     1      39.133 -11.737   2.658  1.00  0.00     0.239 C 
HETATM   10  C   UNL     1      39.536 -13.080   3.269  1.00  0.00     0.029 C 
HETATM   11  C   UNL     1      39.824 -14.137   2.179  1.00  0.00     0.134 C 
HETATM   12  C   UNL     1      41.891 -12.123   3.662  1.00  0.00     0.035 C 
HETATM   13  C   UNL     1      40.705 -12.906   4.252  1.00  0.00     0.010 C 
HETATM   14  O   UNL     1      43.378 -14.611   1.972  1.00  0.00    -0.247 OA
HETATM   15  H   UNL     1      40.893 -16.482   1.918  1.00  0.00     0.170 HD
ENDROOT
BRANCH   1  16
HETATM   16  C   UNL     1      42.483 -17.256   2.999  1.00  0.00     0.049 A 
HETATM   17  C   UNL     1      42.697 -17.205   4.418  1.00  0.00     0.021 A 
HETATM   18  C   UNL     1      43.443 -18.230   5.055  1.00  0.00     0.090 A 
HETATM   19  C   UNL     1      42.216 -16.171   5.265  1.00  0.00     0.017 A 
HETATM   20  N   UNL     1      43.678 -18.221   6.388  1.00  0.00    -0.259 NA
HETATM   21  C   UNL     1      43.949 -19.268   4.265  1.00  0.00     0.063 A 
HETATM   22  C   UNL     1      43.199 -17.218   7.146  1.00  0.00     0.117 A 
HETATM   23  C   UNL     1      42.468 -16.175   6.633  1.00  0.00     0.020 A 
HETATM   24 CL   UNL     1      44.870 -20.561   4.968  1.00  0.00    -0.082 Cl
HETATM   25  C   UNL     1      43.753 -19.312   2.887  1.00  0.00     0.028 A 
HETATM   26  C   UNL     1      43.032 -18.306   2.258  1.00  0.00     0.032 A 
ENDBRANCH   1  16
TORSDOF 1
ENDMDL
MODEL 2
REMARK VINA RESULT:      -7.9      2.974      4.116
REMARK  1 active torsions:
REMARK  status: ('A' for Active; 'I' for Inactive)
REMARK    1  A    between atoms: C_11  and  N_12 
REMARK       I    between atoms: N_12  and  C_13 
REMARK       I    between atoms: C_13  and  N_14 
ROOT
HETATM    1  N   UNL     1      41.740 -13.515   1.129  1.00  0.00    -0.308 N 
HETATM    2  C   UNL     1      40.419 -13.277   0.840  1.00  0.00     0.323 C 
HETATM    3  N   UNL     1      40.211 -12.319  -0.167  1.00  0.00    -0.332 N 
HETATM    4  C   UNL     1      38.819 -11.950  -0.428  1.00  0.00     0.160 C 
HETATM    5  C   UNL     1      38.190 -12.704  -1.625  1.00  0.00     0.204 C 
HETATM    6  N   UNL     1      38.389 -11.897  -2.891  1.00  0.00    -0.069 N 
HETATM    7  H   UNL     1      37.945 -10.974  -2.789  1.00  0.00     0.277 HD
HETATM    8  H   UNL     1      37.852 -12.361  -3.640  1.00  0.00     0.277 HD
HETATM    9  C   UNL     1      39.801 -11.734  -3.351  1.00  0.00     0.239 C 
HETATM   10  C   UNL     1      40.768 -12.647  -2.595  1.00  0.00     0.029 C 
HETATM   11  C   UNL     1      41.175 -12.041  -1.233  1.00  0.00     0.134 C 
HETATM   12  C   UNL     1      38.758 -14.098  -1.907  1.00  0.00     0.035 C 
HETATM   13  C   UNL     1      40.192 -14.067  -2.466  1.00  0.00     0.010 C 
HETATM   14  O   UNL     1      39.460 -13.834   1.364  1.00  0.00    -0.247 OA
HETATM   15  H   UNL     1      42.341 -12.725   0.977  1.00  0.00     0.170 HD
ENDROOT
BRANCH   1  16
HETATM   16  C   UNL     1      42.290 -14.583   1.891  1.00  0.00     0.049 A 
HETATM   17  C   UNL     1      42.532 -14.403   3.295  1.00  0.00     0.021 A 
HETATM   18  C   UNL     1      43.103 -15.459   4.053  1.00  0.00     0.090 A 
HETATM   19  C   UNL     1      42.248 -13.211   4.011  1.00  0.00     0.017 A 
HETATM   20  N   UNL     1      43.357 -15.333   5.376  1.00  0.00    -0.259 NA
HETATM   21  C   UNL     1      43.413 -16.654   3.394  1.00  0.00     0.063 A 
HETATM   22  C   UNL     1      43.067 -14.181   6.007  1.00  0.00     0.117 A 
HETATM   23  C   UNL     1      42.516 -13.096   5.371  1.00  0.00     0.020 A 
HETATM   24 CL   UNL     1      44.112 -17.992   4.249  1.00  0.00    -0.082 Cl
HETATM   25  C   UNL     1      43.191 -16.825   2.029  1.00  0.00     0.028 A 
HETATM   26  C   UNL     1      42.641 -15.792   1.283  1.00  0.00     0.032 A 
ENDBRANCH   1  16
TORSDOF 1
ENDMDL
MODEL 3
REMARK VINA RESULT:      -7.8      2.154      3.571
REMARK  1 active torsions:
REMARK  status: ('A' for Active; 'I' for Inactive)
REMARK    1  A    between atoms: C_11  and  N_12 
REMARK       I    between atoms: N_12  and  C_13 
REMARK       I    between atoms: C_13  and  N_14 
ROOT
HETATM    1  N   UNL     1      42.958 -14.433   5.952  1.00  0.00    -0.308 N 
HETATM    2  C   UNL     1      41.752 -13.789   6.071  1.00  0.00     0.323 C 
HETATM    3  N   UNL     1      41.809 -12.405   5.833  1.00  0.00    -0.332 N 
HETATM    4  C   UNL     1      40.571 -11.660   6.061  1.00  0.00     0.160 C 
HETATM    5  C   UNL     1      39.753 -11.403   4.771  1.00  0.00     0.204 C 
HETATM    6  N   UNL     1      40.160 -10.074   4.171  1.00  0.00    -0.069 N 
HETATM    7  H   UNL     1      39.986  -9.319   4.849  1.00  0.00     0.277 HD
HETATM    8  H   UNL     1      39.514  -9.875   3.392  1.00  0.00     0.277 HD
HETATM    9  C   UNL     1      41.561  -9.985   3.659  1.00  0.00     0.239 C 
HETATM   10  C   UNL     1      42.244 -11.352   3.594  1.00  0.00     0.029 C 
HETATM   11  C   UNL     1      42.808 -11.772   4.970  1.00  0.00     0.134 C 
HETATM   12  C   UNL     1      39.917 -12.446   3.661  1.00  0.00     0.035 C 
HETATM   13  C   UNL     1      41.302 -12.406   2.990  1.00  0.00     0.010 C 
HETATM   14  O   UNL     1      40.679 -14.321   6.337  1.00  0.00    -0.247 OA
HETATM   15  H   UNL     1      43.752 -13.861   6.177  1.00  0.00     0.170 HD
ENDROOT
BRANCH   1  16
HETATM   16  C   UNL     1      43.198 -15.834   5.872  1.00  0.00     0.049 A 
HETATM   17  C   UNL     1      43.271 -16.470   4.586  1.00  0.00     0.021 A 
HETATM   18  C   UNL     1      43.487 -17.870   4.504  1.00  0.00     0.090 A 
HETATM   19  C   UNL     1      43.130 -15.791   3.347  1.00  0.00     0.017 A 
HETATM   20  N   UNL     1      43.555 -18.514   3.316  1.00  0.00    -0.259 NA
HETATM   21  C   UNL     1      43.623 -18.589   5.697  1.00  0.00     0.063 A 
HETATM   22  C   UNL     1      43.415 -17.824   2.170  1.00  0.00     0.117 A 
HETATM   23  C   UNL     1      43.200 -16.469   2.134  1.00  0.00     0.020 A 
HETATM   24 CL   UNL     1      43.890 -20.305   5.682  1.00  0.00    -0.082 Cl
HETATM   25  C   UNL     1      43.539 -17.976   6.944  1.00  0.00     0.028 A 
HETATM   26  C   UNL     1      43.319 -16.608   7.029  1.00  0.00     0.032 A 
ENDBRANCH   1  16
TORSDOF 1
ENDMDL
MODEL 4
REMARK VINA RESULT:      -7.7      2.351      3.310
REMARK  1 active torsions:
REMARK  status: ('A' for Active; 'I' for Inactive)
REMARK    1  A    between atoms: C_11  and  N_12 
REMARK       I    between atoms: N_12  and  C_13 
REMARK       I    between atoms: C_13  and  N_14 
ROOT
HETATM    1  N   UNL     1      42.955 -15.686   5.026  1.00  0.00    -0.308 N 
HETATM    2  C   UNL     1      41.920 -14.785   4.989  1.00  0.00     0.323 C 
HETATM    3  N   UNL     1      42.137 -13.624   5.752  1.00  0.00    -0.332 N 
HETATM    4  C   UNL     1      41.014 -12.689   5.834  1.00  0.00     0.160 C 
HETATM    5  C   UNL     1      41.108 -11.516   4.827  1.00  0.00     0.204 C 
HETATM    6  N   UNL     1      41.818 -10.347   5.477  1.00  0.00    -0.069 N 
HETATM    7  H   UNL     1      41.298 -10.047   6.314  1.00  0.00     0.277 HD
HETATM    8  H   UNL     1      41.750  -9.546   4.831  1.00  0.00     0.277 HD
HETATM    9  C   UNL     1      43.256 -10.560   5.821  1.00  0.00     0.239 C 
HETATM   10  C   UNL     1      43.818 -11.840   5.201  1.00  0.00     0.029 C 
HETATM   11  C   UNL     1      43.465 -13.084   6.047  1.00  0.00     0.134 C 
HETATM   12  C   UNL     1      41.864 -11.812   3.528  1.00  0.00     0.035 C 
HETATM   13  C   UNL     1      43.381 -11.976   3.733  1.00  0.00     0.010 C 
HETATM   14  O   UNL     1      40.882 -14.914   4.349  1.00  0.00    -0.247 OA
HETATM   15  H   UNL     1      43.482 -15.670   5.881  1.00  0.00     0.170 HD
ENDROOT
BRANCH   1  16
HETATM   16  C   UNL     1      43.165 -16.813   4.183  1.00  0.00     0.049 A 
HETATM   17  C   UNL     1      43.395 -18.105   4.768  1.00  0.00     0.021 A 
HETATM   18  C   UNL     1      43.629 -19.226   3.929  1.00  0.00     0.090 A 
HETATM   19  C   UNL     1      43.420 -18.359   6.164  1.00  0.00     0.017 A 
HETATM   20  N   UNL     1      43.859 -20.460   4.434  1.00  0.00    -0.259 NA
HETATM   21  C   UNL     1      43.625 -19.028   2.544  1.00  0.00     0.063 A 
HETATM   22  C   UNL     1      43.871 -20.648   5.766  1.00  0.00     0.117 A 
HETATM   23  C   UNL     1      43.660 -19.634   6.667  1.00  0.00     0.020 A 
HETATM   24 CL   UNL     1      43.901 -20.348   1.451  1.00  0.00    -0.082 Cl
HETATM   25  C   UNL     1      43.415 -17.774   1.977  1.00  0.00     0.028 A 
HETATM   26  C   UNL     1      43.196 -16.673   2.793  1.00  0.00     0.032 A 
ENDBRANCH   1  16
TORSDOF 1
ENDMDL
MODEL 5
REMARK VINA RESULT:      -7.5      1.657      2.501
REMARK  1 active torsions:
REMARK  status: ('A' for Active; 'I' for Inactive)
REMARK    1  A    between atoms: C_11  and  N_12 
REMARK       I    between atoms: N_12  and  C_13 
REMARK       I    between atoms: C_13  and  N_14 
ROOT
HETATM    1  N   UNL     1      42.699 -14.036   3.571  1.00  0.00    -0.308 N 
HETATM    2  C   UNL     1      41.497 -13.429   3.835  1.00  0.00     0.323 C 
HETATM    3  N   UNL     1      41.499 -12.036   3.652  1.00  0.00    -0.332 N 
HETATM    4  C   UNL     1      40.272 -11.334   4.031  1.00  0.00     0.160 C 
HETATM    5  C   UNL     1      39.326 -11.048   2.840  1.00  0.00     0.204 C 
HETATM    6  N   UNL     1      39.641  -9.685   2.260  1.00  0.00    -0.069 N 
HETATM    7  H   UNL     1      39.518  -8.963   2.983  1.00  0.00     0.277 HD
HETATM    8  H   UNL     1      38.916  -9.473   1.557  1.00  0.00     0.277 HD
HETATM    9  C   UNL     1      40.981  -9.538   1.617  1.00  0.00     0.239 C 
HETATM   10  C   UNL     1      41.685 -10.883   1.427  1.00  0.00     0.029 C 
HETATM   11  C   UNL     1      42.392 -11.342   2.722  1.00  0.00     0.134 C 
HETATM   12  C   UNL     1      39.402 -12.040   1.676  1.00  0.00     0.035 C 
HETATM   13  C   UNL     1      40.713 -11.937   0.875  1.00  0.00     0.010 C 
HETATM   14  O   UNL     1      40.468 -14.000   4.182  1.00  0.00    -0.247 OA
HETATM   15  H   UNL     1      43.499 -13.452   3.741  1.00  0.00     0.170 HD
ENDROOT
BRANCH   1  16
HETATM   16  C   UNL     1      42.962 -15.425   3.409  1.00  0.00     0.049 A 
HETATM   17  C   UNL     1      43.148 -16.252   4.568  1.00  0.00     0.021 A 
HETATM   18  C   UNL     1      43.434 -17.634   4.409  1.00  0.00     0.090 A 
HETATM   19  C   UNL     1      43.078 -15.784   5.907  1.00  0.00     0.017 A 
HETATM   20  N   UNL     1      43.625 -18.451   5.471  1.00  0.00    -0.259 NA
HETATM   21  C   UNL     1      43.525 -18.145   3.110  1.00  0.00     0.063 A 
HETATM   22  C   UNL     1      43.547 -17.956   6.720  1.00  0.00     0.117 A 
HETATM   23  C   UNL     1      43.279 -16.637   6.987  1.00  0.00     0.020 A 
HETATM   24 CL   UNL     1      43.870 -19.823   2.831  1.00  0.00    -0.082 Cl
HETATM   25  C   UNL     1      43.358 -17.341   1.985  1.00  0.00     0.028 A 
HETATM   26  C   UNL     1      43.087 -15.988   2.136  1.00  0.00     0.032 A 
ENDBRANCH   1  16
TORSDOF 1
ENDMDL
MODEL 6
REMARK VINA RESULT:      -7.5      1.939      2.436
REMARK  1 active torsions:
REMARK  status: ('A' for Active; 'I' for Inactive)
REMARK    1  A    between atoms: C_11  and  N_12 
REMARK       I    between atoms: N_12  and  C_13 
REMARK       I    between atoms: C_13  and  N_14 
ROOT
HETATM    1  N   UNL     1      40.849 -14.409   3.633  1.00  0.00    -0.308 N 
HETATM    2  C   UNL     1      41.060 -13.167   3.089  1.00  0.00     0.323 C 
HETATM    3  N   UNL     1      40.244 -12.155   3.625  1.00  0.00    -0.332 N 
HETATM    4  C   UNL     1      40.354 -10.838   2.995  1.00  0.00     0.160 C 
HETATM    5  C   UNL     1      41.299  -9.867   3.746  1.00  0.00     0.204 C 
HETATM    6  N   UNL     1      40.500  -9.057   4.746  1.00  0.00    -0.069 N 
HETATM    7  H   UNL     1      39.770  -8.522   4.255  1.00  0.00     0.277 HD
HETATM    8  H   UNL     1      41.130  -8.338   5.134  1.00  0.00     0.277 HD
HETATM    9  C   UNL     1      39.897  -9.821   5.879  1.00  0.00     0.239 C 
HETATM   10  C   UNL     1      40.429 -11.253   5.963  1.00  0.00     0.029 C 
HETATM   11  C   UNL     1      39.693 -12.191   4.980  1.00  0.00     0.134 C 
HETATM   12  C   UNL     1      42.438 -10.522   4.533  1.00  0.00     0.035 C 
HETATM   13  C   UNL     1      41.955 -11.282   5.781  1.00  0.00     0.010 C 
HETATM   14  O   UNL     1      41.887 -12.895   2.225  1.00  0.00    -0.247 OA
HETATM   15  H   UNL     1      39.909 -14.561   3.956  1.00  0.00     0.170 HD
ENDROOT
BRANCH   1  16
HETATM   16  C   UNL     1      41.662 -15.570   3.507  1.00  0.00     0.049 A 
HETATM   17  C   UNL     1      42.668 -15.843   4.495  1.00  0.00     0.021 A 
HETATM   18  C   UNL     1      43.497 -16.987   4.359  1.00  0.00     0.090 A 
HETATM   19  C   UNL     1      42.918 -15.029   5.631  1.00  0.00     0.017 A 
HETATM   20  N   UNL     1      44.464 -17.280   5.260  1.00  0.00    -0.259 NA
HETATM   21  C   UNL     1      43.300 -17.819   3.251  1.00  0.00     0.063 A 
HETATM   22  C   UNL     1      44.659 -16.476   6.320  1.00  0.00     0.117 A 
HETATM   23  C   UNL     1      43.916 -15.344   6.547  1.00  0.00     0.020 A 
HETATM   24 CL   UNL     1      44.272 -19.237   3.012  1.00  0.00    -0.082 Cl
HETATM   25  C   UNL     1      42.334 -17.547   2.285  1.00  0.00     0.028 A 
HETATM   26  C   UNL     1      41.527 -16.425   2.409  1.00  0.00     0.032 A 
ENDBRANCH   1  16
TORSDOF 1
ENDMDL
MODEL 7
REMARK VINA RESULT:      -7.4     14.386     16.044
REMARK  1 active torsions:
REMARK  status: ('A' for Active; 'I' for Inactive)
REMARK    1  A    between atoms: C_11  and  N_12 
REMARK       I    between atoms: N_12  and  C_13 
REMARK       I    between atoms: C_13  and  N_14 
ROOT
HETATM    1  N   UNL     1      46.995 -28.625   0.926  1.00  0.00    -0.308 N 
HETATM    2  C   UNL     1      45.867 -29.282   0.504  1.00  0.00     0.323 C 
HETATM    3  N   UNL     1      45.185 -28.645  -0.547  1.00  0.00    -0.332 N 
HETATM    4  C   UNL     1      43.915 -29.249  -0.951  1.00  0.00     0.160 C 
HETATM    5  C   UNL     1      44.035 -30.184  -2.180  1.00  0.00     0.204 C 
HETATM    6  N   UNL     1      43.784 -29.390  -3.445  1.00  0.00    -0.069 N 
HETATM    7  H   UNL     1      42.843 -28.975  -3.415  1.00  0.00     0.277 HD
HETATM    8  H   UNL     1      43.745 -30.061  -4.228  1.00  0.00     0.277 HD
HETATM    9  C   UNL     1      44.794 -28.338  -3.772  1.00  0.00     0.239 C 
HETATM   10  C   UNL     1      46.045 -28.443  -2.899  1.00  0.00     0.029 C 
HETATM   11  C   UNL     1      45.837 -27.770  -1.523  1.00  0.00     0.134 C 
HETATM   12  C   UNL     1      45.391 -30.872  -2.364  1.00  0.00     0.035 C 
HETATM   13  C   UNL     1      46.512 -29.903  -2.782  1.00  0.00     0.010 C 
HETATM   14  O   UNL     1      45.449 -30.346   0.950  1.00  0.00    -0.247 OA
HETATM   15  H   UNL     1      46.957 -27.628   0.809  1.00  0.00     0.170 HD
ENDROOT
BRANCH   1  16
HETATM   16  C   UNL     1      48.031 -29.116   1.769  1.00  0.00     0.049 A 
HETATM   17  C   UNL     1      49.105 -29.882   1.202  1.00  0.00     0.021 A 
HETATM   18  C   UNL     1      50.127 -30.394   2.044  1.00  0.00     0.090 A 
HETATM   19  C   UNL     1      49.229 -30.190  -0.178  1.00  0.00     0.017 A 
HETATM   20  N   UNL     1      51.154 -31.128   1.557  1.00  0.00    -0.259 NA
HETATM   21  C   UNL     1      50.048 -30.129   3.416  1.00  0.00     0.063 A 
HETATM   22  C   UNL     1      51.224 -31.391   0.239  1.00  0.00     0.117 A 
HETATM   23  C   UNL     1      50.290 -30.947  -0.663  1.00  0.00     0.020 A 
HETATM   24 CL   UNL     1      51.258 -30.718   4.512  1.00  0.00    -0.082 Cl
HETATM   25  C   UNL     1      49.000 -29.397   3.969  1.00  0.00     0.028 A 
HETATM   26  C   UNL     1      47.994 -28.903   3.150  1.00  0.00     0.032 A 
ENDBRANCH   1  16
TORSDOF 1
ENDMDL
MODEL 8
REMARK VINA RESULT:      -7.3      3.872      7.249
REMARK  1 active torsions:
REMARK  status: ('A' for Active; 'I' for Inactive)
REMARK    1  A    between atoms: C_11  and  N_12 
REMARK       I    between atoms: N_12  and  C_13 
REMARK       I    between atoms: C_13  and  N_14 
ROOT
HETATM    1  N   UNL     1      40.937 -12.500   1.860  1.00  0.00    -0.308 N 
HETATM    2  C   UNL     1      42.009 -12.999   2.557  1.00  0.00     0.323 C 
HETATM    3  N   UNL     1      41.663 -13.696   3.728  1.00  0.00    -0.332 N 
HETATM    4  C   UNL     1      42.778 -14.146   4.563  1.00  0.00     0.160 C 
HETATM    5  C   UNL     1      43.175 -15.623   4.326  1.00  0.00     0.204 C 
HETATM    6  N   UNL     1      42.412 -16.513   5.285  1.00  0.00    -0.069 N 
HETATM    7  H   UNL     1      42.630 -16.245   6.255  1.00  0.00     0.277 HD
HETATM    8  H   UNL     1      42.791 -17.467   5.189  1.00  0.00     0.277 HD
HETATM    9  C   UNL     1      40.931 -16.568   5.093  1.00  0.00     0.239 C 
HETATM   10  C   UNL     1      40.491 -15.918   3.780  1.00  0.00     0.029 C 
HETATM   11  C   UNL     1      40.384 -14.382   3.915  1.00  0.00     0.134 C 
HETATM   12  C   UNL     1      42.902 -16.169   2.921  1.00  0.00     0.035 C 
HETATM   13  C   UNL     1      41.403 -16.351   2.621  1.00  0.00     0.010 C 
HETATM   14  O   UNL     1      43.187 -12.898   2.229  1.00  0.00    -0.247 OA
HETATM   15  H   UNL     1      40.146 -12.269   2.434  1.00  0.00     0.170 HD
ENDROOT
BRANCH   1  16
HETATM   16  C   UNL     1      40.920 -11.986   0.533  1.00  0.00     0.049 A 
HETATM   17  C   UNL     1      40.426 -12.804  -0.540  1.00  0.00     0.021 A 
HETATM   18  C   UNL     1      40.430 -12.301  -1.867  1.00  0.00     0.090 A 
HETATM   19  C   UNL     1      39.929 -14.123  -0.378  1.00  0.00     0.017 A 
HETATM   20  N   UNL     1      39.983 -13.038  -2.911  1.00  0.00    -0.259 NA
HETATM   21  C   UNL     1      40.920 -11.009  -2.085  1.00  0.00     0.063 A 
HETATM   22  C   UNL     1      39.520 -14.284  -2.703  1.00  0.00     0.117 A 
HETATM   23  C   UNL     1      39.475 -14.868  -1.461  1.00  0.00     0.020 A 
HETATM   24 CL   UNL     1      40.957 -10.322  -3.678  1.00  0.00    -0.082 Cl
HETATM   25  C   UNL     1      41.410 -10.220  -1.047  1.00  0.00     0.028 A 
HETATM   26  C   UNL     1      41.418 -10.710   0.251  1.00  0.00     0.032 A 
ENDBRANCH   1  16
TORSDOF 1
ENDMDL
MODEL 9
REMARK VINA RESULT:      -7.2      3.403      7.087
REMARK  1 active torsions:
REMARK  status: ('A' for Active; 'I' for Inactive)
REMARK    1  A    between atoms: C_11  and  N_12 
REMARK       I    between atoms: N_12  and  C_13 
REMARK       I    between atoms: C_13  and  N_14 
ROOT
HETATM    1  N   UNL     1      41.540 -14.470   2.805  1.00  0.00    -0.308 N 
HETATM    2  C   UNL     1      41.069 -14.720   4.070  1.00  0.00     0.323 C 
HETATM    3  N   UNL     1      41.561 -15.905   4.646  1.00  0.00    -0.332 N 
HETATM    4  C   UNL     1      40.998 -16.270   5.946  1.00  0.00     0.160 C 
HETATM    5  C   UNL     1      41.877 -15.841   7.147  1.00  0.00     0.204 C 
HETATM    6  N   UNL     1      42.823 -16.967   7.509  1.00  0.00    -0.069 N 
HETATM    7  H   UNL     1      42.284 -17.808   7.756  1.00  0.00     0.277 HD
HETATM    8  H   UNL     1      43.300 -16.700   8.383  1.00  0.00     0.277 HD
HETATM    9  C   UNL     1      43.859 -17.309   6.488  1.00  0.00     0.239 C 
HETATM   10  C   UNL     1      43.939 -16.268   5.370  1.00  0.00     0.029 C 
HETATM   11  C   UNL     1      42.851 -16.501   4.297  1.00  0.00     0.134 C 
HETATM   12  C   UNL     1      42.748 -14.600   6.924  1.00  0.00     0.035 C 
HETATM   13  C   UNL     1      43.911 -14.842   5.945  1.00  0.00     0.010 C 
HETATM   14  O   UNL     1      40.304 -14.002   4.704  1.00  0.00    -0.247 OA
HETATM   15  H   UNL     1      41.760 -15.297   2.279  1.00  0.00     0.170 HD
ENDROOT
BRANCH   1  16
HETATM   16  C   UNL     1      41.450 -13.260   2.061  1.00  0.00     0.049 A 
HETATM   17  C   UNL     1      40.806 -13.262   0.777  1.00  0.00     0.021 A 
HETATM   18  C   UNL     1      40.736 -12.062   0.022  1.00  0.00     0.090 A 
HETATM   19  C   UNL     1      40.224 -14.408   0.174  1.00  0.00     0.017 A 
HETATM   20  N   UNL     1      40.147 -12.018  -1.196  1.00  0.00    -0.259 NA
HETATM   21  C   UNL     1      41.304 -10.905   0.566  1.00  0.00     0.063 A 
HETATM   22  C   UNL     1      39.609 -13.133  -1.722  1.00  0.00     0.117 A 
HETATM   23  C   UNL     1      39.624 -14.346  -1.079  1.00  0.00     0.020 A 
HETATM   24 CL   UNL     1      41.258  -9.397  -0.294  1.00  0.00    -0.082 Cl
HETATM   25  C   UNL     1      41.939 -10.905   1.805  1.00  0.00     0.028 A 
HETATM   26  C   UNL     1      42.019 -12.078   2.542  1.00  0.00     0.032 A 
ENDBRANCH   1  16
TORSDOF 1
ENDMDL
MODEL 10
REMARK VINA RESULT:      -7.1      4.348      6.722
REMARK  1 active torsions:
REMARK  status: ('A' for Active; 'I' for Inactive)
REMARK    1  A    between atoms: C_11  and  N_12 
REMARK       I    between atoms: N_12  and  C_13 
REMARK       I    between atoms: C_13  and  N_14 
ROOT
HETATM    1  N   UNL     1      41.693 -11.756   4.582  1.00  0.00    -0.308 N 
HETATM    2  C   UNL     1      40.903 -12.869   4.434  1.00  0.00     0.323 C 
HETATM    3  N   UNL     1      41.119 -13.577   3.239  1.00  0.00    -0.332 N 
HETATM    4  C   UNL     1      40.220 -14.703   2.987  1.00  0.00     0.160 C 
HETATM    5  C   UNL     1      40.814 -16.075   3.392  1.00  0.00     0.204 C 
HETATM    6  N   UNL     1      41.526 -16.688   2.204  1.00  0.00    -0.069 N 
HETATM    7  H   UNL     1      40.863 -16.812   1.427  1.00  0.00     0.277 HD
HETATM    8  H   UNL     1      41.797 -17.647   2.468  1.00  0.00     0.277 HD
HETATM    9  C   UNL     1      42.743 -15.966   1.724  1.00  0.00     0.239 C 
HETATM   10  C   UNL     1      43.198 -14.880   2.700  1.00  0.00     0.029 C 
HETATM   11  C   UNL     1      42.390 -13.575   2.514  1.00  0.00     0.134 C 
HETATM   12  C   UNL     1      41.830 -16.048   4.538  1.00  0.00     0.035 C 
HETATM   13  C   UNL     1      43.168 -15.397   4.147  1.00  0.00     0.010 C 
HETATM   14  O   UNL     1      40.079 -13.275   5.247  1.00  0.00    -0.247 OA
HETATM   15  H   UNL     1      41.954 -11.321   3.715  1.00  0.00     0.170 HD
ENDROOT
BRANCH   1  16
HETATM   16  C   UNL     1      41.908 -10.985   5.759  1.00  0.00     0.049 A 
HETATM   17  C   UNL     1      43.215 -10.946   6.353  1.00  0.00     0.021 A 
HETATM   18  C   UNL     1      43.427 -10.197   7.540  1.00  0.00     0.090 A 
HETATM   19  C   UNL     1      44.350 -11.626   5.839  1.00  0.00     0.017 A 
HETATM   20  N   UNL     1      44.639 -10.137   8.140  1.00  0.00    -0.259 NA
HETATM   21  C   UNL     1      42.339  -9.515   8.095  1.00  0.00     0.063 A 
HETATM   22  C   UNL     1      45.682 -10.801   7.612  1.00  0.00     0.117 A 
HETATM   23  C   UNL     1      45.588 -11.556   6.469  1.00  0.00     0.020 A 
HETATM   24 CL   UNL     1      42.515  -8.576   9.544  1.00  0.00    -0.082 Cl
HETATM   25  C   UNL     1      41.068  -9.563   7.527  1.00  0.00     0.028 A 
HETATM   26  C   UNL     1      40.854 -10.301   6.371  1.00  0.00     0.032 A 
ENDBRANCH   1  16
TORSDOF 1
ENDMDL
