MODEL 1
REMARK VINA RESULT:      -7.5      0.000      0.000
REMARK  9 active torsions:
REMARK  status: ('A' for Active; 'I' for Inactive)
REMARK    1  A    between atoms: O_2  and  C_3 
REMARK    2  A    between atoms: C_3  and  C_4 
REMARK    3  A    between atoms: C_4  and  S_5 
REMARK    4  A    between atoms: S_5  and  C_6 
REMARK    5  A    between atoms: C_7  and  C_8 
REMARK       I    between atoms: C_8  and  N_9 
REMARK    6  A    between atoms: N_9  and  C_10 
REMARK    7  A    between atoms: C_11  and  C_12 
REMARK       I    between atoms: C_12  and  N_13 
REMARK    8  A    between atoms: N_13  and  C_14 
REMARK    9  A    between atoms: C_14  and  C_15 
ROOT
HETATM    1  C   UNL     1      41.599 -14.548   1.312  1.00  0.00     0.050 A 
HETATM    2  C   UNL     1      41.799 -13.189   1.608  1.00  0.00     0.058 A 
HETATM    3  C   UNL     1      40.999 -12.204   1.011  1.00  0.00     0.019 A 
HETATM    4  C   UNL     1      39.982 -12.570   0.130  1.00  0.00     0.001 A 
HETATM    5  C   UNL     1      39.748 -13.918  -0.135  1.00  0.00     0.002 A 
HETATM    6  C   UNL     1      40.543 -14.902   0.461  1.00  0.00     0.030 A 
ENDROOT
BRANCH   1   7
HETATM    7  N   UNL     1      42.372 -15.602   1.842  1.00  0.00    -0.322 N 
HETATM    8  C   UNL     1      41.960 -16.420   2.876  1.00  0.00     0.257 C 
HETATM    9  O   UNL     1      41.026 -16.209   3.638  1.00  0.00    -0.267 OA
HETATM   10  H   UNL     1      43.355 -15.638   1.600  1.00  0.00     0.169 HD
BRANCH   8  11
HETATM   11  C   UNL     1      42.769 -17.646   3.028  1.00  0.00     0.049 A 
HETATM   12  C   UNL     1      43.661 -17.846   4.091  1.00  0.00     0.016 A 
HETATM   13  C   UNL     1      44.382 -19.049   4.135  1.00  0.00     0.019 A 
HETATM   14  C   UNL     1      44.200 -20.033   3.157  1.00  0.00     0.001 A 
HETATM   15  C   UNL     1      43.301 -19.827   2.114  1.00  0.00     0.001 A 
HETATM   16  C   UNL     1      42.583 -18.635   2.047  1.00  0.00     0.018 A 
BRANCH  12  17
HETATM   17  S   UNL     1      44.038 -16.634   5.349  1.00  0.00    -0.127 SA
BRANCH  17  18
HETATM   18  C   UNL     1      42.866 -17.137   6.666  1.00  0.00     0.106 C 
BRANCH  18  19
HETATM   19  C   UNL     1      42.138 -15.937   7.282  1.00  0.00     0.177 C 
BRANCH  19  20
HETATM   20  O   UNL     1      40.732 -15.884   7.037  1.00  0.00    -0.395 OA
HETATM   21  C   UNL     1      40.290 -14.653   6.483  1.00  0.00     0.201 C 
ENDBRANCH  19  20
ENDBRANCH  18  19
ENDBRANCH  17  18
ENDBRANCH  12  17
ENDBRANCH   8  11
ENDBRANCH   1   7
BRANCH   2  22
HETATM   22  C   UNL     1      42.667 -12.738   2.719  1.00  0.00     0.254 C 
HETATM   23  N   UNL     1      42.075 -11.859   3.602  1.00  0.00    -0.354 N 
HETATM   24  H   UNL     1      41.374 -11.259   3.175  1.00  0.00     0.162 HD
HETATM   25  O   UNL     1      43.815 -13.158   2.810  1.00  0.00    -0.268 OA
BRANCH  23  26
HETATM   26  C   UNL     1      42.902 -11.204   4.600  1.00  0.00     0.155 C 
BRANCH  26  27
HETATM   27  C   UNL     1      42.734 -11.846   5.984  1.00  0.00     0.139 C 
HETATM   28  O   UNL     1      42.745 -10.812   6.992  1.00  0.00    -0.384 OA
HETATM   29  C   UNL     1      44.018 -10.824   7.654  1.00  0.00     0.168 C 
HETATM   30  C   UNL     1      44.896 -11.828   6.937  1.00  0.00     0.029 C 
HETATM   31  C   UNL     1      43.884 -12.774   6.341  1.00  0.00     0.035 C 
ENDBRANCH  26  27
ENDBRANCH  23  26
ENDBRANCH   2  22
TORSDOF 9
ENDMDL
MODEL 2
REMARK VINA RESULT:      -7.5      2.482      5.293
REMARK  9 active torsions:
REMARK  status: ('A' for Active; 'I' for Inactive)
REMARK    1  A    between atoms: O_2  and  C_3 
REMARK    2  A    between atoms: C_3  and  C_4 
REMARK    3  A    between atoms: C_4  and  S_5 
REMARK    4  A    between atoms: S_5  and  C_6 
REMARK    5  A    between atoms: C_7  and  C_8 
REMARK       I    between atoms: C_8  and  N_9 
REMARK    6  A    between atoms: N_9  and  C_10 
REMARK    7  A    between atoms: C_11  and  C_12 
REMARK       I    between atoms: C_12  and  N_13 
REMARK    8  A    between atoms: N_13  and  C_14 
REMARK    9  A    between atoms: C_14  and  C_15 
ROOT
HETATM    1  C   UNL     1      40.836 -13.577   4.067  1.00  0.00     0.050 A 
HETATM    2  C   UNL     1      40.185 -13.111   2.913  1.00  0.00     0.058 A 
HETATM    3  C   UNL     1      39.298 -12.025   2.982  1.00  0.00     0.019 A 
HETATM    4  C   UNL     1      39.071 -11.387   4.200  1.00  0.00     0.001 A 
HETATM    5  C   UNL     1      39.746 -11.814   5.342  1.00  0.00     0.002 A 
HETATM    6  C   UNL     1      40.632 -12.894   5.275  1.00  0.00     0.030 A 
ENDROOT
BRANCH   1   7
HETATM    7  N   UNL     1      41.719 -14.676   4.097  1.00  0.00    -0.322 N 
HETATM    8  C   UNL     1      41.326 -15.980   4.327  1.00  0.00     0.257 C 
HETATM    9  O   UNL     1      40.250 -16.341   4.785  1.00  0.00    -0.267 OA
HETATM   10  H   UNL     1      42.713 -14.484   4.157  1.00  0.00     0.169 HD
BRANCH   8  11
HETATM   11  C   UNL     1      42.349 -16.984   3.975  1.00  0.00     0.049 A 
HETATM   12  C   UNL     1      43.170 -17.605   4.927  1.00  0.00     0.016 A 
HETATM   13  C   UNL     1      44.112 -18.544   4.480  1.00  0.00     0.019 A 
HETATM   14  C   UNL     1      44.215 -18.870   3.123  1.00  0.00     0.001 A 
HETATM   15  C   UNL     1      43.383 -18.256   2.189  1.00  0.00     0.001 A 
HETATM   16  C   UNL     1      42.449 -17.314   2.613  1.00  0.00     0.018 A 
BRANCH  12  17
HETATM   17  S   UNL     1      43.189 -17.211   6.670  1.00  0.00    -0.127 SA
BRANCH  17  18
HETATM   18  C   UNL     1      44.307 -15.757   6.677  1.00  0.00     0.106 C 
BRANCH  18  19
HETATM   19  C   UNL     1      43.570 -14.463   7.038  1.00  0.00     0.177 C 
BRANCH  19  20
HETATM   20  O   UNL     1      43.839 -13.350   6.185  1.00  0.00    -0.395 OA
HETATM   21  C   UNL     1      44.390 -12.228   6.859  1.00  0.00     0.201 C 
ENDBRANCH  19  20
ENDBRANCH  18  19
ENDBRANCH  17  18
ENDBRANCH  12  17
ENDBRANCH   8  11
ENDBRANCH   1   7
BRANCH   2  22
HETATM   22  C   UNL     1      40.566 -13.553   1.553  1.00  0.00     0.254 C 
HETATM   23  N   UNL     1      39.509 -13.842   0.714  1.00  0.00    -0.354 N 
HETATM   24  H   UNL     1      38.689 -14.199   1.198  1.00  0.00     0.162 HD
HETATM   25  O   UNL     1      41.749 -13.625   1.241  1.00  0.00    -0.268 OA
BRANCH  23  26
HETATM   26  C   UNL     1      39.779 -14.476  -0.563  1.00  0.00     0.155 C 
BRANCH  26  27
HETATM   27  C   UNL     1      39.751 -13.462  -1.715  1.00  0.00     0.139 C 
HETATM   28  O   UNL     1      38.825 -12.402  -1.393  1.00  0.00    -0.384 OA
HETATM   29  C   UNL     1      37.620 -12.594  -2.149  1.00  0.00     0.168 C 
HETATM   30  C   UNL     1      37.747 -13.913  -2.883  1.00  0.00     0.029 C 
HETATM   31  C   UNL     1      39.241 -14.067  -3.014  1.00  0.00     0.035 C 
ENDBRANCH  26  27
ENDBRANCH  23  26
ENDBRANCH   2  22
TORSDOF 9
ENDMDL
MODEL 3
REMARK VINA RESULT:      -7.4      2.081      5.155
REMARK  9 active torsions:
REMARK  status: ('A' for Active; 'I' for Inactive)
REMARK    1  A    between atoms: O_2  and  C_3 
REMARK    2  A    between atoms: C_3  and  C_4 
REMARK    3  A    between atoms: C_4  and  S_5 
REMARK    4  A    between atoms: S_5  and  C_6 
REMARK    5  A    between atoms: C_7  and  C_8 
REMARK       I    between atoms: C_8  and  N_9 
REMARK    6  A    between atoms: N_9  and  C_10 
REMARK    7  A    between atoms: C_11  and  C_12 
REMARK       I    between atoms: C_12  and  N_13 
REMARK    8  A    between atoms: N_13  and  C_14 
REMARK    9  A    between atoms: C_14  and  C_15 
ROOT
HETATM    1  C   UNL     1      42.544 -16.867   3.353  1.00  0.00     0.050 A 
HETATM    2  C   UNL     1      42.855 -16.955   4.721  1.00  0.00     0.058 A 
HETATM    3  C   UNL     1      43.707 -17.964   5.196  1.00  0.00     0.019 A 
HETATM    4  C   UNL     1      44.268 -18.878   4.307  1.00  0.00     0.001 A 
HETATM    5  C   UNL     1      44.001 -18.772   2.943  1.00  0.00     0.002 A 
HETATM    6  C   UNL     1      43.154 -17.766   2.467  1.00  0.00     0.030 A 
ENDROOT
BRANCH   1   7
HETATM    7  N   UNL     1      41.677 -15.906   2.792  1.00  0.00    -0.322 N 
HETATM    8  C   UNL     1      42.092 -14.685   2.298  1.00  0.00     0.257 C 
HETATM    9  O   UNL     1      43.176 -14.153   2.498  1.00  0.00    -0.267 OA
HETATM   10  H   UNL     1      40.682 -16.021   2.941  1.00  0.00     0.169 HD
BRANCH   8  11
HETATM   11  C   UNL     1      41.082 -14.004   1.462  1.00  0.00     0.049 A 
HETATM   12  C   UNL     1      40.494 -12.782   1.818  1.00  0.00     0.016 A 
HETATM   13  C   UNL     1      39.544 -12.226   0.950  1.00  0.00     0.019 A 
HETATM   14  C   UNL     1      39.206 -12.862  -0.250  1.00  0.00     0.001 A 
HETATM   15  C   UNL     1      39.808 -14.068  -0.598  1.00  0.00     0.001 A 
HETATM   16  C   UNL     1      40.747 -14.641   0.256  1.00  0.00     0.018 A 
BRANCH  12  17
HETATM   17  S   UNL     1      40.782 -11.921   3.358  1.00  0.00    -0.127 SA
BRANCH  17  18
HETATM   18  C   UNL     1      39.535 -12.727   4.434  1.00  0.00     0.106 C 
BRANCH  18  19
HETATM   19  C   UNL     1      39.922 -12.662   5.916  1.00  0.00     0.177 C 
BRANCH  19  20
HETATM   20  O   UNL     1      39.018 -11.937   6.751  1.00  0.00    -0.395 OA
HETATM   21  C   UNL     1      38.710 -10.636   6.272  1.00  0.00     0.201 C 
ENDBRANCH  19  20
ENDBRANCH  18  19
ENDBRANCH  17  18
ENDBRANCH  12  17
ENDBRANCH   8  11
ENDBRANCH   1   7
BRANCH   2  22
HETATM   22  C   UNL     1      42.520 -15.881   5.682  1.00  0.00     0.254 C 
HETATM   23  N   UNL     1      43.412 -14.829   5.717  1.00  0.00    -0.354 N 
HETATM   24  H   UNL     1      44.370 -15.098   5.506  1.00  0.00     0.162 HD
HETATM   25  O   UNL     1      41.503 -15.961   6.361  1.00  0.00    -0.268 OA
BRANCH  23  26
HETATM   26  C   UNL     1      43.283 -13.833   6.765  1.00  0.00     0.155 C 
BRANCH  26  27
HETATM   27  C   UNL     1      44.330 -12.720   6.620  1.00  0.00     0.139 C 
HETATM   28  O   UNL     1      44.379 -11.952   7.843  1.00  0.00    -0.384 OA
HETATM   29  C   UNL     1      43.702 -10.705   7.634  1.00  0.00     0.168 C 
HETATM   30  C   UNL     1      43.084 -10.747   6.251  1.00  0.00     0.029 C 
HETATM   31  C   UNL     1      43.976 -11.724   5.528  1.00  0.00     0.035 C 
ENDBRANCH  26  27
ENDBRANCH  23  26
ENDBRANCH   2  22
TORSDOF 9
ENDMDL
MODEL 4
REMARK VINA RESULT:      -7.3      2.533      6.282
REMARK  9 active torsions:
REMARK  status: ('A' for Active; 'I' for Inactive)
REMARK    1  A    between atoms: O_2  and  C_3 
REMARK    2  A    between atoms: C_3  and  C_4 
REMARK    3  A    between atoms: C_4  and  S_5 
REMARK    4  A    between atoms: S_5  and  C_6 
REMARK    5  A    between atoms: C_7  and  C_8 
REMARK       I    between atoms: C_8  and  N_9 
REMARK    6  A    between atoms: N_9  and  C_10 
REMARK    7  A    between atoms: C_11  and  C_12 
REMARK       I    between atoms: C_12  and  N_13 
REMARK    8  A    between atoms: N_13  and  C_14 
REMARK    9  A    between atoms: C_14  and  C_15 
ROOT
HETATM    1  C   UNL     1      42.856 -16.674   3.633  1.00  0.00     0.050 A 
HETATM    2  C   UNL     1      43.059 -16.916   5.002  1.00  0.00     0.058 A 
HETATM    3  C   UNL     1      43.764 -18.052   5.430  1.00  0.00     0.019 A 
HETATM    4  C   UNL     1      44.285 -18.943   4.493  1.00  0.00     0.001 A 
HETATM    5  C   UNL     1      44.127 -18.687   3.132  1.00  0.00     0.002 A 
HETATM    6  C   UNL     1      43.427 -17.555   2.704  1.00  0.00     0.030 A 
ENDROOT
BRANCH   1   7
HETATM    7  N   UNL     1      42.139 -15.576   3.114  1.00  0.00    -0.322 N 
HETATM    8  C   UNL     1      40.770 -15.426   3.220  1.00  0.00     0.257 C 
HETATM    9  O   UNL     1      39.968 -16.299   3.525  1.00  0.00    -0.267 OA
HETATM   10  H   UNL     1      42.612 -14.968   2.456  1.00  0.00     0.169 HD
BRANCH   8  11
HETATM   11  C   UNL     1      40.292 -14.062   2.916  1.00  0.00     0.049 A 
HETATM   12  C   UNL     1      39.941 -13.647   1.623  1.00  0.00     0.016 A 
HETATM   13  C   UNL     1      39.502 -12.326   1.449  1.00  0.00     0.019 A 
HETATM   14  C   UNL     1      39.395 -11.452   2.537  1.00  0.00     0.001 A 
HETATM   15  C   UNL     1      39.734 -11.883   3.817  1.00  0.00     0.001 A 
HETATM   16  C   UNL     1      40.182 -13.187   4.009  1.00  0.00     0.018 A 
BRANCH  12  17
HETATM   17  S   UNL     1      40.113 -14.641   0.149  1.00  0.00    -0.127 SA
BRANCH  17  18
HETATM   18  C   UNL     1      39.423 -13.501  -1.111  1.00  0.00     0.106 C 
BRANCH  18  19
HETATM   19  C   UNL     1      39.520 -14.078  -2.527  1.00  0.00     0.177 C 
BRANCH  19  20
HETATM   20  O   UNL     1      40.638 -13.627  -3.295  1.00  0.00    -0.395 OA
HETATM   21  C   UNL     1      41.075 -12.318  -2.959  1.00  0.00     0.201 C 
ENDBRANCH  19  20
ENDBRANCH  18  19
ENDBRANCH  17  18
ENDBRANCH  12  17
ENDBRANCH   8  11
ENDBRANCH   1   7
BRANCH   2  22
HETATM   22  C   UNL     1      42.775 -15.899   6.039  1.00  0.00     0.254 C 
HETATM   23  N   UNL     1      43.545 -14.757   5.964  1.00  0.00    -0.354 N 
HETATM   24  H   UNL     1      44.478 -14.916   5.593  1.00  0.00     0.162 HD
HETATM   25  O   UNL     1      41.897 -16.100   6.871  1.00  0.00    -0.268 OA
BRANCH  23  26
HETATM   26  C   UNL     1      43.485 -13.797   7.051  1.00  0.00     0.155 C 
BRANCH  26  27
HETATM   27  C   UNL     1      44.373 -12.575   6.777  1.00  0.00     0.139 C 
HETATM   28  O   UNL     1      44.367 -11.714   7.936  1.00  0.00    -0.384 OA
HETATM   29  C   UNL     1      43.526 -10.582   7.668  1.00  0.00     0.168 C 
HETATM   30  C   UNL     1      42.868 -10.810   6.323  1.00  0.00     0.029 C 
HETATM   31  C   UNL     1      43.853 -11.720   5.633  1.00  0.00     0.035 C 
ENDBRANCH  26  27
ENDBRANCH  23  26
ENDBRANCH   2  22
TORSDOF 9
ENDMDL
MODEL 5
REMARK VINA RESULT:      -7.3      2.059      6.838
REMARK  9 active torsions:
REMARK  status: ('A' for Active; 'I' for Inactive)
REMARK    1  A    between atoms: O_2  and  C_3 
REMARK    2  A    between atoms: C_3  and  C_4 
REMARK    3  A    between atoms: C_4  and  S_5 
REMARK    4  A    between atoms: S_5  and  C_6 
REMARK    5  A    between atoms: C_7  and  C_8 
REMARK       I    between atoms: C_8  and  N_9 
REMARK    6  A    between atoms: N_9  and  C_10 
REMARK    7  A    between atoms: C_11  and  C_12 
REMARK       I    between atoms: C_12  and  N_13 
REMARK    8  A    between atoms: N_13  and  C_14 
REMARK    9  A    between atoms: C_14  and  C_15 
ROOT
HETATM    1  C   UNL     1      43.029 -16.055   3.848  1.00  0.00     0.050 A 
HETATM    2  C   UNL     1      42.218 -16.522   2.800  1.00  0.00     0.058 A 
HETATM    3  C   UNL     1      42.395 -17.814   2.282  1.00  0.00     0.019 A 
HETATM    4  C   UNL     1      43.369 -18.654   2.820  1.00  0.00     0.001 A 
HETATM    5  C   UNL     1      44.148 -18.215   3.889  1.00  0.00     0.002 A 
HETATM    6  C   UNL     1      43.971 -16.929   4.408  1.00  0.00     0.030 A 
ENDROOT
BRANCH   1   7
HETATM    7  N   UNL     1      42.941 -14.765   4.411  1.00  0.00    -0.322 N 
HETATM    8  C   UNL     1      42.439 -14.503   5.671  1.00  0.00     0.257 C 
HETATM    9  O   UNL     1      41.778 -15.268   6.361  1.00  0.00    -0.267 OA
HETATM   10  H   UNL     1      43.057 -13.969   3.794  1.00  0.00     0.169 HD
BRANCH   8  11
HETATM   11  C   UNL     1      42.759 -13.151   6.173  1.00  0.00     0.049 A 
HETATM   12  C   UNL     1      41.822 -12.109   6.212  1.00  0.00     0.016 A 
HETATM   13  C   UNL     1      42.236 -10.863   6.706  1.00  0.00     0.019 A 
HETATM   14  C   UNL     1      43.542 -10.670   7.169  1.00  0.00     0.001 A 
HETATM   15  C   UNL     1      44.459 -11.718   7.139  1.00  0.00     0.001 A 
HETATM   16  C   UNL     1      44.070 -12.960   6.642  1.00  0.00     0.018 A 
BRANCH  12  17
HETATM   17  S   UNL     1      40.156 -12.210   5.573  1.00  0.00    -0.127 SA
BRANCH  17  18
HETATM   18  C   UNL     1      40.289 -11.121   4.103  1.00  0.00     0.106 C 
BRANCH  18  19
HETATM   19  C   UNL     1      40.564 -11.913   2.821  1.00  0.00     0.177 C 
BRANCH  19  20
HETATM   20  O   UNL     1      41.895 -12.413   2.685  1.00  0.00    -0.395 OA
HETATM   21  C   UNL     1      42.901 -11.429   2.881  1.00  0.00     0.201 C 
ENDBRANCH  19  20
ENDBRANCH  18  19
ENDBRANCH  17  18
ENDBRANCH  12  17
ENDBRANCH   8  11
ENDBRANCH   1   7
BRANCH   2  22
HETATM   22  C   UNL     1      41.003 -15.804   2.356  1.00  0.00     0.254 C 
HETATM   23  N   UNL     1      40.958 -15.508   1.010  1.00  0.00    -0.354 N 
HETATM   24  H   UNL     1      41.873 -15.346   0.596  1.00  0.00     0.162 HD
HETATM   25  O   UNL     1      40.122 -15.531   3.164  1.00  0.00    -0.268 OA
BRANCH  23  26
HETATM   26  C   UNL     1      39.911 -14.631   0.518  1.00  0.00     0.155 C 
BRANCH  26  27
HETATM   27  C   UNL     1      40.326 -13.927  -0.782  1.00  0.00     0.139 C 
HETATM   28  O   UNL     1      40.050 -12.514  -0.666  1.00  0.00    -0.384 OA
HETATM   29  C   UNL     1      38.871 -12.209  -1.424  1.00  0.00     0.168 C 
HETATM   30  C   UNL     1      38.303 -13.518  -1.933  1.00  0.00     0.029 C 
HETATM   31  C   UNL     1      39.525 -14.400  -1.984  1.00  0.00     0.035 C 
ENDBRANCH  26  27
ENDBRANCH  23  26
ENDBRANCH   2  22
TORSDOF 9
ENDMDL
MODEL 6
REMARK VINA RESULT:      -7.2      2.379      6.763
REMARK  9 active torsions:
REMARK  status: ('A' for Active; 'I' for Inactive)
REMARK    1  A    between atoms: O_2  and  C_3 
REMARK    2  A    between atoms: C_3  and  C_4 
REMARK    3  A    between atoms: C_4  and  S_5 
REMARK    4  A    between atoms: S_5  and  C_6 
REMARK    5  A    between atoms: C_7  and  C_8 
REMARK       I    between atoms: C_8  and  N_9 
REMARK    6  A    between atoms: N_9  and  C_10 
REMARK    7  A    between atoms: C_11  and  C_12 
REMARK       I    between atoms: C_12  and  N_13 
REMARK    8  A    between atoms: N_13  and  C_14 
REMARK    9  A    between atoms: C_14  and  C_15 
ROOT
HETATM    1  C   UNL     1      43.086 -16.073   3.781  1.00  0.00     0.050 A 
HETATM    2  C   UNL     1      42.252 -16.536   2.749  1.00  0.00     0.058 A 
HETATM    3  C   UNL     1      42.382 -17.845   2.260  1.00  0.00     0.019 A 
HETATM    4  C   UNL     1      43.332 -18.704   2.811  1.00  0.00     0.001 A 
HETATM    5  C   UNL     1      44.132 -18.267   3.864  1.00  0.00     0.002 A 
HETATM    6  C   UNL     1      44.003 -16.964   4.354  1.00  0.00     0.030 A 
ENDROOT
BRANCH   1   7
HETATM    7  N   UNL     1      43.046 -14.767   4.314  1.00  0.00    -0.322 N 
HETATM    8  C   UNL     1      42.395 -14.429   5.484  1.00  0.00     0.257 C 
HETATM    9  O   UNL     1      41.569 -15.111   6.076  1.00  0.00    -0.267 OA
HETATM   10  H   UNL     1      43.328 -14.001   3.714  1.00  0.00     0.169 HD
BRANCH   8  11
HETATM   11  C   UNL     1      42.771 -13.104   6.016  1.00  0.00     0.049 A 
HETATM   12  C   UNL     1      42.071 -11.929   5.706  1.00  0.00     0.016 A 
HETATM   13  C   UNL     1      42.518 -10.723   6.265  1.00  0.00     0.019 A 
HETATM   14  C   UNL     1      43.620 -10.694   7.127  1.00  0.00     0.001 A 
HETATM   15  C   UNL     1      44.298 -11.870   7.439  1.00  0.00     0.001 A 
HETATM   16  C   UNL     1      43.875 -13.076   6.885  1.00  0.00     0.018 A 
BRANCH  12  17
HETATM   17  S   UNL     1      40.706 -11.828   4.556  1.00  0.00    -0.127 SA
BRANCH  17  18
HETATM   18  C   UNL     1      39.303 -12.252   5.659  1.00  0.00     0.106 C 
BRANCH  18  19
HETATM   19  C   UNL     1      38.605 -11.005   6.211  1.00  0.00     0.177 C 
BRANCH  19  20
HETATM   20  O   UNL     1      38.622 -10.876   7.634  1.00  0.00    -0.395 OA
HETATM   21  C   UNL     1      39.551  -9.913   8.112  1.00  0.00     0.201 C 
ENDBRANCH  19  20
ENDBRANCH  18  19
ENDBRANCH  17  18
ENDBRANCH  12  17
ENDBRANCH   8  11
ENDBRANCH   1   7
BRANCH   2  22
HETATM   22  C   UNL     1      41.058 -15.789   2.297  1.00  0.00     0.254 C 
HETATM   23  N   UNL     1      41.101 -15.354   0.988  1.00  0.00    -0.354 N 
HETATM   24  H   UNL     1      42.039 -15.141   0.659  1.00  0.00     0.162 HD
HETATM   25  O   UNL     1      40.119 -15.610   3.065  1.00  0.00    -0.268 OA
BRANCH  23  26
HETATM   26  C   UNL     1      40.075 -14.441   0.517  1.00  0.00     0.155 C 
BRANCH  26  27
HETATM   27  C   UNL     1      40.249 -14.115  -0.973  1.00  0.00     0.139 C 
HETATM   28  O   UNL     1      40.643 -12.733  -1.113  1.00  0.00    -0.384 OA
HETATM   29  C   UNL     1      39.510 -11.971  -1.556  1.00  0.00     0.168 C 
HETATM   30  C   UNL     1      38.312 -12.899  -1.567  1.00  0.00     0.029 C 
HETATM   31  C   UNL     1      38.954 -14.251  -1.756  1.00  0.00     0.035 C 
ENDBRANCH  26  27
ENDBRANCH  23  26
ENDBRANCH   2  22
TORSDOF 9
ENDMDL
MODEL 7
REMARK VINA RESULT:      -7.0      1.932      6.477
REMARK  9 active torsions:
REMARK  status: ('A' for Active; 'I' for Inactive)
REMARK    1  A    between atoms: O_2  and  C_3 
REMARK    2  A    between atoms: C_3  and  C_4 
REMARK    3  A    between atoms: C_4  and  S_5 
REMARK    4  A    between atoms: S_5  and  C_6 
REMARK    5  A    between atoms: C_7  and  C_8 
REMARK       I    between atoms: C_8  and  N_9 
REMARK    6  A    between atoms: N_9  and  C_10 
REMARK    7  A    between atoms: C_11  and  C_12 
REMARK       I    between atoms: C_12  and  N_13 
REMARK    8  A    between atoms: N_13  and  C_14 
REMARK    9  A    between atoms: C_14  and  C_15 
ROOT
HETATM    1  C   UNL     1      42.510 -15.453   3.774  1.00  0.00     0.050 A 
HETATM    2  C   UNL     1      42.046 -16.107   2.621  1.00  0.00     0.058 A 
HETATM    3  C   UNL     1      42.519 -17.385   2.285  1.00  0.00     0.019 A 
HETATM    4  C   UNL     1      43.444 -18.025   3.109  1.00  0.00     0.001 A 
HETATM    5  C   UNL     1      43.876 -17.402   4.279  1.00  0.00     0.002 A 
HETATM    6  C   UNL     1      43.404 -16.130   4.616  1.00  0.00     0.030 A 
ENDROOT
BRANCH   1   7
HETATM    7  N   UNL     1      42.112 -14.161   4.173  1.00  0.00    -0.322 N 
HETATM    8  C   UNL     1      41.357 -13.896   5.299  1.00  0.00     0.257 C 
HETATM    9  O   UNL     1      40.718 -14.712   5.950  1.00  0.00    -0.267 OA
HETATM   10  H   UNL     1      42.204 -13.407   3.502  1.00  0.00     0.169 HD
BRANCH   8  11
HETATM   11  C   UNL     1      41.355 -12.474   5.698  1.00  0.00     0.049 A 
HETATM   12  C   UNL     1      42.454 -11.851   6.307  1.00  0.00     0.016 A 
HETATM   13  C   UNL     1      42.342 -10.494   6.646  1.00  0.00     0.019 A 
HETATM   14  C   UNL     1      41.175  -9.776   6.366  1.00  0.00     0.001 A 
HETATM   15  C   UNL     1      40.096 -10.403   5.747  1.00  0.00     0.001 A 
HETATM   16  C   UNL     1      40.184 -11.752   5.412  1.00  0.00     0.018 A 
BRANCH  12  17
HETATM   17  S   UNL     1      43.961 -12.682   6.790  1.00  0.00    -0.127 SA
BRANCH  17  18
HETATM   18  C   UNL     1      45.212 -11.459   6.241  1.00  0.00     0.106 C 
BRANCH  18  19
HETATM   19  C   UNL     1      45.903 -10.768   7.421  1.00  0.00     0.177 C 
BRANCH  19  20
HETATM   20  O   UNL     1      45.383 -11.098   8.710  1.00  0.00    -0.395 OA
HETATM   21  C   UNL     1      45.237  -9.981   9.575  1.00  0.00     0.201 C 
ENDBRANCH  19  20
ENDBRANCH  18  19
ENDBRANCH  17  18
ENDBRANCH  12  17
ENDBRANCH   8  11
ENDBRANCH   1   7
BRANCH   2  22
HETATM   22  C   UNL     1      40.884 -15.620   1.845  1.00  0.00     0.254 C 
HETATM   23  N   UNL     1      41.187 -15.089   0.609  1.00  0.00    -0.354 N 
HETATM   24  H   UNL     1      42.099 -14.642   0.569  1.00  0.00     0.162 HD
HETATM   25  O   UNL     1      39.753 -15.721   2.308  1.00  0.00    -0.268 OA
BRANCH  23  26
HETATM   26  C   UNL     1      40.146 -14.402  -0.134  1.00  0.00     0.155 C 
BRANCH  26  27
HETATM   27  C   UNL     1      40.421 -12.894  -0.230  1.00  0.00     0.139 C 
HETATM   28  O   UNL     1      41.417 -12.530   0.751  1.00  0.00    -0.384 OA
HETATM   29  C   UNL     1      40.767 -11.871   1.848  1.00  0.00     0.168 C 
HETATM   30  C   UNL     1      39.274 -11.942   1.604  1.00  0.00     0.029 C 
HETATM   31  C   UNL     1      39.198 -12.055   0.102  1.00  0.00     0.035 C 
ENDBRANCH  26  27
ENDBRANCH  23  26
ENDBRANCH   2  22
TORSDOF 9
ENDMDL
MODEL 8
REMARK VINA RESULT:      -6.9      2.585      5.412
REMARK  9 active torsions:
REMARK  status: ('A' for Active; 'I' for Inactive)
REMARK    1  A    between atoms: O_2  and  C_3 
REMARK    2  A    between atoms: C_3  and  C_4 
REMARK    3  A    between atoms: C_4  and  S_5 
REMARK    4  A    between atoms: S_5  and  C_6 
REMARK    5  A    between atoms: C_7  and  C_8 
REMARK       I    between atoms: C_8  and  N_9 
REMARK    6  A    between atoms: N_9  and  C_10 
REMARK    7  A    between atoms: C_11  and  C_12 
REMARK       I    between atoms: C_12  and  N_13 
REMARK    8  A    between atoms: N_13  and  C_14 
REMARK    9  A    between atoms: C_14  and  C_15 
ROOT
HETATM    1  C   UNL     1      42.755 -14.966   4.684  1.00  0.00     0.050 A 
HETATM    2  C   UNL     1      43.325 -14.317   5.792  1.00  0.00     0.058 A 
HETATM    3  C   UNL     1      43.995 -15.051   6.783  1.00  0.00     0.019 A 
HETATM    4  C   UNL     1      44.116 -16.435   6.663  1.00  0.00     0.001 A 
HETATM    5  C   UNL     1      43.592 -17.082   5.545  1.00  0.00     0.002 A 
HETATM    6  C   UNL     1      42.926 -16.351   4.556  1.00  0.00     0.030 A 
ENDROOT
BRANCH   1   7
HETATM    7  N   UNL     1      42.041 -14.313   3.657  1.00  0.00    -0.322 N 
HETATM    8  C   UNL     1      42.520 -14.136   2.374  1.00  0.00     0.257 C 
HETATM    9  O   UNL     1      43.680 -14.268   2.009  1.00  0.00    -0.267 OA
HETATM   10  H   UNL     1      41.228 -13.767   3.918  1.00  0.00     0.169 HD
BRANCH   8  11
HETATM   11  C   UNL     1      41.483 -13.743   1.398  1.00  0.00     0.049 A 
HETATM   12  C   UNL     1      41.124 -12.408   1.162  1.00  0.00     0.016 A 
HETATM   13  C   UNL     1      40.123 -12.149   0.214  1.00  0.00     0.019 A 
HETATM   14  C   UNL     1      39.515 -13.192  -0.494  1.00  0.00     0.001 A 
HETATM   15  C   UNL     1      39.891 -14.512  -0.260  1.00  0.00     0.001 A 
HETATM   16  C   UNL     1      40.876 -14.790   0.685  1.00  0.00     0.018 A 
BRANCH  12  17
HETATM   17  S   UNL     1      41.768 -11.003   2.060  1.00  0.00    -0.127 SA
BRANCH  17  18
HETATM   18  C   UNL     1      40.208 -10.187   2.575  1.00  0.00     0.106 C 
BRANCH  18  19
HETATM   19  C   UNL     1      39.553 -10.893   3.767  1.00  0.00     0.177 C 
BRANCH  19  20
HETATM   20  O   UNL     1      40.407 -11.773   4.500  1.00  0.00    -0.395 OA
HETATM   21  C   UNL     1      39.785 -12.372   5.627  1.00  0.00     0.201 C 
ENDBRANCH  19  20
ENDBRANCH  18  19
ENDBRANCH  17  18
ENDBRANCH  12  17
ENDBRANCH   8  11
ENDBRANCH   1   7
BRANCH   2  22
HETATM   22  C   UNL     1      43.472 -12.846   5.862  1.00  0.00     0.254 C 
HETATM   23  N   UNL     1      43.310 -12.302   7.119  1.00  0.00    -0.354 N 
HETATM   24  H   UNL     1      42.659 -12.817   7.707  1.00  0.00     0.162 HD
HETATM   25  O   UNL     1      43.736 -12.208   4.849  1.00  0.00    -0.268 OA
BRANCH  23  26
HETATM   26  C   UNL     1      43.231 -10.858   7.254  1.00  0.00     0.155 C 
BRANCH  26  27
HETATM   27  C   UNL     1      44.533 -10.272   7.819  1.00  0.00     0.139 C 
HETATM   28  O   UNL     1      44.920 -11.018   8.993  1.00  0.00    -0.384 OA
HETATM   29  C   UNL     1      44.610 -10.241  10.159  1.00  0.00     0.168 C 
HETATM   30  C   UNL     1      43.871  -9.001   9.698  1.00  0.00     0.029 C 
HETATM   31  C   UNL     1      44.372  -8.834   8.286  1.00  0.00     0.035 C 
ENDBRANCH  26  27
ENDBRANCH  23  26
ENDBRANCH   2  22
TORSDOF 9
ENDMDL
MODEL 9
REMARK VINA RESULT:      -6.8      2.872      7.401
REMARK  9 active torsions:
REMARK  status: ('A' for Active; 'I' for Inactive)
REMARK    1  A    between atoms: O_2  and  C_3 
REMARK    2  A    between atoms: C_3  and  C_4 
REMARK    3  A    between atoms: C_4  and  S_5 
REMARK    4  A    between atoms: S_5  and  C_6 
REMARK    5  A    between atoms: C_7  and  C_8 
REMARK       I    between atoms: C_8  and  N_9 
REMARK    6  A    between atoms: N_9  and  C_10 
REMARK    7  A    between atoms: C_11  and  C_12 
REMARK       I    between atoms: C_12  and  N_13 
REMARK    8  A    between atoms: N_13  and  C_14 
REMARK    9  A    between atoms: C_14  and  C_15 
ROOT
HETATM    1  C   UNL     1      42.835 -13.422   4.413  1.00  0.00     0.050 A 
HETATM    2  C   UNL     1      43.200 -14.360   5.394  1.00  0.00     0.058 A 
HETATM    3  C   UNL     1      43.826 -13.946   6.579  1.00  0.00     0.019 A 
HETATM    4  C   UNL     1      44.073 -12.592   6.801  1.00  0.00     0.001 A 
HETATM    5  C   UNL     1      43.674 -11.651   5.854  1.00  0.00     0.002 A 
HETATM    6  C   UNL     1      43.048 -12.062   4.673  1.00  0.00     0.030 A 
ENDROOT
BRANCH   1   7
HETATM    7  N   UNL     1      42.229 -13.750   3.182  1.00  0.00    -0.322 N 
HETATM    8  C   UNL     1      40.901 -13.511   2.885  1.00  0.00     0.257 C 
HETATM    9  O   UNL     1      40.018 -13.238   3.687  1.00  0.00    -0.267 OA
HETATM   10  H   UNL     1      42.728 -14.374   2.559  1.00  0.00     0.169 HD
BRANCH   8  11
HETATM   11  C   UNL     1      40.582 -13.617   1.447  1.00  0.00     0.049 A 
HETATM   12  C   UNL     1      40.750 -12.555   0.547  1.00  0.00     0.016 A 
HETATM   13  C   UNL     1      40.413 -12.766  -0.798  1.00  0.00     0.019 A 
HETATM   14  C   UNL     1      39.941 -14.009  -1.235  1.00  0.00     0.001 A 
HETATM   15  C   UNL     1      39.791 -15.059  -0.333  1.00  0.00     0.001 A 
HETATM   16  C   UNL     1      40.112 -14.866   1.008  1.00  0.00     0.018 A 
BRANCH  12  17
HETATM   17  S   UNL     1      41.263 -10.904   1.000  1.00  0.00    -0.127 SA
BRANCH  17  18
HETATM   18  C   UNL     1      41.568 -10.178  -0.656  1.00  0.00     0.106 C 
BRANCH  18  19
HETATM   19  C   UNL     1      42.028  -8.719  -0.572  1.00  0.00     0.177 C 
BRANCH  19  20
HETATM   20  O   UNL     1      43.266  -8.431  -1.223  1.00  0.00    -0.395 OA
HETATM   21  C   UNL     1      43.320  -7.139  -1.811  1.00  0.00     0.201 C 
ENDBRANCH  19  20
ENDBRANCH  18  19
ENDBRANCH  17  18
ENDBRANCH  12  17
ENDBRANCH   8  11
ENDBRANCH   1   7
BRANCH   2  22
HETATM   22  C   UNL     1      42.741 -15.766   5.358  1.00  0.00     0.254 C 
HETATM   23  N   UNL     1      43.739 -16.710   5.479  1.00  0.00    -0.354 N 
HETATM   24  H   UNL     1      44.631 -16.414   5.091  1.00  0.00     0.162 HD
HETATM   25  O   UNL     1      41.547 -16.019   5.244  1.00  0.00    -0.268 OA
BRANCH  23  26
HETATM   26  C   UNL     1      43.417 -18.107   5.250  1.00  0.00     0.155 C 
BRANCH  26  27
HETATM   27  C   UNL     1      44.533 -18.827   4.480  1.00  0.00     0.139 C 
HETATM   28  O   UNL     1      44.255 -18.757   3.064  1.00  0.00    -0.384 OA
HETATM   29  C   UNL     1      43.766 -20.033   2.625  1.00  0.00     0.168 C 
HETATM   30  C   UNL     1      43.605 -20.907   3.852  1.00  0.00     0.029 C 
HETATM   31  C   UNL     1      44.607 -20.309   4.807  1.00  0.00     0.035 C 
ENDBRANCH  26  27
ENDBRANCH  23  26
ENDBRANCH   2  22
TORSDOF 9
ENDMDL
MODEL 10
REMARK VINA RESULT:      -6.8      2.275      3.822
REMARK  9 active torsions:
REMARK  status: ('A' for Active; 'I' for Inactive)
REMARK    1  A    between atoms: O_2  and  C_3 
REMARK    2  A    between atoms: C_3  and  C_4 
REMARK    3  A    between atoms: C_4  and  S_5 
REMARK    4  A    between atoms: S_5  and  C_6 
REMARK    5  A    between atoms: C_7  and  C_8 
REMARK       I    between atoms: C_8  and  N_9 
REMARK    6  A    between atoms: N_9  and  C_10 
REMARK    7  A    between atoms: C_11  and  C_12 
REMARK       I    between atoms: C_12  and  N_13 
REMARK    8  A    between atoms: N_13  and  C_14 
REMARK    9  A    between atoms: C_14  and  C_15 
ROOT
HETATM    1  C   UNL     1      40.352 -13.858   1.632  1.00  0.00     0.050 A 
HETATM    2  C   UNL     1      39.748 -12.645   1.999  1.00  0.00     0.058 A 
HETATM    3  C   UNL     1      39.043 -11.883   1.054  1.00  0.00     0.019 A 
HETATM    4  C   UNL     1      38.923 -12.338  -0.258  1.00  0.00     0.001 A 
HETATM    5  C   UNL     1      39.482 -13.563  -0.620  1.00  0.00     0.002 A 
HETATM    6  C   UNL     1      40.182 -14.324   0.321  1.00  0.00     0.030 A 
ENDROOT
BRANCH   1   7
HETATM    7  N   UNL     1      41.101 -14.673   2.506  1.00  0.00    -0.322 N 
HETATM    8  C   UNL     1      42.453 -14.516   2.744  1.00  0.00     0.257 C 
HETATM    9  O   UNL     1      43.234 -13.855   2.073  1.00  0.00    -0.267 OA
HETATM   10  H   UNL     1      40.683 -15.542   2.820  1.00  0.00     0.169 HD
BRANCH   8  11
HETATM   11  C   UNL     1      42.940 -15.246   3.932  1.00  0.00     0.049 A 
HETATM   12  C   UNL     1      43.256 -16.612   3.913  1.00  0.00     0.016 A 
HETATM   13  C   UNL     1      43.708 -17.204   5.101  1.00  0.00     0.019 A 
HETATM   14  C   UNL     1      43.861 -16.449   6.270  1.00  0.00     0.001 A 
HETATM   15  C   UNL     1      43.557 -15.090   6.271  1.00  0.00     0.001 A 
HETATM   16  C   UNL     1      43.097 -14.486   5.104  1.00  0.00     0.018 A 
BRANCH  12  17
HETATM   17  S   UNL     1      43.024 -17.694   2.510  1.00  0.00    -0.127 SA
BRANCH  17  18
HETATM   18  C   UNL     1      44.226 -19.021   2.903  1.00  0.00     0.106 C 
BRANCH  18  19
HETATM   19  C   UNL     1      43.708 -20.407   2.506  1.00  0.00     0.177 C 
BRANCH  19  20
HETATM   20  O   UNL     1      43.956 -21.447   3.454  1.00  0.00    -0.395 OA
HETATM   21  C   UNL     1      43.926 -21.011   4.805  1.00  0.00     0.201 C 
ENDBRANCH  19  20
ENDBRANCH  18  19
ENDBRANCH  17  18
ENDBRANCH  12  17
ENDBRANCH   8  11
ENDBRANCH   1   7
BRANCH   2  22
HETATM   22  C   UNL     1      39.602 -12.225   3.411  1.00  0.00     0.254 C 
HETATM   23  N   UNL     1      39.435 -10.870   3.604  1.00  0.00    -0.354 N 
HETATM   24  H   UNL     1      39.904 -10.297   2.907  1.00  0.00     0.162 HD
HETATM   25  O   UNL     1      39.618 -13.064   4.305  1.00  0.00    -0.268 OA
BRANCH  23  26
HETATM   26  C   UNL     1      39.489 -10.340   4.954  1.00  0.00     0.155 C 
BRANCH  26  27
HETATM   27  C   UNL     1      40.773  -9.533   5.194  1.00  0.00     0.139 C 
HETATM   28  O   UNL     1      41.724  -9.832   4.149  1.00  0.00    -0.384 OA
HETATM   29  C   UNL     1      42.731 -10.709   4.675  1.00  0.00     0.168 C 
HETATM   30  C   UNL     1      42.318 -11.084   6.084  1.00  0.00     0.029 C 
HETATM   31  C   UNL     1      41.466  -9.909   6.494  1.00  0.00     0.035 C 
ENDBRANCH  26  27
ENDBRANCH  23  26
ENDBRANCH   2  22
TORSDOF 9
ENDMDL
