MODEL 1
REMARK VINA RESULT:      -7.9      0.000      0.000
REMARK  6 active torsions:
REMARK  status: ('A' for Active; 'I' for Inactive)
REMARK    1  A    between atoms: C_2  and  N_3 
REMARK    2  A    between atoms: N_3  and  C_5 
REMARK    3  A    between atoms: N_3  and  C_26 
REMARK    4  A    between atoms: C_8  and  N_9 
REMARK       I    between atoms: N_9  and  C_10 
REMARK    5  A    between atoms: C_10  and  C_11 
REMARK    6  A    between atoms: C_19  and  O_20 
ROOT
HETATM    1  N   UNL     1      43.361 -13.227   7.020  1.00  0.00    -0.321 N 
HETATM    2  C   UNL     1      44.261 -12.170   7.022  1.00  0.00     0.280 C 
HETATM    3  O   UNL     1      45.295 -12.139   6.363  1.00  0.00    -0.265 OA
HETATM    4  H   UNL     1      42.631 -13.147   7.720  1.00  0.00     0.169 HD
ENDROOT
BRANCH   1   5
HETATM    5  C   UNL     1      43.483 -14.439   6.322  1.00  0.00     0.035 A 
HETATM    6  C   UNL     1      44.191 -15.542   6.798  1.00  0.00     0.032 A 
HETATM    7  C   UNL     1      44.213 -16.740   6.074  1.00  0.00     0.039 A 
HETATM    8  C   UNL     1      43.489 -16.867   4.885  1.00  0.00     0.134 A 
HETATM    9  C   UNL     1      42.819 -15.750   4.384  1.00  0.00     0.039 A 
HETATM   10  C   UNL     1      42.837 -14.537   5.088  1.00  0.00     0.032 A 
BRANCH   8  11
HETATM   11  N   UNL     1      43.466 -18.198   4.212  1.00  0.00    -0.042 N 
HETATM   12  H   UNL     1      42.589 -18.626   4.538  1.00  0.00     0.286 HD
BRANCH  11  13
HETATM   13  C   UNL     1      43.352 -18.074   2.704  1.00  0.00     0.237 C 
HETATM   14  C   UNL     1      43.204 -19.429   2.034  1.00  0.00     0.035 C 
ENDBRANCH  11  13
BRANCH  11  15
HETATM   15  C   UNL     1      44.530 -19.161   4.699  1.00  0.00     0.237 C 
HETATM   16  C   UNL     1      43.976 -20.374   5.438  1.00  0.00     0.035 C 
ENDBRANCH  11  15
ENDBRANCH   8  11
ENDBRANCH   1   5
BRANCH   2  17
HETATM   17  C   UNL     1      43.889 -11.127   7.961  1.00  0.00     0.150 A 
HETATM   18  O   UNL     1      44.457 -11.140   9.210  1.00  0.00    -0.304 OA
HETATM   19  C   UNL     1      43.954 -10.080   9.893  1.00  0.00     0.087 A 
HETATM   20  C   UNL     1      43.086  -9.354   9.091  1.00  0.00     0.009 A 
HETATM   21  C   UNL     1      44.259  -9.752  11.211  1.00  0.00     0.041 A 
HETATM   22  C   UNL     1      43.042 -10.034   7.836  1.00  0.00    -0.009 A 
HETATM   23  C   UNL     1      42.490  -8.201   9.636  1.00  0.00     0.051 A 
HETATM   24  C   UNL     1      42.269  -9.645   6.626  1.00  0.00     0.052 C 
HETATM   25  C   UNL     1      42.774  -7.834  10.961  1.00  0.00     0.069 A 
HETATM   26  C   UNL     1      43.645  -8.605  11.735  1.00  0.00     0.039 A 
BRANCH  25  27
HETATM   27  O   UNL     1      42.133  -6.695  11.373  1.00  0.00    -0.356 OA
HETATM   28  C   UNL     1      42.147  -6.411  12.767  1.00  0.00     0.210 C 
ENDBRANCH  25  27
ENDBRANCH   2  17
TORSDOF 6
ENDMDL
MODEL 2
REMARK VINA RESULT:      -7.6      1.737      2.568
REMARK  6 active torsions:
REMARK  status: ('A' for Active; 'I' for Inactive)
REMARK    1  A    between atoms: C_2  and  N_3 
REMARK    2  A    between atoms: N_3  and  C_5 
REMARK    3  A    between atoms: N_3  and  C_26 
REMARK    4  A    between atoms: C_8  and  N_9 
REMARK       I    between atoms: N_9  and  C_10 
REMARK    5  A    between atoms: C_10  and  C_11 
REMARK    6  A    between atoms: C_19  and  O_20 
ROOT
HETATM    1  N   UNL     1      43.242 -11.973   7.549  1.00  0.00    -0.321 N 
HETATM    2  C   UNL     1      44.333 -11.273   8.044  1.00  0.00     0.280 C 
HETATM    3  O   UNL     1      45.468 -11.343   7.584  1.00  0.00    -0.265 OA
HETATM    4  H   UNL     1      42.410 -11.902   8.127  1.00  0.00     0.169 HD
ENDROOT
BRANCH   1   5
HETATM    5  C   UNL     1      43.239 -12.898   6.492  1.00  0.00     0.035 A 
HETATM    6  C   UNL     1      43.417 -14.270   6.662  1.00  0.00     0.032 A 
HETATM    7  C   UNL     1      43.338 -15.138   5.566  1.00  0.00     0.039 A 
HETATM    8  C   UNL     1      43.033 -14.651   4.292  1.00  0.00     0.134 A 
HETATM    9  C   UNL     1      42.901 -13.273   4.114  1.00  0.00     0.039 A 
HETATM   10  C   UNL     1      43.028 -12.401   5.205  1.00  0.00     0.032 A 
BRANCH   8  11
HETATM   11  N   UNL     1      42.859 -15.633   3.184  1.00  0.00    -0.042 N 
HETATM   12  H   UNL     1      43.719 -15.535   2.627  1.00  0.00     0.286 HD
BRANCH  11  13
HETATM   13  C   UNL     1      42.830 -17.064   3.687  1.00  0.00     0.237 C 
HETATM   14  C   UNL     1      43.434 -18.030   2.683  1.00  0.00     0.035 C 
ENDBRANCH  11  13
BRANCH  11  15
HETATM   15  C   UNL     1      41.762 -15.275   2.200  1.00  0.00     0.237 C 
HETATM   16  C   UNL     1      40.386 -15.806   2.585  1.00  0.00     0.035 C 
ENDBRANCH  11  15
ENDBRANCH   8  11
ENDBRANCH   1   5
BRANCH   2  17
HETATM   17  C   UNL     1      44.005 -10.502   9.231  1.00  0.00     0.150 A 
HETATM   18  O   UNL     1      43.566 -11.173  10.343  1.00  0.00    -0.304 OA
HETATM   19  C   UNL     1      43.326 -10.244  11.306  1.00  0.00     0.087 A 
HETATM   20  C   UNL     1      43.637  -8.974  10.842  1.00  0.00     0.009 A 
HETATM   21  C   UNL     1      42.841 -10.514  12.583  1.00  0.00     0.041 A 
HETATM   22  C   UNL     1      44.078  -9.140   9.494  1.00  0.00    -0.009 A 
HETATM   23  C   UNL     1      43.471  -7.890  11.724  1.00  0.00     0.051 A 
HETATM   24  C   UNL     1      44.545  -8.081   8.561  1.00  0.00     0.052 C 
HETATM   25  C   UNL     1      42.987  -8.119  13.022  1.00  0.00     0.069 A 
HETATM   26  C   UNL     1      42.674  -9.416  13.438  1.00  0.00     0.039 A 
BRANCH  25  27
HETATM   27  O   UNL     1      42.870  -6.985  13.781  1.00  0.00    -0.356 OA
HETATM   28  C   UNL     1      42.416  -7.143  15.119  1.00  0.00     0.210 C 
ENDBRANCH  25  27
ENDBRANCH   2  17
TORSDOF 6
ENDMDL
MODEL 3
REMARK VINA RESULT:      -7.5      6.545      9.294
REMARK  6 active torsions:
REMARK  status: ('A' for Active; 'I' for Inactive)
REMARK    1  A    between atoms: C_2  and  N_3 
REMARK    2  A    between atoms: N_3  and  C_5 
REMARK    3  A    between atoms: N_3  and  C_26 
REMARK    4  A    between atoms: C_8  and  N_9 
REMARK       I    between atoms: N_9  and  C_10 
REMARK    5  A    between atoms: C_10  and  C_11 
REMARK    6  A    between atoms: C_19  and  O_20 
ROOT
HETATM    1  N   UNL     1      41.846 -14.150   1.164  1.00  0.00    -0.321 N 
HETATM    2  C   UNL     1      40.733 -14.066   0.338  1.00  0.00     0.280 C 
HETATM    3  O   UNL     1      39.837 -14.902   0.297  1.00  0.00    -0.265 OA
HETATM    4  H   UNL     1      42.552 -13.445   0.975  1.00  0.00     0.169 HD
ENDROOT
BRANCH   1   5
HETATM    5  C   UNL     1      42.168 -15.194   2.045  1.00  0.00     0.035 A 
HETATM    6  C   UNL     1      43.105 -16.187   1.763  1.00  0.00     0.032 A 
HETATM    7  C   UNL     1      43.421 -17.160   2.719  1.00  0.00     0.039 A 
HETATM    8  C   UNL     1      42.836 -17.127   3.988  1.00  0.00     0.134 A 
HETATM    9  C   UNL     1      41.864 -16.162   4.254  1.00  0.00     0.039 A 
HETATM   10  C   UNL     1      41.516 -15.217   3.279  1.00  0.00     0.032 A 
BRANCH   8  11
HETATM   11  N   UNL     1      43.288 -18.126   4.999  1.00  0.00    -0.042 N 
HETATM   12  H   UNL     1      42.452 -18.701   5.170  1.00  0.00     0.286 HD
BRANCH  11  13
HETATM   13  C   UNL     1      44.349 -19.058   4.447  1.00  0.00     0.237 C 
HETATM   14  C   UNL     1      44.263 -20.443   5.064  1.00  0.00     0.035 C 
ENDBRANCH  11  13
BRANCH  11  15
HETATM   15  C   UNL     1      43.594 -17.538   6.363  1.00  0.00     0.237 C 
HETATM   16  C   UNL     1      44.718 -16.508   6.355  1.00  0.00     0.035 C 
ENDBRANCH  11  15
ENDBRANCH   8  11
ENDBRANCH   1   5
BRANCH   2  17
HETATM   17  C   UNL     1      40.782 -12.913  -0.544  1.00  0.00     0.150 A 
HETATM   18  O   UNL     1      41.165 -11.706  -0.019  1.00  0.00    -0.304 OA
HETATM   19  C   UNL     1      41.129 -10.797  -1.028  1.00  0.00     0.087 A 
HETATM   20  C   UNL     1      40.757 -11.408  -2.217  1.00  0.00     0.009 A 
HETATM   21  C   UNL     1      41.425  -9.442  -0.904  1.00  0.00     0.041 A 
HETATM   22  C   UNL     1      40.531 -12.782  -1.903  1.00  0.00    -0.009 A 
HETATM   23  C   UNL     1      40.693 -10.613  -3.376  1.00  0.00     0.051 A 
HETATM   24  C   UNL     1      40.130 -13.866  -2.839  1.00  0.00     0.052 C 
HETATM   25  C   UNL     1      40.987  -9.242  -3.295  1.00  0.00     0.069 A 
HETATM   26  C   UNL     1      41.343  -8.669  -2.071  1.00  0.00     0.039 A 
BRANCH  25  27
HETATM   27  O   UNL     1      40.888  -8.579  -4.489  1.00  0.00    -0.356 OA
HETATM   28  C   UNL     1      41.674  -7.404  -4.647  1.00  0.00     0.210 C 
ENDBRANCH  25  27
ENDBRANCH   2  17
TORSDOF 6
ENDMDL
MODEL 4
REMARK VINA RESULT:      -7.3      2.635     10.075
REMARK  6 active torsions:
REMARK  status: ('A' for Active; 'I' for Inactive)
REMARK    1  A    between atoms: C_2  and  N_3 
REMARK    2  A    between atoms: N_3  and  C_5 
REMARK    3  A    between atoms: N_3  and  C_26 
REMARK    4  A    between atoms: C_8  and  N_9 
REMARK       I    between atoms: N_9  and  C_10 
REMARK    5  A    between atoms: C_10  and  C_11 
REMARK    6  A    between atoms: C_19  and  O_20 
ROOT
HETATM    1  N   UNL     1      43.385 -12.305   6.274  1.00  0.00    -0.321 N 
HETATM    2  C   UNL     1      42.273 -13.084   5.987  1.00  0.00     0.280 C 
HETATM    3  O   UNL     1      41.135 -12.836   6.372  1.00  0.00    -0.265 OA
HETATM    4  H   UNL     1      44.265 -12.724   5.992  1.00  0.00     0.169 HD
ENDROOT
BRANCH   1   5
HETATM    5  C   UNL     1      43.425 -11.149   7.070  1.00  0.00     0.035 A 
HETATM    6  C   UNL     1      42.701  -9.990   6.792  1.00  0.00     0.032 A 
HETATM    7  C   UNL     1      42.741  -8.899   7.669  1.00  0.00     0.039 A 
HETATM    8  C   UNL     1      43.470  -8.969   8.860  1.00  0.00     0.134 A 
HETATM    9  C   UNL     1      44.231 -10.110   9.115  1.00  0.00     0.039 A 
HETATM   10  C   UNL     1      44.227 -11.183   8.212  1.00  0.00     0.032 A 
BRANCH   8  11
HETATM   11  N   UNL     1      43.392  -7.817   9.804  1.00  0.00    -0.042 N 
HETATM   12  H   UNL     1      44.357  -7.709  10.144  1.00  0.00     0.286 HD
BRANCH  11  13
HETATM   13  C   UNL     1      43.034  -6.523   9.098  1.00  0.00     0.237 C 
HETATM   14  C   UNL     1      42.643  -5.432  10.079  1.00  0.00     0.035 C 
ENDBRANCH  11  13
BRANCH  11  15
HETATM   15  C   UNL     1      42.603  -8.100  11.068  1.00  0.00     0.237 C 
HETATM   16  C   UNL     1      43.469  -8.289  12.308  1.00  0.00     0.035 C 
ENDBRANCH  11  15
ENDBRANCH   8  11
ENDBRANCH   1   5
BRANCH   2  17
HETATM   17  C   UNL     1      42.614 -14.285   5.244  1.00  0.00     0.150 A 
HETATM   18  O   UNL     1      42.562 -14.242   3.875  1.00  0.00    -0.304 OA
HETATM   19  C   UNL     1      42.916 -15.471   3.418  1.00  0.00     0.087 A 
HETATM   20  C   UNL     1      43.231 -16.309   4.478  1.00  0.00     0.009 A 
HETATM   21  C   UNL     1      42.965 -15.851   2.080  1.00  0.00     0.041 A 
HETATM   22  C   UNL     1      43.035 -15.540   5.665  1.00  0.00    -0.009 A 
HETATM   23  C   UNL     1      43.646 -17.621   4.182  1.00  0.00     0.051 A 
HETATM   24  C   UNL     1      43.255 -15.977   7.069  1.00  0.00     0.052 C 
HETATM   25  C   UNL     1      43.712 -18.043   2.845  1.00  0.00     0.069 A 
HETATM   26  C   UNL     1      43.371 -17.166   1.812  1.00  0.00     0.039 A 
BRANCH  25  27
HETATM   27  O   UNL     1      44.128 -19.339   2.689  1.00  0.00    -0.356 OA
HETATM   28  C   UNL     1      43.278 -20.211   1.955  1.00  0.00     0.210 C 
ENDBRANCH  25  27
ENDBRANCH   2  17
TORSDOF 6
ENDMDL
MODEL 5
REMARK VINA RESULT:      -7.3      1.530      2.769
REMARK  6 active torsions:
REMARK  status: ('A' for Active; 'I' for Inactive)
REMARK    1  A    between atoms: C_2  and  N_3 
REMARK    2  A    between atoms: N_3  and  C_5 
REMARK    3  A    between atoms: N_3  and  C_26 
REMARK    4  A    between atoms: C_8  and  N_9 
REMARK       I    between atoms: N_9  and  C_10 
REMARK    5  A    between atoms: C_10  and  C_11 
REMARK    6  A    between atoms: C_19  and  O_20 
ROOT
HETATM    1  N   UNL     1      43.133 -11.565   7.526  1.00  0.00    -0.321 N 
HETATM    2  C   UNL     1      44.229 -10.990   8.154  1.00  0.00     0.280 C 
HETATM    3  O   UNL     1      45.390 -11.346   7.986  1.00  0.00    -0.265 OA
HETATM    4  H   UNL     1      42.239 -11.239   7.878  1.00  0.00     0.169 HD
ENDROOT
BRANCH   1   5
HETATM    5  C   UNL     1      43.142 -12.657   6.643  1.00  0.00     0.035 A 
HETATM    6  C   UNL     1      43.389 -13.971   7.037  1.00  0.00     0.032 A 
HETATM    7  C   UNL     1      43.317 -15.017   6.109  1.00  0.00     0.039 A 
HETATM    8  C   UNL     1      42.951 -14.769   4.784  1.00  0.00     0.134 A 
HETATM    9  C   UNL     1      42.750 -13.449   4.379  1.00  0.00     0.039 A 
HETATM   10  C   UNL     1      42.869 -12.398   5.299  1.00  0.00     0.032 A 
BRANCH   8  11
HETATM   11  N   UNL     1      42.789 -15.934   3.866  1.00  0.00    -0.042 N 
HETATM   12  H   UNL     1      43.132 -15.586   2.961  1.00  0.00     0.286 HD
BRANCH  11  13
HETATM   13  C   UNL     1      43.687 -17.094   4.252  1.00  0.00     0.237 C 
HETATM   14  C   UNL     1      43.712 -18.171   3.181  1.00  0.00     0.035 C 
ENDBRANCH  11  13
BRANCH  11  15
HETATM   15  C   UNL     1      41.347 -16.304   3.578  1.00  0.00     0.237 C 
HETATM   16  C   UNL     1      40.891 -15.961   2.164  1.00  0.00     0.035 C 
ENDBRANCH  11  15
ENDBRANCH   8  11
ENDBRANCH   1   5
BRANCH   2  17
HETATM   17  C   UNL     1      43.846  -9.963   9.108  1.00  0.00     0.150 A 
HETATM   18  O   UNL     1      43.488  -8.729   8.629  1.00  0.00    -0.304 OA
HETATM   19  C   UNL     1      43.179  -7.954   9.701  1.00  0.00     0.087 A 
HETATM   20  C   UNL     1      43.301  -8.681  10.876  1.00  0.00     0.009 A 
HETATM   21  C   UNL     1      42.790  -6.619   9.645  1.00  0.00     0.041 A 
HETATM   22  C   UNL     1      43.735  -9.987  10.492  1.00  0.00    -0.009 A 
HETATM   23  C   UNL     1      42.994  -8.036  12.088  1.00  0.00     0.051 A 
HETATM   24  C   UNL     1      43.995 -11.149  11.383  1.00  0.00     0.052 C 
HETATM   25  C   UNL     1      42.594  -6.689  12.075  1.00  0.00     0.069 A 
HETATM   26  C   UNL     1      42.499  -5.994  10.867  1.00  0.00     0.039 A 
BRANCH  25  27
HETATM   27  O   UNL     1      42.324  -6.177  13.316  1.00  0.00    -0.356 OA
HETATM   28  C   UNL     1      42.764  -6.930  14.440  1.00  0.00     0.210 C 
ENDBRANCH  25  27
ENDBRANCH   2  17
TORSDOF 6
ENDMDL
MODEL 6
REMARK VINA RESULT:      -7.2      2.886      9.967
REMARK  6 active torsions:
REMARK  status: ('A' for Active; 'I' for Inactive)
REMARK    1  A    between atoms: C_2  and  N_3 
REMARK    2  A    between atoms: N_3  and  C_5 
REMARK    3  A    between atoms: N_3  and  C_26 
REMARK    4  A    between atoms: C_8  and  N_9 
REMARK       I    between atoms: N_9  and  C_10 
REMARK    5  A    between atoms: C_10  and  C_11 
REMARK    6  A    between atoms: C_19  and  O_20 
ROOT
HETATM    1  N   UNL     1      43.780 -13.468   5.796  1.00  0.00    -0.321 N 
HETATM    2  C   UNL     1      43.004 -13.901   4.730  1.00  0.00     0.280 C 
HETATM    3  O   UNL     1      42.187 -13.203   4.138  1.00  0.00    -0.265 OA
HETATM    4  H   UNL     1      44.303 -14.208   6.252  1.00  0.00     0.169 HD
ENDROOT
BRANCH   1   5
HETATM    5  C   UNL     1      43.746 -12.204   6.407  1.00  0.00     0.035 A 
HETATM    6  C   UNL     1      42.612 -11.395   6.455  1.00  0.00     0.032 A 
HETATM    7  C   UNL     1      42.638 -10.173   7.139  1.00  0.00     0.039 A 
HETATM    8  C   UNL     1      43.785  -9.766   7.825  1.00  0.00     0.134 A 
HETATM    9  C   UNL     1      44.934 -10.552   7.738  1.00  0.00     0.039 A 
HETATM   10  C   UNL     1      44.920 -11.752   7.012  1.00  0.00     0.032 A 
BRANCH   8  11
HETATM   11  N   UNL     1      43.721  -8.507   8.622  1.00  0.00    -0.042 N 
HETATM   12  H   UNL     1      44.398  -7.885   8.160  1.00  0.00     0.286 HD
BRANCH  11  13
HETATM   13  C   UNL     1      42.368  -7.830   8.513  1.00  0.00     0.237 C 
HETATM   14  C   UNL     1      42.430  -6.370   8.929  1.00  0.00     0.035 C 
ENDBRANCH  11  13
BRANCH  11  15
HETATM   15  C   UNL     1      44.266  -8.633  10.031  1.00  0.00     0.237 C 
HETATM   16  C   UNL     1      43.371  -9.432  10.972  1.00  0.00     0.035 C 
ENDBRANCH  11  15
ENDBRANCH   8  11
ENDBRANCH   1   5
BRANCH   2  17
HETATM   17  C   UNL     1      43.200 -15.311   4.438  1.00  0.00     0.150 A 
HETATM   18  O   UNL     1      43.376 -16.176   5.488  1.00  0.00    -0.304 OA
HETATM   19  C   UNL     1      43.540 -17.418   4.963  1.00  0.00     0.087 A 
HETATM   20  C   UNL     1      43.439 -17.377   3.580  1.00  0.00     0.009 A 
HETATM   21  C   UNL     1      43.772 -18.578   5.696  1.00  0.00     0.041 A 
HETATM   22  C   UNL     1      43.219 -16.008   3.238  1.00  0.00    -0.009 A 
HETATM   23  C   UNL     1      43.560 -18.588   2.873  1.00  0.00     0.051 A 
HETATM   24  C   UNL     1      43.025 -15.439   1.878  1.00  0.00     0.052 C 
HETATM   25  C   UNL     1      43.792 -19.782   3.575  1.00  0.00     0.069 A 
HETATM   26  C   UNL     1      43.899 -19.770   4.968  1.00  0.00     0.039 A 
BRANCH  25  27
HETATM   27  O   UNL     1      43.890 -20.889   2.774  1.00  0.00    -0.356 OA
HETATM   28  C   UNL     1      43.668 -20.705   1.382  1.00  0.00     0.210 C 
ENDBRANCH  25  27
ENDBRANCH   2  17
TORSDOF 6
ENDMDL
MODEL 7
REMARK VINA RESULT:      -7.2      6.820      9.709
REMARK  6 active torsions:
REMARK  status: ('A' for Active; 'I' for Inactive)
REMARK    1  A    between atoms: C_2  and  N_3 
REMARK    2  A    between atoms: N_3  and  C_5 
REMARK    3  A    between atoms: N_3  and  C_26 
REMARK    4  A    between atoms: C_8  and  N_9 
REMARK       I    between atoms: N_9  and  C_10 
REMARK    5  A    between atoms: C_10  and  C_11 
REMARK    6  A    between atoms: C_19  and  O_20 
ROOT
HETATM    1  N   UNL     1      40.610 -14.734   1.009  1.00  0.00    -0.321 N 
HETATM    2  C   UNL     1      40.809 -13.385   0.751  1.00  0.00     0.280 C 
HETATM    3  O   UNL     1      41.731 -12.720   1.211  1.00  0.00    -0.265 OA
HETATM    4  H   UNL     1      39.728 -15.094   0.658  1.00  0.00     0.169 HD
ENDROOT
BRANCH   1   5
HETATM    5  C   UNL     1      41.374 -15.554   1.854  1.00  0.00     0.035 A 
HETATM    6  C   UNL     1      42.610 -16.095   1.501  1.00  0.00     0.032 A 
HETATM    7  C   UNL     1      43.344 -16.852   2.422  1.00  0.00     0.039 A 
HETATM    8  C   UNL     1      42.873 -17.040   3.725  1.00  0.00     0.134 A 
HETATM    9  C   UNL     1      41.616 -16.540   4.063  1.00  0.00     0.039 A 
HETATM   10  C   UNL     1      40.861 -15.822   3.125  1.00  0.00     0.032 A 
BRANCH   8  11
HETATM   11  N   UNL     1      43.746 -17.767   4.692  1.00  0.00    -0.042 N 
HETATM   12  H   UNL     1      44.596 -17.189   4.742  1.00  0.00     0.286 HD
BRANCH  11  13
HETATM   13  C   UNL     1      43.156 -17.789   6.089  1.00  0.00     0.237 C 
HETATM   14  C   UNL     1      43.904 -16.866   7.035  1.00  0.00     0.035 C 
ENDBRANCH  11  13
BRANCH  11  15
HETATM   15  C   UNL     1      44.259 -19.102   4.188  1.00  0.00     0.237 C 
HETATM   16  C   UNL     1      44.094 -20.245   5.183  1.00  0.00     0.035 C 
ENDBRANCH  11  15
ENDBRANCH   8  11
ENDBRANCH   1   5
BRANCH   2  17
HETATM   17  C   UNL     1      39.751 -12.813  -0.065  1.00  0.00     0.150 A 
HETATM   18  O   UNL     1      38.967 -11.830   0.480  1.00  0.00    -0.304 OA
HETATM   19  C   UNL     1      38.062 -11.466  -0.465  1.00  0.00     0.087 A 
HETATM   20  C   UNL     1      38.269 -12.181  -1.636  1.00  0.00     0.009 A 
HETATM   21  C   UNL     1      37.064 -10.509  -0.300  1.00  0.00     0.041 A 
HETATM   22  C   UNL     1      39.367 -13.057  -1.376  1.00  0.00    -0.009 A 
HETATM   23  C   UNL     1      37.431 -11.910  -2.733  1.00  0.00     0.051 A 
HETATM   24  C   UNL     1      39.993 -14.022  -2.320  1.00  0.00     0.052 C 
HETATM   25  C   UNL     1      36.414 -10.950  -2.609  1.00  0.00     0.069 A 
HETATM   26  C   UNL     1      36.235 -10.265  -1.404  1.00  0.00     0.039 A 
BRANCH  25  27
HETATM   27  O   UNL     1      35.668 -10.778  -3.745  1.00  0.00    -0.356 OA
HETATM   28  C   UNL     1      34.494 -11.570  -3.877  1.00  0.00     0.210 C 
ENDBRANCH  25  27
ENDBRANCH   2  17
TORSDOF 6
ENDMDL
MODEL 8
REMARK VINA RESULT:      -7.1      5.067     10.110
REMARK  6 active torsions:
REMARK  status: ('A' for Active; 'I' for Inactive)
REMARK    1  A    between atoms: C_2  and  N_3 
REMARK    2  A    between atoms: N_3  and  C_5 
REMARK    3  A    between atoms: N_3  and  C_26 
REMARK    4  A    between atoms: C_8  and  N_9 
REMARK       I    between atoms: N_9  and  C_10 
REMARK    5  A    between atoms: C_10  and  C_11 
REMARK    6  A    between atoms: C_19  and  O_20 
ROOT
HETATM    1  N   UNL     1      41.946 -12.413   3.776  1.00  0.00    -0.321 N 
HETATM    2  C   UNL     1      41.374 -13.609   3.364  1.00  0.00     0.280 C 
HETATM    3  O   UNL     1      41.253 -14.600   4.075  1.00  0.00    -0.265 OA
HETATM    4  H   UNL     1      42.087 -11.744   3.025  1.00  0.00     0.169 HD
ENDROOT
BRANCH   1   5
HETATM    5  C   UNL     1      42.517 -12.137   5.028  1.00  0.00     0.035 A 
HETATM    6  C   UNL     1      43.419 -12.982   5.673  1.00  0.00     0.032 A 
HETATM    7  C   UNL     1      43.997 -12.608   6.893  1.00  0.00     0.039 A 
HETATM    8  C   UNL     1      43.717 -11.362   7.461  1.00  0.00     0.134 A 
HETATM    9  C   UNL     1      42.779 -10.537   6.840  1.00  0.00     0.039 A 
HETATM   10  C   UNL     1      42.166 -10.934   5.643  1.00  0.00     0.032 A 
BRANCH   8  11
HETATM   11  N   UNL     1      44.441 -10.976   8.706  1.00  0.00    -0.042 N 
HETATM   12  H   UNL     1      44.584 -11.868   9.197  1.00  0.00     0.286 HD
BRANCH  11  13
HETATM   13  C   UNL     1      45.820 -10.416   8.415  1.00  0.00     0.237 C 
HETATM   14  C   UNL     1      45.805  -8.901   8.304  1.00  0.00     0.035 C 
ENDBRANCH  11  13
BRANCH  11  15
HETATM   15  C   UNL     1      43.612 -10.166   9.684  1.00  0.00     0.237 C 
HETATM   16  C   UNL     1      43.753 -10.613  11.134  1.00  0.00     0.035 C 
ENDBRANCH  11  15
ENDBRANCH   8  11
ENDBRANCH   1   5
BRANCH   2  17
HETATM   17  C   UNL     1      41.003 -13.591   1.959  1.00  0.00     0.150 A 
HETATM   18  O   UNL     1      41.312 -12.481   1.217  1.00  0.00    -0.304 OA
HETATM   19  C   UNL     1      40.866 -12.703  -0.047  1.00  0.00     0.087 A 
HETATM   20  C   UNL     1      40.296 -13.965  -0.145  1.00  0.00     0.009 A 
HETATM   21  C   UNL     1      40.963 -11.805  -1.106  1.00  0.00     0.041 A 
HETATM   22  C   UNL     1      40.384 -14.542   1.159  1.00  0.00    -0.009 A 
HETATM   23  C   UNL     1      39.802 -14.371  -1.398  1.00  0.00     0.051 A 
HETATM   24  C   UNL     1      39.930 -15.895   1.578  1.00  0.00     0.052 C 
HETATM   25  C   UNL     1      39.883 -13.496  -2.493  1.00  0.00     0.069 A 
HETATM   26  C   UNL     1      40.454 -12.229  -2.341  1.00  0.00     0.039 A 
BRANCH  25  27
HETATM   27  O   UNL     1      39.368 -14.007  -3.655  1.00  0.00    -0.356 OA
HETATM   28  C   UNL     1      38.120 -14.684  -3.569  1.00  0.00     0.210 C 
ENDBRANCH  25  27
ENDBRANCH   2  17
TORSDOF 6
ENDMDL
MODEL 9
REMARK VINA RESULT:      -7.0      7.598     10.072
REMARK  6 active torsions:
REMARK  status: ('A' for Active; 'I' for Inactive)
REMARK    1  A    between atoms: C_2  and  N_3 
REMARK    2  A    between atoms: N_3  and  C_5 
REMARK    3  A    between atoms: N_3  and  C_26 
REMARK    4  A    between atoms: C_8  and  N_9 
REMARK       I    between atoms: N_9  and  C_10 
REMARK    5  A    between atoms: C_10  and  C_11 
REMARK    6  A    between atoms: C_19  and  O_20 
ROOT
HETATM    1  N   UNL     1      40.419 -13.916   0.574  1.00  0.00    -0.321 N 
HETATM    2  C   UNL     1      39.635 -14.227  -0.528  1.00  0.00     0.280 C 
HETATM    3  O   UNL     1      39.384 -15.368  -0.900  1.00  0.00    -0.265 OA
HETATM    4  H   UNL     1      40.634 -12.927   0.660  1.00  0.00     0.169 HD
ENDROOT
BRANCH   1   5
HETATM    5  C   UNL     1      41.089 -14.817   1.417  1.00  0.00     0.035 A 
HETATM    6  C   UNL     1      40.472 -15.511   2.457  1.00  0.00     0.032 A 
HETATM    7  C   UNL     1      41.191 -16.444   3.215  1.00  0.00     0.039 A 
HETATM    8  C   UNL     1      42.526 -16.730   2.912  1.00  0.00     0.134 A 
HETATM    9  C   UNL     1      43.156 -16.002   1.902  1.00  0.00     0.039 A 
HETATM   10  C   UNL     1      42.446 -15.035   1.176  1.00  0.00     0.032 A 
BRANCH   8  11
HETATM   11  N   UNL     1      43.209 -17.807   3.685  1.00  0.00    -0.042 N 
HETATM   12  H   UNL     1      42.437 -18.385   4.041  1.00  0.00     0.286 HD
BRANCH  11  13
HETATM   13  C   UNL     1      44.048 -18.704   2.796  1.00  0.00     0.237 C 
HETATM   14  C   UNL     1      43.212 -19.785   2.132  1.00  0.00     0.035 C 
ENDBRANCH  11  13
BRANCH  11  15
HETATM   15  C   UNL     1      43.898 -17.326   4.947  1.00  0.00     0.237 C 
HETATM   16  C   UNL     1      43.462 -18.061   6.210  1.00  0.00     0.035 C 
ENDBRANCH  11  15
ENDBRANCH   8  11
ENDBRANCH   1   5
BRANCH   2  17
HETATM   17  C   UNL     1      39.206 -13.045  -1.255  1.00  0.00     0.150 A 
HETATM   18  O   UNL     1      38.042 -12.430  -0.870  1.00  0.00    -0.304 OA
HETATM   19  C   UNL     1      37.857 -11.365  -1.693  1.00  0.00     0.087 A 
HETATM   20  C   UNL     1      38.908 -11.259  -2.592  1.00  0.00     0.009 A 
HETATM   21  C   UNL     1      36.774 -10.492  -1.650  1.00  0.00     0.041 A 
HETATM   22  C   UNL     1      39.785 -12.351  -2.309  1.00  0.00    -0.009 A 
HETATM   23  C   UNL     1      38.890 -10.191  -3.507  1.00  0.00     0.051 A 
HETATM   24  C   UNL     1      41.070 -12.673  -2.984  1.00  0.00     0.052 C 
HETATM   25  C   UNL     1      37.816  -9.285  -3.496  1.00  0.00     0.069 A 
HETATM   26  C   UNL     1      36.773  -9.441  -2.579  1.00  0.00     0.039 A 
BRANCH  25  27
HETATM   27  O   UNL     1      37.915  -8.292  -4.433  1.00  0.00    -0.356 OA
HETATM   28  C   UNL     1      37.278  -7.055  -4.139  1.00  0.00     0.210 C 
ENDBRANCH  25  27
ENDBRANCH   2  17
TORSDOF 6
ENDMDL
MODEL 10
REMARK VINA RESULT:      -6.9      1.333      2.270
REMARK  6 active torsions:
REMARK  status: ('A' for Active; 'I' for Inactive)
REMARK    1  A    between atoms: C_2  and  N_3 
REMARK    2  A    between atoms: N_3  and  C_5 
REMARK    3  A    between atoms: N_3  and  C_26 
REMARK    4  A    between atoms: C_8  and  N_9 
REMARK       I    between atoms: N_9  and  C_10 
REMARK    5  A    between atoms: C_10  and  C_11 
REMARK    6  A    between atoms: C_19  and  O_20 
ROOT
HETATM    1  N   UNL     1      42.934 -11.967   6.880  1.00  0.00    -0.321 N 
HETATM    2  C   UNL     1      44.046 -11.291   7.361  1.00  0.00     0.280 C 
HETATM    3  O   UNL     1      45.198 -11.701   7.274  1.00  0.00    -0.265 OA
HETATM    4  H   UNL     1      42.049 -11.551   7.153  1.00  0.00     0.169 HD
ENDROOT
BRANCH   1   5
HETATM    5  C   UNL     1      42.913 -13.229   6.265  1.00  0.00     0.035 A 
HETATM    6  C   UNL     1      42.730 -13.423   4.897  1.00  0.00     0.032 A 
HETATM    7  C   UNL     1      42.786 -14.709   4.346  1.00  0.00     0.039 A 
HETATM    8  C   UNL     1      43.073 -15.816   5.150  1.00  0.00     0.134 A 
HETATM    9  C   UNL     1      43.209 -15.628   6.526  1.00  0.00     0.039 A 
HETATM   10  C   UNL     1      43.106 -14.345   7.081  1.00  0.00     0.032 A 
BRANCH   8  11
HETATM   11  N   UNL     1      43.223 -17.146   4.492  1.00  0.00    -0.042 N 
HETATM   12  H   UNL     1      42.338 -17.627   4.701  1.00  0.00     0.286 HD
BRANCH  11  13
HETATM   13  C   UNL     1      43.307 -17.031   2.982  1.00  0.00     0.237 C 
HETATM   14  C   UNL     1      43.009 -18.352   2.296  1.00  0.00     0.035 C 
ENDBRANCH  11  13
BRANCH  11  15
HETATM   15  C   UNL     1      44.268 -18.041   5.129  1.00  0.00     0.237 C 
HETATM   16  C   UNL     1      43.690 -19.257   5.844  1.00  0.00     0.035 C 
ENDBRANCH  11  15
ENDBRANCH   8  11
ENDBRANCH   1   5
BRANCH   2  17
HETATM   17  C   UNL     1      43.692 -10.068   8.061  1.00  0.00     0.150 A 
HETATM   18  O   UNL     1      43.042  -9.082   7.364  1.00  0.00    -0.304 OA
HETATM   19  C   UNL     1      42.826  -8.054   8.226  1.00  0.00     0.087 A 
HETATM   20  C   UNL     1      43.300  -8.374   9.490  1.00  0.00     0.009 A 
HETATM   21  C   UNL     1      42.214  -6.847   7.903  1.00  0.00     0.041 A 
HETATM   22  C   UNL     1      43.864  -9.682   9.384  1.00  0.00    -0.009 A 
HETATM   23  C   UNL     1      43.135  -7.426  10.517  1.00  0.00     0.051 A 
HETATM   24  C   UNL     1      44.488 -10.485  10.469  1.00  0.00     0.052 C 
HETATM   25  C   UNL     1      42.519  -6.196  10.234  1.00  0.00     0.069 A 
HETATM   26  C   UNL     1      42.070  -5.915   8.941  1.00  0.00     0.039 A 
BRANCH  25  27
HETATM   27  O   UNL     1      42.418  -5.362  11.315  1.00  0.00    -0.356 OA
HETATM   28  C   UNL     1      41.795  -5.884  12.483  1.00  0.00     0.210 C 
ENDBRANCH  25  27
ENDBRANCH   2  17
TORSDOF 6
ENDMDL
