MODEL 1
REMARK VINA RESULT:      -8.6      0.000      0.000
REMARK  13 active torsions:
REMARK  status: ('A' for Active; 'I' for Inactive)
REMARK    1  A    between atoms: O_2  and  C_3 
REMARK    2  A    between atoms: C_6  and  C_7 
REMARK    3  A    between atoms: C_7  and  C_8 
REMARK    4  A    between atoms: C_9  and  C_10 
REMARK    5  A    between atoms: N_17  and  C_18 
REMARK    6  A    between atoms: C_18  and  C_19 
REMARK    7  A    between atoms: C_19  and  O_20 
REMARK    8  A    between atoms: C_19  and  C_21 
REMARK    9  A    between atoms: C_21  and  N_22 
REMARK   10  A    between atoms: N_22  and  C_25 
REMARK   11  A    between atoms: C_25  and  C_26 
REMARK   12  A    between atoms: C_26  and  C_27 
REMARK   13  A    between atoms: C_32  and  O_33 
ROOT
HETATM    1  C   UNL     1      41.220  -9.305   7.510  1.00  0.00     0.162 C 
ENDROOT
BRANCH   1   2
HETATM    2  N   UNL     1      42.256 -10.076   6.840  1.00  0.00    -0.353 N 
HETATM    3  C   UNL     1      43.580 -10.134   7.223  1.00  0.00     0.045 A 
HETATM    4  C   UNL     1      44.212 -11.053   6.371  1.00  0.00     0.002 A 
HETATM    5  C   UNL     1      44.271  -9.476   8.257  1.00  0.00     0.030 A 
HETATM    6  C   UNL     1      43.226 -11.503   5.436  1.00  0.00    -0.008 A 
HETATM    7  C   UNL     1      45.578 -11.336   6.605  1.00  0.00     0.014 A 
HETATM    8  C   UNL     1      42.035 -10.887   5.762  1.00  0.00     0.103 A 
HETATM    9  C   UNL     1      46.270 -10.683   7.630  1.00  0.00     0.001 A 
HETATM   10  C   UNL     1      45.624  -9.760   8.440  1.00  0.00     0.002 A 
BRANCH   6  11
HETATM   11  C   UNL     1      43.323 -12.426   4.348  1.00  0.00     0.018 C 
HETATM   12  C   UNL     1      43.098 -13.749   4.400  1.00  0.00     0.056 C 
BRANCH  12  13
HETATM   13  C   UNL     1      43.213 -14.567   3.160  1.00  0.00     0.182 C 
HETATM   14  O   UNL     1      43.141 -14.051   2.048  1.00  0.00    -0.288 OA
BRANCH  13  15
HETATM   15  C   UNL     1      43.350 -16.046   3.290  1.00  0.00     0.014 A 
HETATM   16  C   UNL     1      43.215 -16.929   2.213  1.00  0.00     0.018 A 
HETATM   17  C   UNL     1      43.402 -18.303   2.408  1.00  0.00     0.037 A 
HETATM   18  C   UNL     1      43.715 -18.814   3.669  1.00  0.00     0.068 A 
HETATM   19  C   UNL     1      43.816 -17.941   4.751  1.00  0.00     0.037 A 
HETATM   20  C   UNL     1      43.632 -16.565   4.562  1.00  0.00     0.018 A 
BRANCH  18  21
HETATM   21  O   UNL     1      43.887 -20.169   3.708  1.00  0.00    -0.356 OA
HETATM   22  C   UNL     1      44.189 -20.743   4.975  1.00  0.00     0.210 C 
ENDBRANCH  18  21
ENDBRANCH  13  15
ENDBRANCH  12  13
ENDBRANCH   6  11
ENDBRANCH   1   2
BRANCH   1  23
HETATM   23  C   UNL     1      39.811  -9.721   7.058  1.00  0.00     0.162 C 
BRANCH  23  24
HETATM   24  O   UNL     1      39.013 -10.120   8.176  1.00  0.00    -0.392 OA
HETATM   25  H   UNL     1      38.065 -10.037   7.939  1.00  0.00     0.210 HD
ENDBRANCH  23  24
BRANCH  23  26
HETATM   26  C   UNL     1      39.053  -8.551   6.401  1.00  0.00     0.265 C 
BRANCH  26  27
HETATM   27  N   UNL     1      38.919  -8.691   4.913  1.00  0.00    -0.072 N 
HETATM   28  H   UNL     1      38.228  -8.036   4.525  1.00  0.00     0.277 HD
HETATM   29  H   UNL     1      39.821  -8.449   4.479  1.00  0.00     0.277 HD
BRANCH  27  30
HETATM   30  C   UNL     1      38.573 -10.085   4.446  1.00  0.00     0.237 C 
BRANCH  30  31
HETATM   31  C   UNL     1      39.480 -10.538   3.300  1.00  0.00     0.068 C 
BRANCH  31  32
HETATM   32  C   UNL     1      39.574 -12.024   3.223  1.00  0.00    -0.029 A 
HETATM   33  C   UNL     1      39.732 -12.807   2.034  1.00  0.00     0.001 A 
HETATM   34  C   UNL     1      39.778 -14.145   2.420  1.00  0.00     0.043 A 
HETATM   35  C   UNL     1      39.844 -12.503   0.663  1.00  0.00     0.051 A 
HETATM   36  C   UNL     1      39.924 -15.191   1.502  1.00  0.00     0.033 A 
HETATM   37  N   UNL     1      39.666 -14.180   3.789  1.00  0.00    -0.365 N 
HETATM   38  C   UNL     1      40.026 -14.859   0.144  1.00  0.00     0.039 A 
HETATM   39  C   UNL     1      39.988 -13.533  -0.279  1.00  0.00     0.069 A 
HETATM   40  H   UNL     1      39.688 -15.027   4.344  1.00  0.00     0.165 HD
HETATM   41  C   UNL     1      39.534 -12.908   4.284  1.00  0.00     0.096 A 
BRANCH  39  42
HETATM   42  O   UNL     1      40.077 -13.098  -1.574  1.00  0.00    -0.356 OA
HETATM   43  C   UNL     1      40.027 -14.091  -2.592  1.00  0.00     0.210 C 
ENDBRANCH  39  42
ENDBRANCH  31  32
ENDBRANCH  30  31
ENDBRANCH  27  30
ENDBRANCH  26  27
ENDBRANCH  23  26
ENDBRANCH   1  23
TORSDOF 13
ENDMDL
MODEL 2
REMARK VINA RESULT:      -8.4      2.780      8.901
REMARK  13 active torsions:
REMARK  status: ('A' for Active; 'I' for Inactive)
REMARK    1  A    between atoms: O_2  and  C_3 
REMARK    2  A    between atoms: C_6  and  C_7 
REMARK    3  A    between atoms: C_7  and  C_8 
REMARK    4  A    between atoms: C_9  and  C_10 
REMARK    5  A    between atoms: N_17  and  C_18 
REMARK    6  A    between atoms: C_18  and  C_19 
REMARK    7  A    between atoms: C_19  and  O_20 
REMARK    8  A    between atoms: C_19  and  C_21 
REMARK    9  A    between atoms: C_21  and  N_22 
REMARK   10  A    between atoms: N_22  and  C_25 
REMARK   11  A    between atoms: C_25  and  C_26 
REMARK   12  A    between atoms: C_26  and  C_27 
REMARK   13  A    between atoms: C_32  and  O_33 
ROOT
HETATM    1  C   UNL     1      44.315 -16.636   6.027  1.00  0.00     0.162 C 
ENDROOT
BRANCH   1   2
HETATM    2  N   UNL     1      43.813 -16.899   4.687  1.00  0.00    -0.353 N 
HETATM    3  C   UNL     1      43.779 -18.134   4.075  1.00  0.00     0.045 A 
HETATM    4  C   UNL     1      43.142 -17.960   2.837  1.00  0.00     0.002 A 
HETATM    5  C   UNL     1      44.232 -19.392   4.512  1.00  0.00     0.030 A 
HETATM    6  C   UNL     1      42.842 -16.566   2.713  1.00  0.00    -0.008 A 
HETATM    7  C   UNL     1      42.928 -19.108   2.039  1.00  0.00     0.014 A 
HETATM    8  C   UNL     1      43.261 -15.948   3.873  1.00  0.00     0.103 A 
HETATM    9  C   UNL     1      43.379 -20.361   2.467  1.00  0.00     0.001 A 
HETATM   10  C   UNL     1      44.029 -20.497   3.686  1.00  0.00     0.002 A 
BRANCH   6  11
HETATM   11  C   UNL     1      42.211 -15.836   1.657  1.00  0.00     0.018 C 
HETATM   12  C   UNL     1      41.129 -15.049   1.766  1.00  0.00     0.056 C 
BRANCH  12  13
HETATM   13  C   UNL     1      40.614 -14.331   0.566  1.00  0.00     0.182 C 
HETATM   14  O   UNL     1      39.979 -14.920  -0.304  1.00  0.00    -0.288 OA
BRANCH  13  15
HETATM   15  C   UNL     1      40.944 -12.886   0.402  1.00  0.00     0.014 A 
HETATM   16  C   UNL     1      41.307 -12.054   1.467  1.00  0.00     0.018 A 
HETATM   17  C   UNL     1      41.645 -10.717   1.226  1.00  0.00     0.037 A 
HETATM   18  C   UNL     1      41.619 -10.191  -0.067  1.00  0.00     0.068 A 
HETATM   19  C   UNL     1      41.224 -11.007  -1.126  1.00  0.00     0.037 A 
HETATM   20  C   UNL     1      40.887 -12.347  -0.891  1.00  0.00     0.018 A 
BRANCH  18  21
HETATM   21  O   UNL     1      41.990  -8.879  -0.157  1.00  0.00    -0.356 OA
HETATM   22  C   UNL     1      42.620  -8.469  -1.365  1.00  0.00     0.210 C 
ENDBRANCH  18  21
ENDBRANCH  13  15
ENDBRANCH  12  13
ENDBRANCH   6  11
ENDBRANCH   1   2
BRANCH   1  23
HETATM   23  C   UNL     1      43.198 -16.685   7.081  1.00  0.00     0.162 C 
BRANCH  23  24
HETATM   24  O   UNL     1      43.743 -16.777   8.399  1.00  0.00    -0.392 OA
HETATM   25  H   UNL     1      43.385 -16.045   8.945  1.00  0.00     0.210 HD
ENDBRANCH  23  24
BRANCH  23  26
HETATM   26  C   UNL     1      42.345 -15.401   7.070  1.00  0.00     0.265 C 
BRANCH  26  27
HETATM   27  N   UNL     1      43.155 -14.149   7.241  1.00  0.00    -0.072 N 
HETATM   28  H   UNL     1      42.875 -13.622   8.078  1.00  0.00     0.277 HD
HETATM   29  H   UNL     1      44.140 -14.413   7.383  1.00  0.00     0.277 HD
BRANCH  27  30
HETATM   30  C   UNL     1      43.122 -13.217   6.053  1.00  0.00     0.237 C 
BRANCH  30  31
HETATM   31  C   UNL     1      42.885 -11.767   6.479  1.00  0.00     0.068 C 
BRANCH  31  32
HETATM   32  C   UNL     1      44.006 -11.245   7.311  1.00  0.00    -0.029 A 
HETATM   33  C   UNL     1      43.888 -10.512   8.536  1.00  0.00     0.001 A 
HETATM   34  C   UNL     1      45.179 -10.227   8.976  1.00  0.00     0.043 A 
HETATM   35  C   UNL     1      42.802 -10.065   9.315  1.00  0.00     0.051 A 
HETATM   36  C   UNL     1      45.434  -9.513  10.153  1.00  0.00     0.033 A 
HETATM   37  N   UNL     1      46.052 -10.774   8.067  1.00  0.00    -0.365 N 
HETATM   38  C   UNL     1      44.335  -9.075  10.904  1.00  0.00     0.039 A 
HETATM   39  C   UNL     1      43.031  -9.345  10.497  1.00  0.00     0.069 A 
HETATM   40  H   UNL     1      47.061 -10.735   8.147  1.00  0.00     0.165 HD
HETATM   41  C   UNL     1      45.357 -11.383   7.054  1.00  0.00     0.096 A 
BRANCH  39  42
HETATM   42  O   UNL     1      41.889  -8.966  11.151  1.00  0.00    -0.356 OA
HETATM   43  C   UNL     1      41.522  -7.594  11.061  1.00  0.00     0.210 C 
ENDBRANCH  39  42
ENDBRANCH  31  32
ENDBRANCH  30  31
ENDBRANCH  27  30
ENDBRANCH  26  27
ENDBRANCH  23  26
ENDBRANCH   1  23
TORSDOF 13
ENDMDL
MODEL 3
REMARK VINA RESULT:      -8.3      0.983      1.349
REMARK  13 active torsions:
REMARK  status: ('A' for Active; 'I' for Inactive)
REMARK    1  A    between atoms: O_2  and  C_3 
REMARK    2  A    between atoms: C_6  and  C_7 
REMARK    3  A    between atoms: C_7  and  C_8 
REMARK    4  A    between atoms: C_9  and  C_10 
REMARK    5  A    between atoms: N_17  and  C_18 
REMARK    6  A    between atoms: C_18  and  C_19 
REMARK    7  A    between atoms: C_19  and  O_20 
REMARK    8  A    between atoms: C_19  and  C_21 
REMARK    9  A    between atoms: C_21  and  N_22 
REMARK   10  A    between atoms: N_22  and  C_25 
REMARK   11  A    between atoms: C_25  and  C_26 
REMARK   12  A    between atoms: C_26  and  C_27 
REMARK   13  A    between atoms: C_32  and  O_33 
ROOT
HETATM    1  C   UNL     1      40.827  -9.934   7.240  1.00  0.00     0.162 C 
ENDROOT
BRANCH   1   2
HETATM    2  N   UNL     1      41.929 -10.640   6.604  1.00  0.00    -0.353 N 
HETATM    3  C   UNL     1      43.254 -10.552   6.977  1.00  0.00     0.045 A 
HETATM    4  C   UNL     1      43.966 -11.453   6.171  1.00  0.00     0.002 A 
HETATM    5  C   UNL     1      43.883  -9.777   7.969  1.00  0.00     0.030 A 
HETATM    6  C   UNL     1      43.024 -12.043   5.270  1.00  0.00    -0.008 A 
HETATM    7  C   UNL     1      45.353 -11.594   6.408  1.00  0.00     0.014 A 
HETATM    8  C   UNL     1      41.781 -11.525   5.572  1.00  0.00     0.103 A 
HETATM    9  C   UNL     1      45.985 -10.824   7.391  1.00  0.00     0.001 A 
HETATM   10  C   UNL     1      45.257  -9.923   8.156  1.00  0.00     0.002 A 
BRANCH   6  11
HETATM   11  C   UNL     1      43.203 -13.012   4.232  1.00  0.00     0.018 C 
HETATM   12  C   UNL     1      42.735 -14.269   4.224  1.00  0.00     0.056 C 
BRANCH  12  13
HETATM   13  C   UNL     1      42.987 -15.143   3.043  1.00  0.00     0.182 C 
HETATM   14  O   UNL     1      42.879 -14.713   1.898  1.00  0.00    -0.288 OA
BRANCH  13  15
HETATM   15  C   UNL     1      43.309 -16.581   3.275  1.00  0.00     0.014 A 
HETATM   16  C   UNL     1      43.888 -17.059   4.456  1.00  0.00     0.018 A 
HETATM   17  C   UNL     1      44.120 -18.430   4.615  1.00  0.00     0.037 A 
HETATM   18  C   UNL     1      43.791 -19.337   3.606  1.00  0.00     0.068 A 
HETATM   19  C   UNL     1      43.247 -18.860   2.414  1.00  0.00     0.037 A 
HETATM   20  C   UNL     1      43.010 -17.489   2.249  1.00  0.00     0.018 A 
BRANCH  18  21
HETATM   21  O   UNL     1      44.056 -20.644   3.904  1.00  0.00    -0.356 OA
HETATM   22  C   UNL     1      44.302 -20.955   5.270  1.00  0.00     0.210 C 
ENDBRANCH  18  21
ENDBRANCH  13  15
ENDBRANCH  12  13
ENDBRANCH   6  11
ENDBRANCH   1   2
BRANCH   1  23
HETATM   23  C   UNL     1      39.462 -10.518   6.840  1.00  0.00     0.162 C 
BRANCH  23  24
HETATM   24  O   UNL     1      38.703 -10.880   7.997  1.00  0.00    -0.392 OA
HETATM   25  H   UNL     1      38.879 -11.819   8.215  1.00  0.00     0.210 HD
ENDBRANCH  23  24
BRANCH  23  26
HETATM   26  C   UNL     1      38.601  -9.491   6.080  1.00  0.00     0.265 C 
BRANCH  26  27
HETATM   27  N   UNL     1      39.040  -9.282   4.661  1.00  0.00    -0.072 N 
HETATM   28  H   UNL     1      38.637  -8.428   4.255  1.00  0.00     0.277 HD
HETATM   29  H   UNL     1      40.062  -9.151   4.650  1.00  0.00     0.277 HD
BRANCH  27  30
HETATM   30  C   UNL     1      38.741 -10.440   3.738  1.00  0.00     0.237 C 
BRANCH  30  31
HETATM   31  C   UNL     1      39.950 -10.800   2.873  1.00  0.00     0.068 C 
BRANCH  31  32
HETATM   32  C   UNL     1      39.823 -12.163   2.285  1.00  0.00    -0.029 A 
HETATM   33  C   UNL     1      39.999 -12.516   0.908  1.00  0.00     0.001 A 
HETATM   34  C   UNL     1      39.792 -13.890   0.801  1.00  0.00     0.043 A 
HETATM   35  C   UNL     1      40.317 -11.796  -0.261  1.00  0.00     0.051 A 
HETATM   36  C   UNL     1      39.884 -14.574  -0.417  1.00  0.00     0.033 A 
HETATM   37  N   UNL     1      39.516 -14.362   2.061  1.00  0.00    -0.365 N 
HETATM   38  C   UNL     1      40.195 -13.831  -1.564  1.00  0.00     0.039 A 
HETATM   39  C   UNL     1      40.412 -12.457  -1.495  1.00  0.00     0.069 A 
HETATM   40  H   UNL     1      39.341 -15.334   2.283  1.00  0.00     0.165 HD
HETATM   41  C   UNL     1      39.523 -13.329   2.963  1.00  0.00     0.096 A 
BRANCH  39  42
HETATM   42  O   UNL     1      40.719 -11.637  -2.547  1.00  0.00    -0.356 OA
HETATM   43  C   UNL     1      39.641 -10.929  -3.147  1.00  0.00     0.210 C 
ENDBRANCH  39  42
ENDBRANCH  31  32
ENDBRANCH  30  31
ENDBRANCH  27  30
ENDBRANCH  26  27
ENDBRANCH  23  26
ENDBRANCH   1  23
TORSDOF 13
ENDMDL
MODEL 4
REMARK VINA RESULT:      -8.2      2.729      6.973
REMARK  13 active torsions:
REMARK  status: ('A' for Active; 'I' for Inactive)
REMARK    1  A    between atoms: O_2  and  C_3 
REMARK    2  A    between atoms: C_6  and  C_7 
REMARK    3  A    between atoms: C_7  and  C_8 
REMARK    4  A    between atoms: C_9  and  C_10 
REMARK    5  A    between atoms: N_17  and  C_18 
REMARK    6  A    between atoms: C_18  and  C_19 
REMARK    7  A    between atoms: C_19  and  O_20 
REMARK    8  A    between atoms: C_19  and  C_21 
REMARK    9  A    between atoms: C_21  and  N_22 
REMARK   10  A    between atoms: N_22  and  C_25 
REMARK   11  A    between atoms: C_25  and  C_26 
REMARK   12  A    between atoms: C_26  and  C_27 
REMARK   13  A    between atoms: C_32  and  O_33 
ROOT
HETATM    1  C   UNL     1      43.742 -15.524   5.778  1.00  0.00     0.162 C 
ENDROOT
BRANCH   1   2
HETATM    2  N   UNL     1      43.231 -16.068   4.528  1.00  0.00    -0.353 N 
HETATM    3  C   UNL     1      43.521 -17.318   4.023  1.00  0.00     0.045 A 
HETATM    4  C   UNL     1      42.758 -17.475   2.857  1.00  0.00     0.002 A 
HETATM    5  C   UNL     1      44.370 -18.332   4.504  1.00  0.00     0.030 A 
HETATM    6  C   UNL     1      42.040 -16.252   2.658  1.00  0.00    -0.008 A 
HETATM    7  C   UNL     1      42.835 -18.715   2.181  1.00  0.00     0.014 A 
HETATM    8  C   UNL     1      42.349 -15.415   3.711  1.00  0.00     0.103 A 
HETATM    9  C   UNL     1      43.679 -19.726   2.652  1.00  0.00     0.001 A 
HETATM   10  C   UNL     1      44.441 -19.531   3.797  1.00  0.00     0.002 A 
BRANCH   6  11
HETATM   11  C   UNL     1      41.129 -15.860   1.627  1.00  0.00     0.018 C 
HETATM   12  C   UNL     1      41.160 -14.715   0.928  1.00  0.00     0.056 C 
BRANCH  12  13
HETATM   13  C   UNL     1      40.149 -14.475  -0.140  1.00  0.00     0.182 C 
HETATM   14  O   UNL     1      39.396 -15.369  -0.517  1.00  0.00    -0.288 OA
BRANCH  13  15
HETATM   15  C   UNL     1      40.110 -13.138  -0.799  1.00  0.00     0.014 A 
HETATM   16  C   UNL     1      39.142 -12.772  -1.742  1.00  0.00     0.018 A 
HETATM   17  C   UNL     1      39.147 -11.482  -2.285  1.00  0.00     0.037 A 
HETATM   18  C   UNL     1      40.112 -10.547  -1.907  1.00  0.00     0.068 A 
HETATM   19  C   UNL     1      41.099 -10.918  -0.995  1.00  0.00     0.037 A 
HETATM   20  C   UNL     1      41.098 -12.208  -0.447  1.00  0.00     0.018 A 
BRANCH  18  21
HETATM   21  O   UNL     1      39.985  -9.323  -2.502  1.00  0.00    -0.356 OA
HETATM   22  C   UNL     1      41.184  -8.684  -2.924  1.00  0.00     0.210 C 
ENDBRANCH  18  21
ENDBRANCH  13  15
ENDBRANCH  12  13
ENDBRANCH   6  11
ENDBRANCH   1   2
BRANCH   1  23
HETATM   23  C   UNL     1      42.795 -14.476   6.380  1.00  0.00     0.162 C 
BRANCH  23  24
HETATM   24  O   UNL     1      42.808 -14.536   7.809  1.00  0.00    -0.392 OA
HETATM   25  H   UNL     1      42.398 -15.379   8.098  1.00  0.00     0.210 HD
ENDBRANCH  23  24
BRANCH  23  26
HETATM   26  C   UNL     1      43.226 -13.041   6.020  1.00  0.00     0.265 C 
BRANCH  26  27
HETATM   27  N   UNL     1      42.435 -11.985   6.734  1.00  0.00    -0.072 N 
HETATM   28  H   UNL     1      42.067 -12.322   7.633  1.00  0.00     0.277 HD
HETATM   29  H   UNL     1      43.062 -11.198   6.955  1.00  0.00     0.277 HD
BRANCH  27  30
HETATM   30  C   UNL     1      41.289 -11.413   5.932  1.00  0.00     0.237 C 
BRANCH  30  31
HETATM   31  C   UNL     1      41.548 -11.514   4.427  1.00  0.00     0.068 C 
BRANCH  31  32
HETATM   32  C   UNL     1      40.323 -11.916   3.681  1.00  0.00    -0.029 A 
HETATM   33  C   UNL     1      39.581 -11.107   2.762  1.00  0.00     0.001 A 
HETATM   34  C   UNL     1      38.517 -11.876   2.294  1.00  0.00     0.043 A 
HETATM   35  C   UNL     1      39.714  -9.789   2.280  1.00  0.00     0.051 A 
HETATM   36  C   UNL     1      37.581 -11.389   1.375  1.00  0.00     0.033 A 
HETATM   37  N   UNL     1      38.611 -13.110   2.891  1.00  0.00    -0.365 N 
HETATM   38  C   UNL     1      37.735 -10.073   0.918  1.00  0.00     0.039 A 
HETATM   39  C   UNL     1      38.788  -9.276   1.360  1.00  0.00     0.069 A 
HETATM   40  H   UNL     1      37.975 -13.879   2.719  1.00  0.00     0.165 HD
HETATM   41  C   UNL     1      39.691 -13.144   3.735  1.00  0.00     0.096 A 
BRANCH  39  42
HETATM   42  O   UNL     1      39.032  -7.983   0.982  1.00  0.00    -0.356 OA
HETATM   43  C   UNL     1      38.268  -7.475  -0.105  1.00  0.00     0.210 C 
ENDBRANCH  39  42
ENDBRANCH  31  32
ENDBRANCH  30  31
ENDBRANCH  27  30
ENDBRANCH  26  27
ENDBRANCH  23  26
ENDBRANCH   1  23
TORSDOF 13
ENDMDL
MODEL 5
REMARK VINA RESULT:      -8.0      2.714      7.573
REMARK  13 active torsions:
REMARK  status: ('A' for Active; 'I' for Inactive)
REMARK    1  A    between atoms: O_2  and  C_3 
REMARK    2  A    between atoms: C_6  and  C_7 
REMARK    3  A    between atoms: C_7  and  C_8 
REMARK    4  A    between atoms: C_9  and  C_10 
REMARK    5  A    between atoms: N_17  and  C_18 
REMARK    6  A    between atoms: C_18  and  C_19 
REMARK    7  A    between atoms: C_19  and  O_20 
REMARK    8  A    between atoms: C_19  and  C_21 
REMARK    9  A    between atoms: C_21  and  N_22 
REMARK   10  A    between atoms: N_22  and  C_25 
REMARK   11  A    between atoms: C_25  and  C_26 
REMARK   12  A    between atoms: C_26  and  C_27 
REMARK   13  A    between atoms: C_32  and  O_33 
ROOT
HETATM    1  C   UNL     1      42.204 -16.430   6.214  1.00  0.00     0.162 C 
ENDROOT
BRANCH   1   2
HETATM    2  N   UNL     1      42.367 -14.984   6.263  1.00  0.00    -0.353 N 
HETATM    3  C   UNL     1      41.565 -14.068   5.616  1.00  0.00     0.045 A 
HETATM    4  C   UNL     1      42.009 -12.794   5.998  1.00  0.00     0.002 A 
HETATM    5  C   UNL     1      40.473 -14.250   4.746  1.00  0.00     0.030 A 
HETATM    6  C   UNL     1      43.137 -12.984   6.859  1.00  0.00    -0.008 A 
HETATM    7  C   UNL     1      41.297 -11.674   5.510  1.00  0.00     0.014 A 
HETATM    8  C   UNL     1      43.321 -14.344   7.005  1.00  0.00     0.103 A 
HETATM    9  C   UNL     1      40.213 -11.848   4.643  1.00  0.00     0.001 A 
HETATM   10  C   UNL     1      39.812 -13.122   4.262  1.00  0.00     0.002 A 
BRANCH   6  11
HETATM   11  C   UNL     1      43.978 -12.036   7.522  1.00  0.00     0.018 C 
HETATM   12  C   UNL     1      44.833 -11.182   6.938  1.00  0.00     0.056 C 
BRANCH  12  13
HETATM   13  C   UNL     1      45.616 -10.232   7.778  1.00  0.00     0.182 C 
HETATM   14  O   UNL     1      46.828 -10.101   7.631  1.00  0.00    -0.288 OA
BRANCH  13  15
HETATM   15  C   UNL     1      44.909  -9.484   8.858  1.00  0.00     0.014 A 
HETATM   16  C   UNL     1      44.202  -8.297   8.637  1.00  0.00     0.018 A 
HETATM   17  C   UNL     1      43.527  -7.677   9.695  1.00  0.00     0.037 A 
HETATM   18  C   UNL     1      43.554  -8.221  10.981  1.00  0.00     0.068 A 
HETATM   19  C   UNL     1      44.286  -9.383  11.213  1.00  0.00     0.037 A 
HETATM   20  C   UNL     1      44.962 -10.010  10.157  1.00  0.00     0.018 A 
BRANCH  18  21
HETATM   21  O   UNL     1      42.838  -7.521  11.911  1.00  0.00    -0.356 OA
HETATM   22  C   UNL     1      43.197  -7.707  13.274  1.00  0.00     0.210 C 
ENDBRANCH  18  21
ENDBRANCH  13  15
ENDBRANCH  12  13
ENDBRANCH   6  11
ENDBRANCH   1   2
BRANCH   1  23
HETATM   23  C   UNL     1      43.512 -17.168   6.536  1.00  0.00     0.162 C 
BRANCH  23  24
HETATM   24  O   UNL     1      43.256 -18.354   7.293  1.00  0.00    -0.392 OA
HETATM   25  H   UNL     1      42.296 -18.550   7.267  1.00  0.00     0.210 HD
ENDBRANCH  23  24
BRANCH  23  26
HETATM   26  C   UNL     1      44.233 -17.637   5.257  1.00  0.00     0.265 C 
BRANCH  26  27
HETATM   27  N   UNL     1      43.305 -18.212   4.228  1.00  0.00    -0.072 N 
HETATM   28  H   UNL     1      43.317 -19.240   4.230  1.00  0.00     0.277 HD
HETATM   29  H   UNL     1      42.341 -17.935   4.465  1.00  0.00     0.277 HD
BRANCH  27  30
HETATM   30  C   UNL     1      43.560 -17.731   2.819  1.00  0.00     0.237 C 
BRANCH  30  31
HETATM   31  C   UNL     1      42.309 -17.105   2.200  1.00  0.00     0.068 C 
BRANCH  31  32
HETATM   32  C   UNL     1      42.423 -15.622   2.103  1.00  0.00    -0.029 A 
HETATM   33  C   UNL     1      41.618 -14.757   1.293  1.00  0.00     0.001 A 
HETATM   34  C   UNL     1      42.061 -13.454   1.508  1.00  0.00     0.043 A 
HETATM   35  C   UNL     1      40.550 -14.960   0.396  1.00  0.00     0.051 A 
HETATM   36  C   UNL     1      41.491 -12.348   0.868  1.00  0.00     0.033 A 
HETATM   37  N   UNL     1      43.085 -13.515   2.423  1.00  0.00    -0.365 N 
HETATM   38  C   UNL     1      40.436 -12.580  -0.025  1.00  0.00     0.039 A 
HETATM   39  C   UNL     1      39.964 -13.868  -0.262  1.00  0.00     0.069 A 
HETATM   40  H   UNL     1      43.583 -12.709   2.780  1.00  0.00     0.165 HD
HETATM   41  C   UNL     1      43.318 -14.818   2.782  1.00  0.00     0.096 A 
BRANCH  39  42
HETATM   42  O   UNL     1      38.944 -14.209  -1.110  1.00  0.00    -0.356 OA
HETATM   43  C   UNL     1      39.018 -13.708  -2.440  1.00  0.00     0.210 C 
ENDBRANCH  39  42
ENDBRANCH  31  32
ENDBRANCH  30  31
ENDBRANCH  27  30
ENDBRANCH  26  27
ENDBRANCH  23  26
ENDBRANCH   1  23
TORSDOF 13
ENDMDL
MODEL 6
REMARK VINA RESULT:      -7.9      3.228      9.431
REMARK  13 active torsions:
REMARK  status: ('A' for Active; 'I' for Inactive)
REMARK    1  A    between atoms: O_2  and  C_3 
REMARK    2  A    between atoms: C_6  and  C_7 
REMARK    3  A    between atoms: C_7  and  C_8 
REMARK    4  A    between atoms: C_9  and  C_10 
REMARK    5  A    between atoms: N_17  and  C_18 
REMARK    6  A    between atoms: C_18  and  C_19 
REMARK    7  A    between atoms: C_19  and  O_20 
REMARK    8  A    between atoms: C_19  and  C_21 
REMARK    9  A    between atoms: C_21  and  N_22 
REMARK   10  A    between atoms: N_22  and  C_25 
REMARK   11  A    between atoms: C_25  and  C_26 
REMARK   12  A    between atoms: C_26  and  C_27 
REMARK   13  A    between atoms: C_32  and  O_33 
ROOT
HETATM    1  C   UNL     1      43.443 -14.812   5.940  1.00  0.00     0.162 C 
ENDROOT
BRANCH   1   2
HETATM    2  N   UNL     1      43.193 -15.379   4.623  1.00  0.00    -0.353 N 
HETATM    3  C   UNL     1      43.525 -16.658   4.229  1.00  0.00     0.045 A 
HETATM    4  C   UNL     1      43.031 -16.826   2.927  1.00  0.00     0.002 A 
HETATM    5  C   UNL     1      44.195 -17.689   4.913  1.00  0.00     0.030 A 
HETATM    6  C   UNL     1      42.436 -15.581   2.541  1.00  0.00    -0.008 A 
HETATM    7  C   UNL     1      43.193 -18.092   2.318  1.00  0.00     0.014 A 
HETATM    8  C   UNL     1      42.547 -14.720   3.614  1.00  0.00     0.103 A 
HETATM    9  C   UNL     1      43.861 -19.120   2.992  1.00  0.00     0.001 A 
HETATM   10  C   UNL     1      44.361 -18.916   4.271  1.00  0.00     0.002 A 
BRANCH   6  11
HETATM   11  C   UNL     1      41.796 -15.189   1.324  1.00  0.00     0.018 C 
HETATM   12  C   UNL     1      40.487 -14.945   1.152  1.00  0.00     0.056 C 
BRANCH  12  13
HETATM   13  C   UNL     1      39.986 -14.513  -0.183  1.00  0.00     0.182 C 
HETATM   14  O   UNL     1      39.306 -15.261  -0.880  1.00  0.00    -0.288 OA
BRANCH  13  15
HETATM   15  C   UNL     1      40.383 -13.169  -0.694  1.00  0.00     0.014 A 
HETATM   16  C   UNL     1      40.509 -12.041   0.124  1.00  0.00     0.018 A 
HETATM   17  C   UNL     1      40.929 -10.823  -0.424  1.00  0.00     0.037 A 
HETATM   18  C   UNL     1      41.220 -10.710  -1.784  1.00  0.00     0.068 A 
HETATM   19  C   UNL     1      41.062 -11.823  -2.609  1.00  0.00     0.037 A 
HETATM   20  C   UNL     1      40.644 -13.045  -2.066  1.00  0.00     0.018 A 
BRANCH  18  21
HETATM   21  O   UNL     1      41.636  -9.469  -2.178  1.00  0.00    -0.356 OA
HETATM   22  C   UNL     1      41.067  -8.947  -3.372  1.00  0.00     0.210 C 
ENDBRANCH  18  21
ENDBRANCH  13  15
ENDBRANCH  12  13
ENDBRANCH   6  11
ENDBRANCH   1   2
BRANCH   1  23
HETATM   23  C   UNL     1      43.165 -13.301   5.979  1.00  0.00     0.162 C 
BRANCH  23  24
HETATM   24  O   UNL     1      41.987 -13.018   6.738  1.00  0.00    -0.392 OA
HETATM   25  H   UNL     1      41.896 -13.685   7.451  1.00  0.00     0.210 HD
ENDBRANCH  23  24
BRANCH  23  26
HETATM   26  C   UNL     1      44.304 -12.528   6.672  1.00  0.00     0.265 C 
BRANCH  26  27
HETATM   27  N   UNL     1      43.827 -11.336   7.447  1.00  0.00    -0.072 N 
HETATM   28  H   UNL     1      43.487 -10.586   6.831  1.00  0.00     0.277 HD
HETATM   29  H   UNL     1      43.022 -11.620   8.024  1.00  0.00     0.277 HD
BRANCH  27  30
HETATM   30  C   UNL     1      44.852 -10.753   8.391  1.00  0.00     0.237 C 
BRANCH  30  31
HETATM   31  C   UNL     1      44.316  -9.517   9.115  1.00  0.00     0.068 C 
BRANCH  31  32
HETATM   32  C   UNL     1      43.799  -9.851  10.472  1.00  0.00    -0.029 A 
HETATM   33  C   UNL     1      43.218  -8.939  11.411  1.00  0.00     0.001 A 
HETATM   34  C   UNL     1      42.870  -9.673  12.544  1.00  0.00     0.043 A 
HETATM   35  C   UNL     1      42.951  -7.555  11.405  1.00  0.00     0.051 A 
HETATM   36  C   UNL     1      42.276  -9.089  13.668  1.00  0.00     0.033 A 
HETATM   37  N   UNL     1      43.211 -10.982  12.304  1.00  0.00    -0.365 N 
HETATM   38  C   UNL     1      42.029  -7.709  13.636  1.00  0.00     0.039 A 
HETATM   39  C   UNL     1      42.359  -6.945  12.520  1.00  0.00     0.069 A 
HETATM   40  H   UNL     1      43.053 -11.743  12.953  1.00  0.00     0.165 HD
HETATM   41  C   UNL     1      43.779 -11.101  11.062  1.00  0.00     0.096 A 
BRANCH  39  42
HETATM   42  O   UNL     1      42.165  -5.596  12.382  1.00  0.00    -0.356 OA
HETATM   43  C   UNL     1      41.411  -5.168  11.253  1.00  0.00     0.210 C 
ENDBRANCH  39  42
ENDBRANCH  31  32
ENDBRANCH  30  31
ENDBRANCH  27  30
ENDBRANCH  26  27
ENDBRANCH  23  26
ENDBRANCH   1  23
TORSDOF 13
ENDMDL
MODEL 7
REMARK VINA RESULT:      -7.8      2.937      7.150
REMARK  13 active torsions:
REMARK  status: ('A' for Active; 'I' for Inactive)
REMARK    1  A    between atoms: O_2  and  C_3 
REMARK    2  A    between atoms: C_6  and  C_7 
REMARK    3  A    between atoms: C_7  and  C_8 
REMARK    4  A    between atoms: C_9  and  C_10 
REMARK    5  A    between atoms: N_17  and  C_18 
REMARK    6  A    between atoms: C_18  and  C_19 
REMARK    7  A    between atoms: C_19  and  O_20 
REMARK    8  A    between atoms: C_19  and  C_21 
REMARK    9  A    between atoms: C_21  and  N_22 
REMARK   10  A    between atoms: N_22  and  C_25 
REMARK   11  A    between atoms: C_25  and  C_26 
REMARK   12  A    between atoms: C_26  and  C_27 
REMARK   13  A    between atoms: C_32  and  O_33 
ROOT
HETATM    1  C   UNL     1      41.506 -14.483   5.784  1.00  0.00     0.162 C 
ENDROOT
BRANCH   1   2
HETATM    2  N   UNL     1      41.558 -15.107   4.470  1.00  0.00    -0.353 N 
HETATM    3  C   UNL     1      42.331 -16.198   4.135  1.00  0.00     0.045 A 
HETATM    4  C   UNL     1      42.018 -16.529   2.808  1.00  0.00     0.002 A 
HETATM    5  C   UNL     1      43.260 -16.937   4.891  1.00  0.00     0.030 A 
HETATM    6  C   UNL     1      41.066 -15.563   2.349  1.00  0.00    -0.008 A 
HETATM    7  C   UNL     1      42.643 -17.668   2.248  1.00  0.00     0.014 A 
HETATM    8  C   UNL     1      40.801 -14.711   3.402  1.00  0.00     0.103 A 
HETATM    9  C   UNL     1      43.569 -18.404   2.993  1.00  0.00     0.001 A 
HETATM   10  C   UNL     1      43.877 -18.037   4.296  1.00  0.00     0.002 A 
BRANCH   6  11
HETATM   11  C   UNL     1      40.420 -15.417   1.082  1.00  0.00     0.018 C 
HETATM   12  C   UNL     1      40.278 -14.279   0.384  1.00  0.00     0.056 C 
BRANCH  12  13
HETATM   13  C   UNL     1      39.602 -14.306  -0.944  1.00  0.00     0.182 C 
HETATM   14  O   UNL     1      39.126 -15.345  -1.395  1.00  0.00    -0.288 OA
BRANCH  13  15
HETATM   15  C   UNL     1      39.571 -13.055  -1.755  1.00  0.00     0.014 A 
HETATM   16  C   UNL     1      40.692 -12.538  -2.414  1.00  0.00     0.018 A 
HETATM   17  C   UNL     1      40.573 -11.382  -3.194  1.00  0.00     0.037 A 
HETATM   18  C   UNL     1      39.348 -10.723  -3.320  1.00  0.00     0.068 A 
HETATM   19  C   UNL     1      38.238 -11.215  -2.637  1.00  0.00     0.037 A 
HETATM   20  C   UNL     1      38.350 -12.374  -1.857  1.00  0.00     0.018 A 
BRANCH  18  21
HETATM   21  O   UNL     1      39.374  -9.619  -4.126  1.00  0.00    -0.356 OA
HETATM   22  C   UNL     1      38.119  -9.090  -4.534  1.00  0.00     0.210 C 
ENDBRANCH  18  21
ENDBRANCH  13  15
ENDBRANCH  12  13
ENDBRANCH   6  11
ENDBRANCH   1   2
BRANCH   1  23
HETATM   23  C   UNL     1      40.753 -13.144   5.757  1.00  0.00     0.162 C 
BRANCH  23  24
HETATM   24  O   UNL     1      39.891 -13.019   6.891  1.00  0.00    -0.392 OA
HETATM   25  H   UNL     1      40.154 -13.679   7.567  1.00  0.00     0.210 HD
ENDBRANCH  23  24
BRANCH  23  26
HETATM   26  C   UNL     1      41.717 -11.944   5.831  1.00  0.00     0.265 C 
BRANCH  26  27
HETATM   27  N   UNL     1      42.868 -12.047   4.874  1.00  0.00    -0.072 N 
HETATM   28  H   UNL     1      43.773 -11.923   5.345  1.00  0.00     0.277 HD
HETATM   29  H   UNL     1      42.879 -12.997   4.475  1.00  0.00     0.277 HD
BRANCH  27  30
HETATM   30  C   UNL     1      42.798 -11.088   3.709  1.00  0.00     0.237 C 
BRANCH  30  31
HETATM   31  C   UNL     1      42.168 -11.742   2.477  1.00  0.00     0.068 C 
BRANCH  31  32
HETATM   32  C   UNL     1      40.889 -11.081   2.094  1.00  0.00    -0.029 A 
HETATM   33  C   UNL     1      40.705 -10.126   1.042  1.00  0.00     0.001 A 
HETATM   34  C   UNL     1      39.357  -9.773   1.031  1.00  0.00     0.043 A 
HETATM   35  C   UNL     1      41.559  -9.528   0.094  1.00  0.00     0.051 A 
HETATM   36  C   UNL     1      38.826  -8.850   0.123  1.00  0.00     0.033 A 
HETATM   37  N   UNL     1      38.737 -10.492   2.024  1.00  0.00    -0.365 N 
HETATM   38  C   UNL     1      39.700  -8.266  -0.804  1.00  0.00     0.039 A 
HETATM   39  C   UNL     1      41.053  -8.597  -0.825  1.00  0.00     0.069 A 
HETATM   40  H   UNL     1      37.747 -10.448   2.231  1.00  0.00     0.165 HD
HETATM   41  C   UNL     1      39.652 -11.278   2.678  1.00  0.00     0.096 A 
BRANCH  39  42
HETATM   42  O   UNL     1      41.992  -8.089  -1.682  1.00  0.00    -0.356 OA
HETATM   43  C   UNL     1      41.928  -6.694  -1.954  1.00  0.00     0.210 C 
ENDBRANCH  39  42
ENDBRANCH  31  32
ENDBRANCH  30  31
ENDBRANCH  27  30
ENDBRANCH  26  27
ENDBRANCH  23  26
ENDBRANCH   1  23
TORSDOF 13
ENDMDL
MODEL 8
REMARK VINA RESULT:      -7.6      2.859      6.661
REMARK  13 active torsions:
REMARK  status: ('A' for Active; 'I' for Inactive)
REMARK    1  A    between atoms: O_2  and  C_3 
REMARK    2  A    between atoms: C_6  and  C_7 
REMARK    3  A    between atoms: C_7  and  C_8 
REMARK    4  A    between atoms: C_9  and  C_10 
REMARK    5  A    between atoms: N_17  and  C_18 
REMARK    6  A    between atoms: C_18  and  C_19 
REMARK    7  A    between atoms: C_19  and  O_20 
REMARK    8  A    between atoms: C_19  and  C_21 
REMARK    9  A    between atoms: C_21  and  N_22 
REMARK   10  A    between atoms: N_22  and  C_25 
REMARK   11  A    between atoms: C_25  and  C_26 
REMARK   12  A    between atoms: C_26  and  C_27 
REMARK   13  A    between atoms: C_32  and  O_33 
ROOT
HETATM    1  C   UNL     1      40.810  -9.667   7.436  1.00  0.00     0.162 C 
ENDROOT
BRANCH   1   2
HETATM    2  N   UNL     1      41.888 -10.384   6.770  1.00  0.00    -0.353 N 
HETATM    3  C   UNL     1      43.222 -10.316   7.112  1.00  0.00     0.045 A 
HETATM    4  C   UNL     1      43.903 -11.221   6.285  1.00  0.00     0.002 A 
HETATM    5  C   UNL     1      43.884  -9.555   8.094  1.00  0.00     0.030 A 
HETATM    6  C   UNL     1      42.932 -11.794   5.402  1.00  0.00    -0.008 A 
HETATM    7  C   UNL     1      45.294 -11.381   6.488  1.00  0.00     0.014 A 
HETATM    8  C   UNL     1      41.704 -11.261   5.737  1.00  0.00     0.103 A 
HETATM    9  C   UNL     1      45.958 -10.626   7.459  1.00  0.00     0.001 A 
HETATM   10  C   UNL     1      45.261  -9.720   8.247  1.00  0.00     0.002 A 
BRANCH   6  11
HETATM   11  C   UNL     1      43.074 -12.758   4.356  1.00  0.00     0.018 C 
HETATM   12  C   UNL     1      42.818 -14.073   4.441  1.00  0.00     0.056 C 
BRANCH  12  13
HETATM   13  C   UNL     1      42.990 -14.938   3.239  1.00  0.00     0.182 C 
HETATM   14  O   UNL     1      42.802 -14.500   2.108  1.00  0.00    -0.288 OA
BRANCH  13  15
HETATM   15  C   UNL     1      43.331 -16.376   3.438  1.00  0.00     0.014 A 
HETATM   16  C   UNL     1      43.792 -16.897   4.652  1.00  0.00     0.018 A 
HETATM   17  C   UNL     1      44.050 -18.267   4.772  1.00  0.00     0.037 A 
HETATM   18  C   UNL     1      43.863 -19.131   3.691  1.00  0.00     0.068 A 
HETATM   19  C   UNL     1      43.438 -18.610   2.470  1.00  0.00     0.037 A 
HETATM   20  C   UNL     1      43.176 -17.240   2.345  1.00  0.00     0.018 A 
BRANCH  18  21
HETATM   21  O   UNL     1      44.135 -20.444   3.956  1.00  0.00    -0.356 OA
HETATM   22  C   UNL     1      44.161 -20.833   5.324  1.00  0.00     0.210 C 
ENDBRANCH  18  21
ENDBRANCH  13  15
ENDBRANCH  12  13
ENDBRANCH   6  11
ENDBRANCH   1   2
BRANCH   1  23
HETATM   23  C   UNL     1      39.957  -8.860   6.445  1.00  0.00     0.162 C 
BRANCH  23  24
HETATM   24  O   UNL     1      38.581  -9.235   6.532  1.00  0.00    -0.392 OA
HETATM   25  H   UNL     1      38.038  -8.431   6.678  1.00  0.00     0.210 HD
ENDBRANCH  23  24
BRANCH  23  26
HETATM   26  C   UNL     1      39.998  -7.350   6.753  1.00  0.00     0.265 C 
BRANCH  26  27
HETATM   27  N   UNL     1      38.648  -6.768   7.053  1.00  0.00    -0.072 N 
HETATM   28  H   UNL     1      38.388  -6.033   6.382  1.00  0.00     0.277 HD
HETATM   29  H   UNL     1      37.942  -7.511   6.954  1.00  0.00     0.277 HD
BRANCH  27  30
HETATM   30  C   UNL     1      38.503  -6.215   8.451  1.00  0.00     0.237 C 
BRANCH  30  31
HETATM   31  C   UNL     1      39.777  -6.418   9.274  1.00  0.00     0.068 C 
BRANCH  31  32
HETATM   32  C   UNL     1      39.504  -7.145  10.546  1.00  0.00    -0.029 A 
HETATM   33  C   UNL     1      40.408  -8.011  11.242  1.00  0.00     0.001 A 
HETATM   34  C   UNL     1      39.749  -8.471  12.380  1.00  0.00     0.043 A 
HETATM   35  C   UNL     1      41.729  -8.446  11.013  1.00  0.00     0.051 A 
HETATM   36  C   UNL     1      40.344  -9.348  13.294  1.00  0.00     0.033 A 
HETATM   37  N   UNL     1      38.499  -7.900  12.389  1.00  0.00    -0.365 N 
HETATM   38  C   UNL     1      41.656  -9.770  13.038  1.00  0.00     0.039 A 
HETATM   39  C   UNL     1      42.347  -9.328  11.913  1.00  0.00     0.069 A 
HETATM   40  H   UNL     1      37.808  -8.045  13.115  1.00  0.00     0.165 HD
HETATM   41  C   UNL     1      38.337  -7.105  11.283  1.00  0.00     0.096 A 
BRANCH  39  42
HETATM   42  O   UNL     1      43.625  -9.675  11.565  1.00  0.00    -0.356 OA
HETATM   43  C   UNL     1      43.926 -11.065  11.526  1.00  0.00     0.210 C 
ENDBRANCH  39  42
ENDBRANCH  31  32
ENDBRANCH  30  31
ENDBRANCH  27  30
ENDBRANCH  26  27
ENDBRANCH  23  26
ENDBRANCH   1  23
TORSDOF 13
ENDMDL
MODEL 9
REMARK VINA RESULT:      -7.4     16.928     19.942
REMARK  13 active torsions:
REMARK  status: ('A' for Active; 'I' for Inactive)
REMARK    1  A    between atoms: O_2  and  C_3 
REMARK    2  A    between atoms: C_6  and  C_7 
REMARK    3  A    between atoms: C_7  and  C_8 
REMARK    4  A    between atoms: C_9  and  C_10 
REMARK    5  A    between atoms: N_17  and  C_18 
REMARK    6  A    between atoms: C_18  and  C_19 
REMARK    7  A    between atoms: C_19  and  O_20 
REMARK    8  A    between atoms: C_19  and  C_21 
REMARK    9  A    between atoms: C_21  and  N_22 
REMARK   10  A    between atoms: N_22  and  C_25 
REMARK   11  A    between atoms: C_25  and  C_26 
REMARK   12  A    between atoms: C_26  and  C_27 
REMARK   13  A    between atoms: C_32  and  O_33 
ROOT
HETATM    1  C   UNL     1      45.692 -32.230  -4.830  1.00  0.00     0.162 C 
ENDROOT
BRANCH   1   2
HETATM    2  N   UNL     1      46.140 -32.067  -3.455  1.00  0.00    -0.353 N 
HETATM    3  C   UNL     1      45.393 -32.356  -2.333  1.00  0.00     0.045 A 
HETATM    4  C   UNL     1      46.223 -32.144  -1.222  1.00  0.00     0.002 A 
HETATM    5  C   UNL     1      44.067 -32.809  -2.200  1.00  0.00     0.030 A 
HETATM    6  C   UNL     1      47.478 -31.669  -1.723  1.00  0.00    -0.008 A 
HETATM    7  C   UNL     1      45.699 -32.437   0.058  1.00  0.00     0.014 A 
HETATM    8  C   UNL     1      47.391 -31.644  -3.100  1.00  0.00     0.103 A 
HETATM    9  C   UNL     1      44.381 -32.884   0.197  1.00  0.00     0.001 A 
HETATM   10  C   UNL     1      43.575 -33.061  -0.919  1.00  0.00     0.002 A 
BRANCH   6  11
HETATM   11  C   UNL     1      48.674 -31.288  -1.037  1.00  0.00     0.018 C 
HETATM   12  C   UNL     1      48.868 -31.290   0.291  1.00  0.00     0.056 C 
BRANCH  12  13
HETATM   13  C   UNL     1      50.193 -30.891   0.844  1.00  0.00     0.182 C 
HETATM   14  O   UNL     1      51.039 -30.347   0.140  1.00  0.00    -0.288 OA
BRANCH  13  15
HETATM   15  C   UNL     1      50.505 -31.227   2.263  1.00  0.00     0.014 A 
HETATM   16  C   UNL     1      50.672 -32.538   2.724  1.00  0.00     0.018 A 
HETATM   17  C   UNL     1      51.008 -32.770   4.063  1.00  0.00     0.037 A 
HETATM   18  C   UNL     1      51.171 -31.711   4.958  1.00  0.00     0.068 A 
HETATM   19  C   UNL     1      50.970 -30.406   4.511  1.00  0.00     0.037 A 
HETATM   20  C   UNL     1      50.636 -30.167   3.171  1.00  0.00     0.018 A 
BRANCH  18  21
HETATM   21  O   UNL     1      51.515 -32.083   6.227  1.00  0.00    -0.356 OA
HETATM   22  C   UNL     1      52.896 -32.314   6.478  1.00  0.00     0.210 C 
ENDBRANCH  18  21
ENDBRANCH  13  15
ENDBRANCH  12  13
ENDBRANCH   6  11
ENDBRANCH   1   2
BRANCH   1  23
HETATM   23  C   UNL     1      45.461 -30.879  -5.524  1.00  0.00     0.162 C 
BRANCH  23  24
HETATM   24  O   UNL     1      44.731 -31.048  -6.742  1.00  0.00    -0.392 OA
HETATM   25  H   UNL     1      43.780 -31.169  -6.531  1.00  0.00     0.210 HD
ENDBRANCH  23  24
BRANCH  23  26
HETATM   26  C   UNL     1      44.612 -29.928  -4.657  1.00  0.00     0.265 C 
BRANCH  26  27
HETATM   27  N   UNL     1      44.969 -28.482  -4.837  1.00  0.00    -0.072 N 
HETATM   28  H   UNL     1      45.788 -28.360  -5.448  1.00  0.00     0.277 HD
HETATM   29  H   UNL     1      44.186 -28.007  -5.308  1.00  0.00     0.277 HD
BRANCH  27  30
HETATM   30  C   UNL     1      45.218 -27.735  -3.548  1.00  0.00     0.237 C 
BRANCH  30  31
HETATM   31  C   UNL     1      44.990 -28.627  -2.326  1.00  0.00     0.068 C 
BRANCH  31  32
HETATM   32  C   UNL     1      46.014 -28.389  -1.269  1.00  0.00    -0.029 A 
HETATM   33  C   UNL     1      45.890 -28.702   0.123  1.00  0.00     0.001 A 
HETATM   34  C   UNL     1      47.077 -28.318   0.744  1.00  0.00     0.043 A 
HETATM   35  C   UNL     1      44.878 -29.279   0.917  1.00  0.00     0.051 A 
HETATM   36  C   UNL     1      47.297 -28.479   2.116  1.00  0.00     0.033 A 
HETATM   37  N   UNL     1      47.900 -27.805  -0.229  1.00  0.00    -0.365 N 
HETATM   38  C   UNL     1      46.270 -29.049   2.882  1.00  0.00     0.039 A 
HETATM   39  C   UNL     1      45.072 -29.448   2.296  1.00  0.00     0.069 A 
HETATM   40  H   UNL     1      48.839 -27.464  -0.064  1.00  0.00     0.165 HD
HETATM   41  C   UNL     1      47.267 -27.835  -1.446  1.00  0.00     0.096 A 
BRANCH  39  42
HETATM   42  O   UNL     1      44.007 -30.013   2.945  1.00  0.00    -0.356 OA
HETATM   43  C   UNL     1      42.715 -29.754   2.408  1.00  0.00     0.210 C 
ENDBRANCH  39  42
ENDBRANCH  31  32
ENDBRANCH  30  31
ENDBRANCH  27  30
ENDBRANCH  26  27
ENDBRANCH  23  26
ENDBRANCH   1  23
TORSDOF 13
ENDMDL
MODEL 10
REMARK VINA RESULT:      -7.4      2.295      7.469
REMARK  13 active torsions:
REMARK  status: ('A' for Active; 'I' for Inactive)
REMARK    1  A    between atoms: O_2  and  C_3 
REMARK    2  A    between atoms: C_6  and  C_7 
REMARK    3  A    between atoms: C_7  and  C_8 
REMARK    4  A    between atoms: C_9  and  C_10 
REMARK    5  A    between atoms: N_17  and  C_18 
REMARK    6  A    between atoms: C_18  and  C_19 
REMARK    7  A    between atoms: C_19  and  O_20 
REMARK    8  A    between atoms: C_19  and  C_21 
REMARK    9  A    between atoms: C_21  and  N_22 
REMARK   10  A    between atoms: N_22  and  C_25 
REMARK   11  A    between atoms: C_25  and  C_26 
REMARK   12  A    between atoms: C_26  and  C_27 
REMARK   13  A    between atoms: C_32  and  O_33 
ROOT
HETATM    1  C   UNL     1      41.167 -15.182   5.737  1.00  0.00     0.162 C 
ENDROOT
BRANCH   1   2
HETATM    2  N   UNL     1      41.290 -15.675   4.373  1.00  0.00    -0.353 N 
HETATM    3  C   UNL     1      42.178 -16.643   3.952  1.00  0.00     0.045 A 
HETATM    4  C   UNL     1      41.907 -16.884   2.597  1.00  0.00     0.002 A 
HETATM    5  C   UNL     1      43.179 -17.343   4.651  1.00  0.00     0.030 A 
HETATM    6  C   UNL     1      40.857 -15.988   2.214  1.00  0.00    -0.008 A 
HETATM    7  C   UNL     1      42.652 -17.894   1.945  1.00  0.00     0.014 A 
HETATM    8  C   UNL     1      40.499 -15.268   3.335  1.00  0.00     0.103 A 
HETATM    9  C   UNL     1      43.650 -18.591   2.633  1.00  0.00     0.001 A 
HETATM   10  C   UNL     1      43.913 -18.313   3.968  1.00  0.00     0.002 A 
BRANCH   6  11
HETATM   11  C   UNL     1      40.203 -15.798   0.956  1.00  0.00     0.018 C 
HETATM   12  C   UNL     1      40.169 -14.666   0.237  1.00  0.00     0.056 C 
BRANCH  12  13
HETATM   13  C   UNL     1      39.465 -14.646  -1.076  1.00  0.00     0.182 C 
HETATM   14  O   UNL     1      39.016 -15.676  -1.574  1.00  0.00    -0.288 OA
BRANCH  13  15
HETATM   15  C   UNL     1      39.372 -13.356  -1.818  1.00  0.00     0.014 A 
HETATM   16  C   UNL     1      38.175 -12.652  -1.991  1.00  0.00     0.018 A 
HETATM   17  C   UNL     1      38.177 -11.424  -2.662  1.00  0.00     0.037 A 
HETATM   18  C   UNL     1      39.359 -10.887  -3.176  1.00  0.00     0.068 A 
HETATM   19  C   UNL     1      40.548 -11.603  -3.037  1.00  0.00     0.037 A 
HETATM   20  C   UNL     1      40.553 -12.831  -2.364  1.00  0.00     0.018 A 
BRANCH  18  21
HETATM   21  O   UNL     1      39.216  -9.675  -3.791  1.00  0.00    -0.356 OA
HETATM   22  C   UNL     1      38.412  -8.707  -3.127  1.00  0.00     0.210 C 
ENDBRANCH  18  21
ENDBRANCH  13  15
ENDBRANCH  12  13
ENDBRANCH   6  11
ENDBRANCH   1   2
BRANCH   1  23
HETATM   23  C   UNL     1      41.645 -13.728   5.869  1.00  0.00     0.162 C 
BRANCH  23  24
HETATM   24  O   UNL     1      40.815 -12.997   6.775  1.00  0.00    -0.392 OA
HETATM   25  H   UNL     1      40.944 -12.037   6.624  1.00  0.00     0.210 HD
ENDBRANCH  23  24
BRANCH  23  26
HETATM   26  C   UNL     1      43.071 -13.645   6.449  1.00  0.00     0.265 C 
BRANCH  26  27
HETATM   27  N   UNL     1      43.228 -12.574   7.488  1.00  0.00    -0.072 N 
HETATM   28  H   UNL     1      42.431 -11.923   7.494  1.00  0.00     0.277 HD
HETATM   29  H   UNL     1      43.244 -13.018   8.417  1.00  0.00     0.277 HD
BRANCH  27  30
HETATM   30  C   UNL     1      44.502 -11.771   7.370  1.00  0.00     0.237 C 
BRANCH  30  31
HETATM   31  C   UNL     1      44.215 -10.291   7.108  1.00  0.00     0.068 C 
BRANCH  31  32
HETATM   32  C   UNL     1      42.777 -10.053   6.797  1.00  0.00    -0.029 A 
HETATM   33  C   UNL     1      42.156 -10.147   5.510  1.00  0.00     0.001 A 
HETATM   34  C   UNL     1      40.805  -9.850   5.676  1.00  0.00     0.043 A 
HETATM   35  C   UNL     1      42.617 -10.460   4.215  1.00  0.00     0.051 A 
HETATM   36  C   UNL     1      39.897  -9.846   4.611  1.00  0.00     0.033 A 
HETATM   37  N   UNL     1      40.602  -9.599   7.011  1.00  0.00    -0.365 N 
HETATM   38  C   UNL     1      40.385 -10.154   3.334  1.00  0.00     0.039 A 
HETATM   39  C   UNL     1      41.728 -10.460   3.130  1.00  0.00     0.069 A 
HETATM   40  H   UNL     1      39.705  -9.373   7.422  1.00  0.00     0.165 HD
HETATM   41  C   UNL     1      41.785  -9.710   7.696  1.00  0.00     0.096 A 
BRANCH  39  42
HETATM   42  O   UNL     1      42.309 -10.773   1.931  1.00  0.00    -0.356 OA
HETATM   43  C   UNL     1      41.521 -10.576   0.762  1.00  0.00     0.210 C 
ENDBRANCH  39  42
ENDBRANCH  31  32
ENDBRANCH  30  31
ENDBRANCH  27  30
ENDBRANCH  26  27
ENDBRANCH  23  26
ENDBRANCH   1  23
TORSDOF 13
ENDMDL
