MODEL 1
REMARK VINA RESULT:      -7.5      0.000      0.000
REMARK  9 active torsions:
REMARK  status: ('A' for Active; 'I' for Inactive)
REMARK    1  A    between atoms: C_2  and  C_3 
REMARK    2  A    between atoms: C_3  and  N_4 
REMARK    3  A    between atoms: C_7  and  C_8 
REMARK       I    between atoms: C_8  and  N_9 
REMARK    4  A    between atoms: N_9  and  C_10 
REMARK    5  A    between atoms: C_10  and  C_11 
REMARK    6  A    between atoms: C_13  and  O_14 
REMARK    7  A    between atoms: O_14  and  C_15 
REMARK    8  A    between atoms: C_15  and  C_16 
REMARK       I    between atoms: C_16  and  N_17 
REMARK    9  A    between atoms: C_23  and  C_24 
ROOT
HETATM    1  C   UNL     1      40.502 -13.198   5.943  1.00  0.00     0.255 C 
HETATM    2  N   UNL     1      41.019 -11.950   6.176  1.00  0.00    -0.353 N 
HETATM    3  O   UNL     1      39.624 -13.609   6.699  1.00  0.00    -0.268 OA
HETATM    4  H   UNL     1      40.597 -11.494   6.974  1.00  0.00     0.163 HD
ENDROOT
BRANCH   2   5
HETATM    5  C   UNL     1      42.045 -11.217   5.462  1.00  0.00     0.161 C 
BRANCH   5   6
HETATM    6  C   UNL     1      43.304 -11.032   6.280  1.00  0.00    -0.038 A 
HETATM    7  C   UNL     1      43.320 -10.310   7.484  1.00  0.00     0.045 A 
HETATM    8  C   UNL     1      44.491 -10.172   8.239  1.00  0.00     0.070 A 
HETATM    9  C   UNL     1      45.666 -10.773   7.793  1.00  0.00     0.037 A 
HETATM   10  C   UNL     1      45.664 -11.508   6.605  1.00  0.00     0.003 A 
HETATM   11  C   UNL     1      44.493 -11.641   5.857  1.00  0.00     0.009 A 
BRANCH   8  12
HETATM   12  O   UNL     1      44.345  -9.432   9.380  1.00  0.00    -0.342 OA
BRANCH  12  13
HETATM   13  C   UNL     1      44.682 -10.068  10.611  1.00  0.00     0.278 C 
BRANCH  13  14
HETATM   14  C   UNL     1      43.429 -10.566  11.330  1.00  0.00     0.239 C 
HETATM   15  N   UNL     1      43.590 -11.662  12.125  1.00  0.00    -0.368 N 
HETATM   16  H   UNL     1      44.513 -12.046  12.290  1.00  0.00     0.159 HD
HETATM   17  H   UNL     1      42.799 -12.008  12.650  1.00  0.00     0.159 HD
HETATM   18  O   UNL     1      42.329 -10.034  11.200  1.00  0.00    -0.271 OA
ENDBRANCH  13  14
ENDBRANCH  12  13
ENDBRANCH   8  12
ENDBRANCH   5   6
ENDBRANCH   2   5
BRANCH   1  19
HETATM   19  C   UNL     1      41.033 -13.984   4.849  1.00  0.00     0.075 A 
HETATM   20  C   UNL     1      40.491 -14.064   3.544  1.00  0.00     0.158 A 
HETATM   21  N   UNL     1      41.166 -14.883   2.744  1.00  0.00    -0.183 NA
HETATM   22  N   UNL     1      42.199 -15.296   3.504  1.00  0.00    -0.268 N 
HETATM   23  C   UNL     1      42.168 -14.786   4.788  1.00  0.00     0.052 A 
BRANCH  22  24
HETATM   24  C   UNL     1      43.200 -16.194   2.927  1.00  0.00     0.106 C 
HETATM   25  C   UNL     1      43.386 -16.008   1.415  1.00  0.00     0.034 C 
BRANCH  24  26
HETATM   26  C   UNL     1      42.946 -17.667   3.305  1.00  0.00     0.022 C 
HETATM   27  C   UNL     1      44.102 -18.617   3.020  1.00  0.00     0.007 C 
ENDBRANCH  24  26
ENDBRANCH  22  24
BRANCH  23  28
HETATM   28  C   UNL     1      43.201 -15.130   5.864  1.00  0.00     0.038 A 
HETATM   29  C   UNL     1      42.913 -14.868   7.322  1.00  0.00     0.011 A 
HETATM   30  C   UNL     1      42.959 -16.273   6.823  1.00  0.00     0.011 A 
ENDBRANCH  23  28
ENDBRANCH   1  19
TORSDOF 9
ENDMDL
MODEL 2
REMARK VINA RESULT:      -7.2      1.427      1.749
REMARK  9 active torsions:
REMARK  status: ('A' for Active; 'I' for Inactive)
REMARK    1  A    between atoms: C_2  and  C_3 
REMARK    2  A    between atoms: C_3  and  N_4 
REMARK    3  A    between atoms: C_7  and  C_8 
REMARK       I    between atoms: C_8  and  N_9 
REMARK    4  A    between atoms: N_9  and  C_10 
REMARK    5  A    between atoms: C_10  and  C_11 
REMARK    6  A    between atoms: C_13  and  O_14 
REMARK    7  A    between atoms: O_14  and  C_15 
REMARK    8  A    between atoms: C_15  and  C_16 
REMARK       I    between atoms: C_16  and  N_17 
REMARK    9  A    between atoms: C_23  and  C_24 
ROOT
HETATM    1  C   UNL     1      41.674 -13.218   5.566  1.00  0.00     0.255 C 
HETATM    2  N   UNL     1      42.532 -12.494   6.352  1.00  0.00    -0.353 N 
HETATM    3  O   UNL     1      40.482 -12.919   5.587  1.00  0.00    -0.268 OA
HETATM    4  H   UNL     1      42.064 -11.767   6.877  1.00  0.00     0.163 HD
ENDROOT
BRANCH   2   5
HETATM    5  C   UNL     1      43.965 -12.617   6.527  1.00  0.00     0.161 C 
BRANCH   5   6
HETATM    6  C   UNL     1      44.564 -11.443   7.268  1.00  0.00    -0.038 A 
HETATM    7  C   UNL     1      43.845 -10.711   8.228  1.00  0.00     0.045 A 
HETATM    8  C   UNL     1      44.426  -9.643   8.920  1.00  0.00     0.070 A 
HETATM    9  C   UNL     1      45.752  -9.303   8.663  1.00  0.00     0.037 A 
HETATM   10  C   UNL     1      46.488 -10.029   7.723  1.00  0.00     0.003 A 
HETATM   11  C   UNL     1      45.901 -11.092   7.035  1.00  0.00     0.009 A 
BRANCH   8  12
HETATM   12  O   UNL     1      43.593  -9.028   9.813  1.00  0.00    -0.342 OA
BRANCH  12  13
HETATM   13  C   UNL     1      43.922  -9.149  11.195  1.00  0.00     0.278 C 
BRANCH  13  14
HETATM   14  C   UNL     1      43.388 -10.460  11.772  1.00  0.00     0.239 C 
HETATM   15  N   UNL     1      42.122 -10.420  12.280  1.00  0.00    -0.368 N 
HETATM   16  H   UNL     1      41.555  -9.586  12.181  1.00  0.00     0.159 HD
HETATM   17  H   UNL     1      41.711 -11.270  12.640  1.00  0.00     0.159 HD
HETATM   18  O   UNL     1      44.049 -11.494  11.800  1.00  0.00    -0.271 OA
ENDBRANCH  13  14
ENDBRANCH  12  13
ENDBRANCH   8  12
ENDBRANCH   5   6
ENDBRANCH   2   5
BRANCH   1  19
HETATM   19  C   UNL     1      42.200 -14.314   4.779  1.00  0.00     0.075 A 
HETATM   20  C   UNL     1      42.666 -14.230   3.446  1.00  0.00     0.158 A 
HETATM   21  N   UNL     1      43.070 -15.398   2.956  1.00  0.00    -0.183 NA
HETATM   22  N   UNL     1      42.931 -16.247   3.993  1.00  0.00    -0.268 N 
HETATM   23  C   UNL     1      42.406 -15.647   5.121  1.00  0.00     0.052 A 
BRANCH  22  24
HETATM   24  C   UNL     1      43.331 -17.646   3.833  1.00  0.00     0.106 C 
HETATM   25  C   UNL     1      44.788 -17.914   4.232  1.00  0.00     0.034 C 
BRANCH  24  26
HETATM   26  C   UNL     1      43.003 -18.186   2.426  1.00  0.00     0.022 C 
HETATM   27  C   UNL     1      43.372 -19.645   2.191  1.00  0.00     0.007 C 
ENDBRANCH  24  26
ENDBRANCH  22  24
BRANCH  23  28
HETATM   28  C   UNL     1      42.110 -16.396   6.423  1.00  0.00     0.038 A 
HETATM   29  C   UNL     1      43.204 -17.137   7.152  1.00  0.00     0.011 A 
HETATM   30  C   UNL     1      42.646 -15.885   7.741  1.00  0.00     0.011 A 
ENDBRANCH  23  28
ENDBRANCH   1  19
TORSDOF 9
ENDMDL
MODEL 3
REMARK VINA RESULT:      -7.2      1.698      2.627
REMARK  9 active torsions:
REMARK  status: ('A' for Active; 'I' for Inactive)
REMARK    1  A    between atoms: C_2  and  C_3 
REMARK    2  A    between atoms: C_3  and  N_4 
REMARK    3  A    between atoms: C_7  and  C_8 
REMARK       I    between atoms: C_8  and  N_9 
REMARK    4  A    between atoms: N_9  and  C_10 
REMARK    5  A    between atoms: C_10  and  C_11 
REMARK    6  A    between atoms: C_13  and  O_14 
REMARK    7  A    between atoms: O_14  and  C_15 
REMARK    8  A    between atoms: C_15  and  C_16 
REMARK       I    between atoms: C_16  and  N_17 
REMARK    9  A    between atoms: C_23  and  C_24 
ROOT
HETATM    1  C   UNL     1      43.063 -15.275   7.464  1.00  0.00     0.255 C 
HETATM    2  N   UNL     1      43.370 -13.942   7.548  1.00  0.00    -0.353 N 
HETATM    3  O   UNL     1      42.739 -15.857   8.497  1.00  0.00    -0.268 OA
HETATM    4  H   UNL     1      43.288 -13.579   8.489  1.00  0.00     0.163 HD
ENDROOT
BRANCH   2   5
HETATM    5  C   UNL     1      43.779 -13.012   6.514  1.00  0.00     0.161 C 
BRANCH   5   6
HETATM    6  C   UNL     1      44.455 -11.780   7.073  1.00  0.00    -0.038 A 
HETATM    7  C   UNL     1      43.829 -10.935   8.004  1.00  0.00     0.045 A 
HETATM    8  C   UNL     1      44.481  -9.813   8.528  1.00  0.00     0.070 A 
HETATM    9  C   UNL     1      45.785  -9.532   8.127  1.00  0.00     0.037 A 
HETATM   10  C   UNL     1      46.429 -10.370   7.214  1.00  0.00     0.003 A 
HETATM   11  C   UNL     1      45.772 -11.487   6.694  1.00  0.00     0.009 A 
BRANCH   8  12
HETATM   12  O   UNL     1      43.735  -9.087   9.415  1.00  0.00    -0.342 OA
BRANCH  12  13
HETATM   13  C   UNL     1      44.072  -9.206  10.795  1.00  0.00     0.278 C 
BRANCH  13  14
HETATM   14  C   UNL     1      43.407 -10.434  11.417  1.00  0.00     0.239 C 
HETATM   15  N   UNL     1      42.049 -10.382  11.539  1.00  0.00    -0.368 N 
HETATM   16  H   UNL     1      41.527  -9.609  11.145  1.00  0.00     0.159 HD
HETATM   17  H   UNL     1      41.560 -11.184  11.912  1.00  0.00     0.159 HD
HETATM   18  O   UNL     1      44.041 -11.411  11.805  1.00  0.00    -0.271 OA
ENDBRANCH  13  14
ENDBRANCH  12  13
ENDBRANCH   8  12
ENDBRANCH   5   6
ENDBRANCH   2   5
BRANCH   1  19
HETATM   19  C   UNL     1      43.167 -15.939   6.182  1.00  0.00     0.075 A 
HETATM   20  C   UNL     1      44.283 -16.671   5.714  1.00  0.00     0.158 A 
HETATM   21  N   UNL     1      44.117 -17.155   4.486  1.00  0.00    -0.183 NA
HETATM   22  N   UNL     1      42.858 -16.796   4.167  1.00  0.00    -0.268 N 
HETATM   23  C   UNL     1      42.236 -16.057   5.154  1.00  0.00     0.052 A 
BRANCH  22  24
HETATM   24  C   UNL     1      42.302 -17.206   2.877  1.00  0.00     0.106 C 
HETATM   25  C   UNL     1      43.002 -18.430   2.271  1.00  0.00     0.034 C 
BRANCH  24  26
HETATM   26  C   UNL     1      42.217 -16.031   1.881  1.00  0.00     0.022 C 
HETATM   27  C   UNL     1      43.505 -15.237   1.705  1.00  0.00     0.007 C 
ENDBRANCH  24  26
ENDBRANCH  22  24
BRANCH  23  28
HETATM   28  C   UNL     1      40.818 -15.492   5.027  1.00  0.00     0.038 A 
HETATM   29  C   UNL     1      40.257 -14.572   6.083  1.00  0.00     0.011 A 
HETATM   30  C   UNL     1      40.600 -14.025   4.738  1.00  0.00     0.011 A 
ENDBRANCH  23  28
ENDBRANCH   1  19
TORSDOF 9
ENDMDL
MODEL 4
REMARK VINA RESULT:      -7.0      1.447      2.306
REMARK  9 active torsions:
REMARK  status: ('A' for Active; 'I' for Inactive)
REMARK    1  A    between atoms: C_2  and  C_3 
REMARK    2  A    between atoms: C_3  and  N_4 
REMARK    3  A    between atoms: C_7  and  C_8 
REMARK       I    between atoms: C_8  and  N_9 
REMARK    4  A    between atoms: N_9  and  C_10 
REMARK    5  A    between atoms: C_10  and  C_11 
REMARK    6  A    between atoms: C_13  and  O_14 
REMARK    7  A    between atoms: O_14  and  C_15 
REMARK    8  A    between atoms: C_15  and  C_16 
REMARK       I    between atoms: C_16  and  N_17 
REMARK    9  A    between atoms: C_23  and  C_24 
ROOT
HETATM    1  C   UNL     1      41.457 -13.134   6.115  1.00  0.00     0.255 C 
HETATM    2  N   UNL     1      42.396 -12.323   6.697  1.00  0.00    -0.353 N 
HETATM    3  O   UNL     1      40.295 -12.736   6.077  1.00  0.00    -0.268 OA
HETATM    4  H   UNL     1      42.006 -11.454   7.038  1.00  0.00     0.163 HD
ENDROOT
BRANCH   2   5
HETATM    5  C   UNL     1      43.818 -12.526   6.883  1.00  0.00     0.161 C 
BRANCH   5   6
HETATM    6  C   UNL     1      44.487 -11.364   7.582  1.00  0.00    -0.038 A 
HETATM    7  C   UNL     1      43.893 -10.694   8.665  1.00  0.00     0.045 A 
HETATM    8  C   UNL     1      44.539  -9.636   9.314  1.00  0.00     0.070 A 
HETATM    9  C   UNL     1      45.806  -9.244   8.887  1.00  0.00     0.037 A 
HETATM   10  C   UNL     1      46.418  -9.908   7.821  1.00  0.00     0.003 A 
HETATM   11  C   UNL     1      45.767 -10.962   7.177  1.00  0.00     0.009 A 
BRANCH   8  12
HETATM   12  O   UNL     1      43.827  -9.083  10.342  1.00  0.00    -0.342 OA
BRANCH  12  13
HETATM   13  C   UNL     1      42.691  -9.808  10.806  1.00  0.00     0.278 C 
BRANCH  13  14
HETATM   14  C   UNL     1      42.926 -10.350  12.216  1.00  0.00     0.239 C 
HETATM   15  N   UNL     1      43.498 -11.587  12.294  1.00  0.00    -0.368 N 
HETATM   16  H   UNL     1      43.827 -12.055  11.459  1.00  0.00     0.159 HD
HETATM   17  H   UNL     1      43.706 -11.974  13.205  1.00  0.00     0.159 HD
HETATM   18  O   UNL     1      42.611  -9.733  13.229  1.00  0.00    -0.271 OA
ENDBRANCH  13  14
ENDBRANCH  12  13
ENDBRANCH   8  12
ENDBRANCH   5   6
ENDBRANCH   2   5
BRANCH   1  19
HETATM   19  C   UNL     1      41.865 -14.427   5.608  1.00  0.00     0.075 A 
HETATM   20  C   UNL     1      41.639 -15.675   6.235  1.00  0.00     0.158 A 
HETATM   21  N   UNL     1      42.145 -16.702   5.560  1.00  0.00    -0.183 NA
HETATM   22  N   UNL     1      42.653 -16.137   4.447  1.00  0.00    -0.268 N 
HETATM   23  C   UNL     1      42.515 -14.762   4.423  1.00  0.00     0.052 A 
BRANCH  22  24
HETATM   24  C   UNL     1      43.265 -16.988   3.426  1.00  0.00     0.106 C 
HETATM   25  C   UNL     1      42.281 -17.443   2.340  1.00  0.00     0.034 C 
BRANCH  24  26
HETATM   26  C   UNL     1      44.039 -18.171   4.043  1.00  0.00     0.022 C 
HETATM   27  C   UNL     1      44.041 -19.447   3.213  1.00  0.00     0.007 C 
ENDBRANCH  24  26
ENDBRANCH  22  24
BRANCH  23  28
HETATM   28  C   UNL     1      43.041 -13.874   3.293  1.00  0.00     0.038 A 
HETATM   29  C   UNL     1      42.383 -13.885   1.934  1.00  0.00     0.011 A 
HETATM   30  C   UNL     1      42.239 -12.687   2.813  1.00  0.00     0.011 A 
ENDBRANCH  23  28
ENDBRANCH   1  19
TORSDOF 9
ENDMDL
MODEL 5
REMARK VINA RESULT:      -7.0      3.915      7.576
REMARK  9 active torsions:
REMARK  status: ('A' for Active; 'I' for Inactive)
REMARK    1  A    between atoms: C_2  and  C_3 
REMARK    2  A    between atoms: C_3  and  N_4 
REMARK    3  A    between atoms: C_7  and  C_8 
REMARK       I    between atoms: C_8  and  N_9 
REMARK    4  A    between atoms: N_9  and  C_10 
REMARK    5  A    between atoms: C_10  and  C_11 
REMARK    6  A    between atoms: C_13  and  O_14 
REMARK    7  A    between atoms: O_14  and  C_15 
REMARK    8  A    between atoms: C_15  and  C_16 
REMARK       I    between atoms: C_16  and  N_17 
REMARK    9  A    between atoms: C_23  and  C_24 
ROOT
HETATM    1  C   UNL     1      42.459 -13.310   4.312  1.00  0.00     0.255 C 
HETATM    2  N   UNL     1      41.138 -12.954   4.377  1.00  0.00    -0.353 N 
HETATM    3  O   UNL     1      43.296 -12.488   4.680  1.00  0.00    -0.268 OA
HETATM    4  H   UNL     1      41.000 -12.019   4.738  1.00  0.00     0.163 HD
ENDROOT
BRANCH   2   5
HETATM    5  C   UNL     1      39.951 -13.704   4.016  1.00  0.00     0.161 C 
BRANCH   5   6
HETATM    6  C   UNL     1      39.885 -14.017   2.539  1.00  0.00    -0.038 A 
HETATM    7  C   UNL     1      39.891 -13.014   1.556  1.00  0.00     0.045 A 
HETATM    8  C   UNL     1      39.854 -13.325   0.192  1.00  0.00     0.070 A 
HETATM    9  C   UNL     1      39.825 -14.661  -0.203  1.00  0.00     0.037 A 
HETATM   10  C   UNL     1      39.834 -15.672   0.760  1.00  0.00     0.003 A 
HETATM   11  C   UNL     1      39.869 -15.354   2.119  1.00  0.00     0.009 A 
BRANCH   8  12
HETATM   12  O   UNL     1      39.856 -12.238  -0.638  1.00  0.00    -0.342 OA
BRANCH  12  13
HETATM   13  C   UNL     1      39.363 -12.432  -1.961  1.00  0.00     0.278 C 
BRANCH  13  14
HETATM   14  C   UNL     1      40.509 -12.462  -2.972  1.00  0.00     0.239 C 
HETATM   15  N   UNL     1      40.950 -11.249  -3.414  1.00  0.00    -0.368 N 
HETATM   16  H   UNL     1      40.592 -10.393  -3.009  1.00  0.00     0.159 HD
HETATM   17  H   UNL     1      41.730 -11.215  -4.057  1.00  0.00     0.159 HD
HETATM   18  O   UNL     1      41.005 -13.506  -3.388  1.00  0.00    -0.271 OA
ENDBRANCH  13  14
ENDBRANCH  12  13
ENDBRANCH   8  12
ENDBRANCH   5   6
ENDBRANCH   2   5
BRANCH   1  19
HETATM   19  C   UNL     1      42.810 -14.612   3.784  1.00  0.00     0.075 A 
HETATM   20  C   UNL     1      43.406 -14.866   2.527  1.00  0.00     0.158 A 
HETATM   21  N   UNL     1      43.596 -16.160   2.286  1.00  0.00    -0.183 NA
HETATM   22  N   UNL     1      43.183 -16.761   3.419  1.00  0.00    -0.268 N 
HETATM   23  C   UNL     1      42.695 -15.874   4.359  1.00  0.00     0.052 A 
BRANCH  22  24
HETATM   24  C   UNL     1      43.288 -18.216   3.537  1.00  0.00     0.106 C 
HETATM   25  C   UNL     1      44.618 -18.684   4.144  1.00  0.00     0.034 C 
BRANCH  24  26
HETATM   26  C   UNL     1      42.970 -18.932   2.209  1.00  0.00     0.022 C 
HETATM   27  C   UNL     1      43.609 -20.304   2.043  1.00  0.00     0.007 C 
ENDBRANCH  24  26
ENDBRANCH  22  24
BRANCH  23  28
HETATM   28  C   UNL     1      42.127 -16.301   5.715  1.00  0.00     0.038 A 
HETATM   29  C   UNL     1      43.033 -16.830   6.799  1.00  0.00     0.011 A 
HETATM   30  C   UNL     1      42.407 -15.485   6.956  1.00  0.00     0.011 A 
ENDBRANCH  23  28
ENDBRANCH   1  19
TORSDOF 9
ENDMDL
MODEL 6
REMARK VINA RESULT:      -6.9      3.537      7.548
REMARK  9 active torsions:
REMARK  status: ('A' for Active; 'I' for Inactive)
REMARK    1  A    between atoms: C_2  and  C_3 
REMARK    2  A    between atoms: C_3  and  N_4 
REMARK    3  A    between atoms: C_7  and  C_8 
REMARK       I    between atoms: C_8  and  N_9 
REMARK    4  A    between atoms: N_9  and  C_10 
REMARK    5  A    between atoms: C_10  and  C_11 
REMARK    6  A    between atoms: C_13  and  O_14 
REMARK    7  A    between atoms: O_14  and  C_15 
REMARK    8  A    between atoms: C_15  and  C_16 
REMARK       I    between atoms: C_16  and  N_17 
REMARK    9  A    between atoms: C_23  and  C_24 
ROOT
HETATM    1  C   UNL     1      42.404 -13.213   6.296  1.00  0.00     0.255 C 
HETATM    2  N   UNL     1      42.370 -14.566   6.509  1.00  0.00    -0.353 N 
HETATM    3  O   UNL     1      43.358 -12.583   6.746  1.00  0.00    -0.268 OA
HETATM    4  H   UNL     1      43.169 -14.901   7.031  1.00  0.00     0.163 HD
ENDROOT
BRANCH   2   5
HETATM    5  C   UNL     1      41.386 -15.550   6.105  1.00  0.00     0.161 C 
BRANCH   5   6
HETATM    6  C   UNL     1      41.688 -16.154   4.752  1.00  0.00    -0.038 A 
HETATM    7  C   UNL     1      42.772 -17.023   4.541  1.00  0.00     0.045 A 
HETATM    8  C   UNL     1      43.020 -17.591   3.286  1.00  0.00     0.070 A 
HETATM    9  C   UNL     1      42.168 -17.300   2.224  1.00  0.00     0.037 A 
HETATM   10  C   UNL     1      41.077 -16.451   2.419  1.00  0.00     0.003 A 
HETATM   11  C   UNL     1      40.835 -15.886   3.673  1.00  0.00     0.009 A 
BRANCH   8  12
HETATM   12  O   UNL     1      44.117 -18.407   3.241  1.00  0.00    -0.342 OA
BRANCH  12  13
HETATM   13  C   UNL     1      44.338 -19.258   4.363  1.00  0.00     0.278 C 
BRANCH  13  14
HETATM   14  C   UNL     1      44.025 -20.713   4.015  1.00  0.00     0.239 C 
HETATM   15  N   UNL     1      43.969 -21.582   5.066  1.00  0.00    -0.368 N 
HETATM   16  H   UNL     1      44.036 -21.242   6.018  1.00  0.00     0.159 HD
HETATM   17  H   UNL     1      43.730 -22.548   4.891  1.00  0.00     0.159 HD
HETATM   18  O   UNL     1      43.849 -21.101   2.864  1.00  0.00    -0.271 OA
ENDBRANCH  13  14
ENDBRANCH  12  13
ENDBRANCH   8  12
ENDBRANCH   5   6
ENDBRANCH   2   5
BRANCH   1  19
HETATM   19  C   UNL     1      41.307 -12.587   5.589  1.00  0.00     0.075 A 
HETATM   20  C   UNL     1      40.020 -12.324   6.116  1.00  0.00     0.158 A 
HETATM   21  N   UNL     1      39.196 -11.762   5.236  1.00  0.00    -0.183 NA
HETATM   22  N   UNL     1      39.962 -11.593   4.141  1.00  0.00    -0.268 N 
HETATM   23  C   UNL     1      41.248 -12.075   4.296  1.00  0.00     0.052 A 
BRANCH  22  24
HETATM   24  C   UNL     1      39.390 -10.946   2.959  1.00  0.00     0.106 C 
HETATM   25  C   UNL     1      38.614  -9.662   3.282  1.00  0.00     0.034 C 
BRANCH  24  26
HETATM   26  C   UNL     1      38.564 -11.927   2.103  1.00  0.00     0.022 C 
HETATM   27  C   UNL     1      37.381 -11.309   1.369  1.00  0.00     0.007 C 
ENDBRANCH  24  26
ENDBRANCH  22  24
BRANCH  23  28
HETATM   28  C   UNL     1      42.307 -12.042   3.191  1.00  0.00     0.038 A 
HETATM   29  C   UNL     1      43.246 -13.206   2.987  1.00  0.00     0.011 A 
HETATM   30  C   UNL     1      42.180 -12.936   1.979  1.00  0.00     0.011 A 
ENDBRANCH  23  28
ENDBRANCH   1  19
TORSDOF 9
ENDMDL
MODEL 7
REMARK VINA RESULT:      -6.8      1.810      2.406
REMARK  9 active torsions:
REMARK  status: ('A' for Active; 'I' for Inactive)
REMARK    1  A    between atoms: C_2  and  C_3 
REMARK    2  A    between atoms: C_3  and  N_4 
REMARK    3  A    between atoms: C_7  and  C_8 
REMARK       I    between atoms: C_8  and  N_9 
REMARK    4  A    between atoms: N_9  and  C_10 
REMARK    5  A    between atoms: C_10  and  C_11 
REMARK    6  A    between atoms: C_13  and  O_14 
REMARK    7  A    between atoms: O_14  and  C_15 
REMARK    8  A    between atoms: C_15  and  C_16 
REMARK       I    between atoms: C_16  and  N_17 
REMARK    9  A    between atoms: C_23  and  C_24 
ROOT
HETATM    1  C   UNL     1      42.669 -14.892   7.088  1.00  0.00     0.255 C 
HETATM    2  N   UNL     1      43.466 -13.812   7.367  1.00  0.00    -0.353 N 
HETATM    3  O   UNL     1      42.511 -15.735   7.968  1.00  0.00    -0.268 OA
HETATM    4  H   UNL     1      43.843 -13.836   8.306  1.00  0.00     0.163 HD
ENDROOT
BRANCH   2   5
HETATM    5  C   UNL     1      43.828 -12.680   6.538  1.00  0.00     0.161 C 
BRANCH   5   6
HETATM    6  C   UNL     1      44.484 -11.568   7.325  1.00  0.00    -0.038 A 
HETATM    7  C   UNL     1      43.918 -11.039   8.497  1.00  0.00     0.045 A 
HETATM    8  C   UNL     1      44.553 -10.026   9.225  1.00  0.00     0.070 A 
HETATM    9  C   UNL     1      45.781  -9.538   8.785  1.00  0.00     0.037 A 
HETATM   10  C   UNL     1      46.366 -10.062   7.630  1.00  0.00     0.003 A 
HETATM   11  C   UNL     1      45.726 -11.071   6.909  1.00  0.00     0.009 A 
BRANCH   8  12
HETATM   12  O   UNL     1      43.870  -9.614  10.335  1.00  0.00    -0.342 OA
BRANCH  12  13
HETATM   13  C   UNL     1      42.472  -9.381  10.186  1.00  0.00     0.278 C 
BRANCH  13  14
HETATM   14  C   UNL     1      41.709  -9.812  11.439  1.00  0.00     0.239 C 
HETATM   15  N   UNL     1      42.410 -10.559  12.340  1.00  0.00    -0.368 N 
HETATM   16  H   UNL     1      43.401 -10.722  12.212  1.00  0.00     0.159 HD
HETATM   17  H   UNL     1      41.960 -10.839  13.200  1.00  0.00     0.159 HD
HETATM   18  O   UNL     1      40.530  -9.529  11.633  1.00  0.00    -0.271 OA
ENDBRANCH  13  14
ENDBRANCH  12  13
ENDBRANCH   8  12
ENDBRANCH   5   6
ENDBRANCH   2   5
BRANCH   1  19
HETATM   19  C   UNL     1      42.083 -15.008   5.769  1.00  0.00     0.075 A 
HETATM   20  C   UNL     1      40.940 -14.315   5.303  1.00  0.00     0.158 A 
HETATM   21  N   UNL     1      40.605 -14.632   4.056  1.00  0.00    -0.183 NA
HETATM   22  N   UNL     1      41.570 -15.491   3.672  1.00  0.00    -0.268 N 
HETATM   23  C   UNL     1      42.490 -15.757   4.669  1.00  0.00     0.052 A 
BRANCH  22  24
HETATM   24  C   UNL     1      41.552 -16.026   2.310  1.00  0.00     0.106 C 
HETATM   25  C   UNL     1      42.675 -15.473   1.423  1.00  0.00     0.034 C 
BRANCH  24  26
HETATM   26  C   UNL     1      40.166 -15.888   1.650  1.00  0.00     0.022 C 
HETATM   27  C   UNL     1      40.118 -14.980   0.429  1.00  0.00     0.007 C 
ENDBRANCH  24  26
ENDBRANCH  22  24
BRANCH  23  28
HETATM   28  C   UNL     1      43.662 -16.728   4.506  1.00  0.00     0.038 A 
HETATM   29  C   UNL     1      44.640 -16.952   5.633  1.00  0.00     0.011 A 
HETATM   30  C   UNL     1      43.685 -18.037   5.261  1.00  0.00     0.011 A 
ENDBRANCH  23  28
ENDBRANCH   1  19
TORSDOF 9
ENDMDL
MODEL 8
REMARK VINA RESULT:      -6.8      5.946      9.782
REMARK  9 active torsions:
REMARK  status: ('A' for Active; 'I' for Inactive)
REMARK    1  A    between atoms: C_2  and  C_3 
REMARK    2  A    between atoms: C_3  and  N_4 
REMARK    3  A    between atoms: C_7  and  C_8 
REMARK       I    between atoms: C_8  and  N_9 
REMARK    4  A    between atoms: N_9  and  C_10 
REMARK    5  A    between atoms: C_10  and  C_11 
REMARK    6  A    between atoms: C_13  and  O_14 
REMARK    7  A    between atoms: O_14  and  C_15 
REMARK    8  A    between atoms: C_15  and  C_16 
REMARK       I    between atoms: C_16  and  N_17 
REMARK    9  A    between atoms: C_23  and  C_24 
ROOT
HETATM    1  C   UNL     1      39.534 -10.088  12.717  1.00  0.00     0.255 C 
HETATM    2  N   UNL     1      39.438 -10.320  11.370  1.00  0.00    -0.353 N 
HETATM    3  O   UNL     1      39.474 -11.054  13.475  1.00  0.00    -0.268 OA
HETATM    4  H   UNL     1      39.327 -11.301  11.148  1.00  0.00     0.163 HD
ENDROOT
BRANCH   2   5
HETATM    5  C   UNL     1      39.474  -9.392  10.258  1.00  0.00     0.161 C 
BRANCH   5   6
HETATM    6  C   UNL     1      40.868  -8.882   9.970  1.00  0.00    -0.038 A 
HETATM    7  C   UNL     1      41.921  -9.735   9.602  1.00  0.00     0.045 A 
HETATM    8  C   UNL     1      43.199  -9.240   9.316  1.00  0.00     0.070 A 
HETATM    9  C   UNL     1      43.431  -7.868   9.385  1.00  0.00     0.037 A 
HETATM   10  C   UNL     1      42.391  -7.003   9.734  1.00  0.00     0.003 A 
HETATM   11  C   UNL     1      41.120  -7.504  10.019  1.00  0.00     0.009 A 
BRANCH   8  12
HETATM   12  O   UNL     1      44.116 -10.198   8.983  1.00  0.00    -0.342 OA
BRANCH  12  13
HETATM   13  C   UNL     1      45.487  -9.896   9.230  1.00  0.00     0.278 C 
BRANCH  13  14
HETATM   14  C   UNL     1      46.238  -9.652   7.921  1.00  0.00     0.239 C 
HETATM   15  N   UNL     1      46.496 -10.757   7.164  1.00  0.00    -0.368 N 
HETATM   16  H   UNL     1      46.118 -11.659   7.425  1.00  0.00     0.159 HD
HETATM   17  H   UNL     1      46.959 -10.642   6.272  1.00  0.00     0.159 HD
HETATM   18  O   UNL     1      46.610  -8.538   7.564  1.00  0.00    -0.271 OA
ENDBRANCH  13  14
ENDBRANCH  12  13
ENDBRANCH   8  12
ENDBRANCH   5   6
ENDBRANCH   2   5
BRANCH   1  19
HETATM   19  C   UNL     1      39.665  -8.724  13.185  1.00  0.00     0.075 A 
HETATM   20  C   UNL     1      38.640  -7.749  13.204  1.00  0.00     0.158 A 
HETATM   21  N   UNL     1      39.045  -6.569  13.662  1.00  0.00    -0.183 NA
HETATM   22  N   UNL     1      40.329  -6.782  14.011  1.00  0.00    -0.268 N 
HETATM   23  C   UNL     1      40.759  -8.068  13.742  1.00  0.00     0.052 A 
BRANCH  22  24
HETATM   24  C   UNL     1      41.100  -5.692  14.610  1.00  0.00     0.106 C 
HETATM   25  C   UNL     1      40.605  -5.291  16.006  1.00  0.00     0.034 C 
BRANCH  24  26
HETATM   26  C   UNL     1      41.223  -4.480  13.664  1.00  0.00     0.022 C 
HETATM   27  C   UNL     1      42.219  -4.646  12.524  1.00  0.00     0.007 C 
ENDBRANCH  24  26
ENDBRANCH  22  24
BRANCH  23  28
HETATM   28  C   UNL     1      42.185  -8.559  14.005  1.00  0.00     0.038 A 
HETATM   29  C   UNL     1      42.860  -9.512  13.050  1.00  0.00     0.011 A 
HETATM   30  C   UNL     1      43.328  -8.098  13.131  1.00  0.00     0.011 A 
ENDBRANCH  23  28
ENDBRANCH   1  19
TORSDOF 9
ENDMDL
MODEL 9
REMARK VINA RESULT:      -6.8      1.614      2.327
REMARK  9 active torsions:
REMARK  status: ('A' for Active; 'I' for Inactive)
REMARK    1  A    between atoms: C_2  and  C_3 
REMARK    2  A    between atoms: C_3  and  N_4 
REMARK    3  A    between atoms: C_7  and  C_8 
REMARK       I    between atoms: C_8  and  N_9 
REMARK    4  A    between atoms: N_9  and  C_10 
REMARK    5  A    between atoms: C_10  and  C_11 
REMARK    6  A    between atoms: C_13  and  O_14 
REMARK    7  A    between atoms: O_14  and  C_15 
REMARK    8  A    between atoms: C_15  and  C_16 
REMARK       I    between atoms: C_16  and  N_17 
REMARK    9  A    between atoms: C_23  and  C_24 
ROOT
HETATM    1  C   UNL     1      40.459 -13.196   5.945  1.00  0.00     0.255 C 
HETATM    2  N   UNL     1      41.272 -12.284   6.565  1.00  0.00    -0.353 N 
HETATM    3  O   UNL     1      39.898 -14.037   6.644  1.00  0.00    -0.268 OA
HETATM    4  H   UNL     1      41.314 -12.413   7.568  1.00  0.00     0.163 HD
ENDROOT
BRANCH   2   5
HETATM    5  C   UNL     1      42.050 -11.196   6.007  1.00  0.00     0.161 C 
BRANCH   5   6
HETATM    6  C   UNL     1      43.403 -11.050   6.665  1.00  0.00    -0.038 A 
HETATM    7  C   UNL     1      43.551 -10.657   8.005  1.00  0.00     0.045 A 
HETATM    8  C   UNL     1      44.812 -10.552   8.603  1.00  0.00     0.070 A 
HETATM    9  C   UNL     1      45.949 -10.855   7.856  1.00  0.00     0.037 A 
HETATM   10  C   UNL     1      45.820 -11.262   6.527  1.00  0.00     0.003 A 
HETATM   11  C   UNL     1      44.559 -11.364   5.937  1.00  0.00     0.009 A 
BRANCH   8  12
HETATM   12  O   UNL     1      44.788 -10.149   9.909  1.00  0.00    -0.342 OA
BRANCH  12  13
HETATM   13  C   UNL     1      43.547  -9.661  10.413  1.00  0.00     0.278 C 
BRANCH  13  14
HETATM   14  C   UNL     1      43.207 -10.313  11.753  1.00  0.00     0.239 C 
HETATM   15  N   UNL     1      43.700 -11.569  11.951  1.00  0.00    -0.368 N 
HETATM   16  H   UNL     1      44.333 -11.984  11.278  1.00  0.00     0.159 HD
HETATM   17  H   UNL     1      43.532 -12.028  12.836  1.00  0.00     0.159 HD
HETATM   18  O   UNL     1      42.517  -9.762  12.607  1.00  0.00    -0.271 OA
ENDBRANCH  13  14
ENDBRANCH  12  13
ENDBRANCH   8  12
ENDBRANCH   5   6
ENDBRANCH   2   5
BRANCH   1  19
HETATM   19  C   UNL     1      40.327 -13.152   4.504  1.00  0.00     0.075 A 
HETATM   20  C   UNL     1      39.214 -12.652   3.787  1.00  0.00     0.158 A 
HETATM   21  N   UNL     1      39.348 -12.757   2.468  1.00  0.00    -0.183 NA
HETATM   22  N   UNL     1      40.584 -13.270   2.310  1.00  0.00    -0.268 N 
HETATM   23  C   UNL     1      41.222 -13.531   3.508  1.00  0.00     0.052 A 
BRANCH  22  24
HETATM   24  C   UNL     1      41.103 -13.486   0.959  1.00  0.00     0.106 C 
HETATM   25  C   UNL     1      41.069 -12.225   0.084  1.00  0.00     0.034 C 
BRANCH  24  26
HETATM   26  C   UNL     1      40.440 -14.694   0.268  1.00  0.00     0.022 C 
HETATM   27  C   UNL     1      39.970 -15.798   1.205  1.00  0.00     0.007 C 
ENDBRANCH  24  26
ENDBRANCH  22  24
BRANCH  23  28
HETATM   28  C   UNL     1      42.618 -14.152   3.610  1.00  0.00     0.038 A 
HETATM   29  C   UNL     1      43.006 -14.985   4.807  1.00  0.00     0.011 A 
HETATM   30  C   UNL     1      42.803 -15.647   3.485  1.00  0.00     0.011 A 
ENDBRANCH  23  28
ENDBRANCH   1  19
TORSDOF 9
ENDMDL
MODEL 10
REMARK VINA RESULT:      -6.8      2.244      3.168
REMARK  9 active torsions:
REMARK  status: ('A' for Active; 'I' for Inactive)
REMARK    1  A    between atoms: C_2  and  C_3 
REMARK    2  A    between atoms: C_3  and  N_4 
REMARK    3  A    between atoms: C_7  and  C_8 
REMARK       I    between atoms: C_8  and  N_9 
REMARK    4  A    between atoms: N_9  and  C_10 
REMARK    5  A    between atoms: C_10  and  C_11 
REMARK    6  A    between atoms: C_13  and  O_14 
REMARK    7  A    between atoms: O_14  and  C_15 
REMARK    8  A    between atoms: C_15  and  C_16 
REMARK       I    between atoms: C_16  and  N_17 
REMARK    9  A    between atoms: C_23  and  C_24 
ROOT
HETATM    1  C   UNL     1      41.326 -13.861   2.533  1.00  0.00     0.255 C 
HETATM    2  N   UNL     1      41.873 -12.605   2.562  1.00  0.00    -0.353 N 
HETATM    3  O   UNL     1      40.197 -13.988   2.063  1.00  0.00    -0.268 OA
HETATM    4  H   UNL     1      41.258 -11.901   2.174  1.00  0.00     0.163 HD
ENDROOT
BRANCH   2   5
HETATM    5  C   UNL     1      43.163 -12.160   3.049  1.00  0.00     0.161 C 
BRANCH   5   6
HETATM    6  C   UNL     1      43.076 -11.495   4.404  1.00  0.00    -0.038 A 
HETATM    7  C   UNL     1      44.045 -11.689   5.402  1.00  0.00     0.045 A 
HETATM    8  C   UNL     1      43.959 -11.045   6.642  1.00  0.00     0.070 A 
HETATM    9  C   UNL     1      42.895 -10.181   6.890  1.00  0.00     0.037 A 
HETATM   10  C   UNL     1      41.929  -9.965   5.904  1.00  0.00     0.003 A 
HETATM   11  C   UNL     1      42.021 -10.611   4.670  1.00  0.00     0.009 A 
BRANCH   8  12
HETATM   12  O   UNL     1      44.974 -11.345   7.507  1.00  0.00    -0.342 OA
BRANCH  12  13
HETATM   13  C   UNL     1      46.050 -10.413   7.592  1.00  0.00     0.278 C 
BRANCH  13  14
HETATM   14  C   UNL     1      45.727  -9.293   8.580  1.00  0.00     0.239 C 
HETATM   15  N   UNL     1      45.508  -9.676   9.870  1.00  0.00    -0.368 N 
HETATM   16  H   UNL     1      45.654 -10.638  10.152  1.00  0.00     0.159 HD
HETATM   17  H   UNL     1      45.326  -8.968  10.568  1.00  0.00     0.159 HD
HETATM   18  O   UNL     1      45.647  -8.113   8.247  1.00  0.00    -0.271 OA
ENDBRANCH  13  14
ENDBRANCH  12  13
ENDBRANCH   8  12
ENDBRANCH   5   6
ENDBRANCH   2   5
BRANCH   1  19
HETATM   19  C   UNL     1      42.081 -14.967   3.083  1.00  0.00     0.075 A 
HETATM   20  C   UNL     1      42.844 -15.902   2.345  1.00  0.00     0.158 A 
HETATM   21  N   UNL     1      43.414 -16.832   3.104  1.00  0.00    -0.183 NA
HETATM   22  N   UNL     1      43.080 -16.473   4.359  1.00  0.00    -0.268 N 
HETATM   23  C   UNL     1      42.272 -15.353   4.407  1.00  0.00     0.052 A 
BRANCH  22  24
HETATM   24  C   UNL     1      43.581 -17.259   5.487  1.00  0.00     0.106 C 
HETATM   25  C   UNL     1      44.639 -16.523   6.321  1.00  0.00     0.034 C 
BRANCH  24  26
HETATM   26  C   UNL     1      44.051 -18.662   5.055  1.00  0.00     0.022 C 
HETATM   27  C   UNL     1      43.667 -19.794   5.999  1.00  0.00     0.007 C 
ENDBRANCH  24  26
ENDBRANCH  22  24
BRANCH  23  28
HETATM   28  C   UNL     1      41.718 -14.760   5.705  1.00  0.00     0.038 A 
HETATM   29  C   UNL     1      40.413 -14.002   5.711  1.00  0.00     0.011 A 
HETATM   30  C   UNL     1      40.485 -15.347   6.353  1.00  0.00     0.011 A 
ENDBRANCH  23  28
ENDBRANCH   1  19
TORSDOF 9
ENDMDL
