MODEL 1
REMARK VINA RESULT:      -8.4      0.000      0.000
REMARK  8 active torsions:
REMARK  status: ('A' for Active; 'I' for Inactive)
REMARK    1  A    between atoms: C_2  and  C_3 
REMARK    2  A    between atoms: C_7  and  C_8 
REMARK       I    between atoms: C_8  and  N_9 
REMARK    3  A    between atoms: N_9  and  C_10 
REMARK    4  A    between atoms: C_10  and  C_11 
REMARK    5  A    between atoms: C_11  and  O_12 
REMARK    6  A    between atoms: C_11  and  C_13 
REMARK    7  A    between atoms: C_13  and  O_14 
REMARK    8  A    between atoms: O_14  and  C_15 
ROOT
HETATM    1  C   UNL     1      43.322 -12.745   6.346  1.00  0.00     0.269 C 
HETATM    2  N   UNL     1      44.524 -12.202   6.737  1.00  0.00    -0.353 N 
HETATM    3  O   UNL     1      42.286 -12.091   6.312  1.00  0.00    -0.266 OA
HETATM    4  H   UNL     1      45.353 -12.777   6.751  1.00  0.00     0.162 HD
ENDROOT
BRANCH   1   5
HETATM    5  C   UNL     1      43.362 -14.144   6.019  1.00  0.00     0.120 A 
HETATM    6  N   UNL     1      43.429 -15.105   6.989  1.00  0.00    -0.272 N 
HETATM    7  N   UNL     1      43.502 -16.359   6.518  1.00  0.00    -0.174 NA
HETATM    8  H   UNL     1      43.446 -14.956   7.994  1.00  0.00     0.189 HD
HETATM    9  C   UNL     1      43.433 -16.225   5.186  1.00  0.00     0.089 A 
HETATM   10  C   UNL     1      43.349 -14.849   4.832  1.00  0.00     0.071 A 
BRANCH   9  11
HETATM   11  C   UNL     1      43.460 -17.386   4.292  1.00  0.00    -0.005 A 
HETATM   12  C   UNL     1      44.046 -18.597   4.696  1.00  0.00     0.017 A 
HETATM   13  C   UNL     1      44.060 -19.699   3.837  1.00  0.00     0.043 A 
HETATM   14  C   UNL     1      43.488 -19.596   2.575  1.00  0.00     0.116 A 
HETATM   15  C   UNL     1      42.905 -18.409   2.151  1.00  0.00     0.043 A 
HETATM   16  F   UNL     1      43.501 -20.655   1.755  1.00  0.00    -0.206 F 
HETATM   17  C   UNL     1      42.894 -17.304   3.008  1.00  0.00     0.017 A 
ENDBRANCH   9  11
ENDBRANCH   1   5
BRANCH   2  18
HETATM   18  C   UNL     1      44.670 -10.793   7.084  1.00  0.00     0.156 C 
BRANCH  18  19
HETATM   19  C   UNL     1      45.879 -10.531   7.999  1.00  0.00     0.159 C 
BRANCH  19  20
HETATM   20  O   UNL     1      46.651  -9.440   7.477  1.00  0.00    -0.392 OA
HETATM   21  H   UNL     1      47.451  -9.393   8.032  1.00  0.00     0.210 HD
ENDBRANCH  19  20
BRANCH  19  22
HETATM   22  C   UNL     1      45.437 -10.177   9.425  1.00  0.00     0.201 C 
BRANCH  22  23
HETATM   23  O   UNL     1      44.309 -10.907   9.898  1.00  0.00    -0.383 OA
BRANCH  23  24
HETATM   24  C   UNL     1      43.358 -10.181  10.685  1.00  0.00     0.121 C 
HETATM   25  C   UNL     1      43.839  -8.724  10.693  1.00  0.00     0.032 C 
HETATM   26  C   UNL     1      42.983  -7.831  11.581  1.00  0.00     0.002 C 
HETATM   27  C   UNL     1      42.891  -8.381  12.999  1.00  0.00     0.000 C 
HETATM   28  C   UNL     1      42.391  -9.822  13.005  1.00  0.00     0.002 C 
HETATM   29  C   UNL     1      43.247 -10.721  12.115  1.00  0.00     0.032 C 
ENDBRANCH  23  24
ENDBRANCH  22  23
ENDBRANCH  19  22
ENDBRANCH  18  19
ENDBRANCH   2  18
TORSDOF 8
ENDMDL
MODEL 2
REMARK VINA RESULT:      -8.4      3.626      6.150
REMARK  8 active torsions:
REMARK  status: ('A' for Active; 'I' for Inactive)
REMARK    1  A    between atoms: C_2  and  C_3 
REMARK    2  A    between atoms: C_7  and  C_8 
REMARK       I    between atoms: C_8  and  N_9 
REMARK    3  A    between atoms: N_9  and  C_10 
REMARK    4  A    between atoms: C_10  and  C_11 
REMARK    5  A    between atoms: C_11  and  O_12 
REMARK    6  A    between atoms: C_11  and  C_13 
REMARK    7  A    between atoms: C_13  and  O_14 
REMARK    8  A    between atoms: O_14  and  C_15 
ROOT
HETATM    1  C   UNL     1      43.160 -13.426   6.784  1.00  0.00     0.269 C 
HETATM    2  N   UNL     1      42.043 -12.866   6.211  1.00  0.00    -0.353 N 
HETATM    3  O   UNL     1      44.014 -12.755   7.352  1.00  0.00    -0.266 OA
HETATM    4  H   UNL     1      41.364 -13.456   5.753  1.00  0.00     0.162 HD
ENDROOT
BRANCH   1   5
HETATM    5  C   UNL     1      43.274 -14.851   6.634  1.00  0.00     0.120 A 
HETATM    6  N   UNL     1      43.237 -15.691   7.712  1.00  0.00    -0.272 N 
HETATM    7  N   UNL     1      43.400 -16.987   7.408  1.00  0.00    -0.174 NA
HETATM    8  H   UNL     1      43.121 -15.427   8.687  1.00  0.00     0.189 HD
HETATM    9  C   UNL     1      43.500 -17.011   6.070  1.00  0.00     0.089 A 
HETATM   10  C   UNL     1      43.430 -15.689   5.548  1.00  0.00     0.071 A 
BRANCH   9  11
HETATM   11  C   UNL     1      43.668 -18.266   5.332  1.00  0.00    -0.005 A 
HETATM   12  C   UNL     1      43.802 -18.270   3.934  1.00  0.00     0.017 A 
HETATM   13  C   UNL     1      43.967 -19.473   3.241  1.00  0.00     0.043 A 
HETATM   14  C   UNL     1      44.002 -20.672   3.942  1.00  0.00     0.116 A 
HETATM   15  C   UNL     1      43.868 -20.694   5.324  1.00  0.00     0.043 A 
HETATM   16  F   UNL     1      44.162 -21.822   3.276  1.00  0.00    -0.206 F 
HETATM   17  C   UNL     1      43.698 -19.492   6.018  1.00  0.00     0.017 A 
ENDBRANCH   9  11
ENDBRANCH   1   5
BRANCH   2  18
HETATM   18  C   UNL     1      41.757 -11.438   6.286  1.00  0.00     0.156 C 
BRANCH  18  19
HETATM   19  C   UNL     1      42.217 -10.675   5.033  1.00  0.00     0.159 C 
BRANCH  19  20
HETATM   20  O   UNL     1      43.645 -10.534   5.052  1.00  0.00    -0.392 OA
HETATM   21  H   UNL     1      43.899 -10.296   4.141  1.00  0.00     0.210 HD
ENDBRANCH  19  20
BRANCH  19  22
HETATM   22  C   UNL     1      41.819 -11.413   3.748  1.00  0.00     0.201 C 
BRANCH  22  23
HETATM   23  O   UNL     1      42.732 -12.426   3.336  1.00  0.00    -0.383 OA
BRANCH  23  24
HETATM   24  C   UNL     1      42.216 -13.440   2.466  1.00  0.00     0.121 C 
HETATM   25  C   UNL     1      40.989 -14.025   3.178  1.00  0.00     0.032 C 
HETATM   26  C   UNL     1      40.379 -15.197   2.422  1.00  0.00     0.002 C 
HETATM   27  C   UNL     1      41.415 -16.281   2.146  1.00  0.00     0.000 C 
HETATM   28  C   UNL     1      42.630 -15.716   1.418  1.00  0.00     0.002 C 
HETATM   29  C   UNL     1      43.244 -14.539   2.173  1.00  0.00     0.032 C 
ENDBRANCH  23  24
ENDBRANCH  22  23
ENDBRANCH  19  22
ENDBRANCH  18  19
ENDBRANCH   2  18
TORSDOF 8
ENDMDL
MODEL 3
REMARK VINA RESULT:      -8.3      5.682      8.351
REMARK  8 active torsions:
REMARK  status: ('A' for Active; 'I' for Inactive)
REMARK    1  A    between atoms: C_2  and  C_3 
REMARK    2  A    between atoms: C_7  and  C_8 
REMARK       I    between atoms: C_8  and  N_9 
REMARK    3  A    between atoms: N_9  and  C_10 
REMARK    4  A    between atoms: C_10  and  C_11 
REMARK    5  A    between atoms: C_11  and  O_12 
REMARK    6  A    between atoms: C_11  and  C_13 
REMARK    7  A    between atoms: C_13  and  O_14 
REMARK    8  A    between atoms: O_14  and  C_15 
ROOT
HETATM    1  C   UNL     1      42.734 -12.872   2.964  1.00  0.00     0.269 C 
HETATM    2  N   UNL     1      41.407 -12.511   2.955  1.00  0.00    -0.353 N 
HETATM    3  O   UNL     1      43.636 -12.058   3.132  1.00  0.00    -0.266 OA
HETATM    4  H   UNL     1      40.697 -13.213   2.812  1.00  0.00     0.162 HD
ENDROOT
BRANCH   1   5
HETATM    5  C   UNL     1      42.989 -14.265   2.721  1.00  0.00     0.120 A 
HETATM    6  N   UNL     1      43.196 -14.747   1.458  1.00  0.00    -0.272 N 
HETATM    7  N   UNL     1      43.376 -16.074   1.397  1.00  0.00    -0.174 NA
HETATM    8  H   UNL     1      43.205 -14.210   0.596  1.00  0.00     0.189 HD
HETATM    9  C   UNL     1      43.335 -16.481   2.675  1.00  0.00     0.089 A 
HETATM   10  C   UNL     1      43.089 -15.375   3.536  1.00  0.00     0.071 A 
BRANCH   9  11
HETATM   11  C   UNL     1      43.516 -17.888   3.042  1.00  0.00    -0.005 A 
HETATM   12  C   UNL     1      44.032 -18.247   4.298  1.00  0.00     0.017 A 
HETATM   13  C   UNL     1      44.195 -19.593   4.640  1.00  0.00     0.043 A 
HETATM   14  C   UNL     1      43.841 -20.582   3.730  1.00  0.00     0.116 A 
HETATM   15  C   UNL     1      43.332 -20.252   2.481  1.00  0.00     0.043 A 
HETATM   16  F   UNL     1      43.996 -21.870   4.061  1.00  0.00    -0.206 F 
HETATM   17  C   UNL     1      43.173 -18.906   2.137  1.00  0.00     0.017 A 
ENDBRANCH   9  11
ENDBRANCH   1   5
BRANCH   2  18
HETATM   18  C   UNL     1      40.967 -11.143   3.205  1.00  0.00     0.156 C 
BRANCH  18  19
HETATM   19  C   UNL     1      40.821 -10.322   1.913  1.00  0.00     0.159 C 
BRANCH  19  20
HETATM   20  O   UNL     1      42.116  -9.900   1.461  1.00  0.00    -0.392 OA
HETATM   21  H   UNL     1      42.708  -9.997   2.229  1.00  0.00     0.210 HD
ENDBRANCH  19  20
BRANCH  19  22
HETATM   22  C   UNL     1      40.161 -11.143   0.798  1.00  0.00     0.201 C 
BRANCH  22  23
HETATM   23  O   UNL     1      41.047 -12.000   0.085  1.00  0.00    -0.383 OA
BRANCH  23  24
HETATM   24  C   UNL     1      40.507 -12.678  -1.056  1.00  0.00     0.121 C 
HETATM   25  C   UNL     1      39.443 -11.740  -1.642  1.00  0.00     0.032 C 
HETATM   26  C   UNL     1      38.695 -12.364  -2.812  1.00  0.00     0.002 C 
HETATM   27  C   UNL     1      38.084 -13.707  -2.430  1.00  0.00     0.000 C 
HETATM   28  C   UNL     1      39.136 -14.656  -1.866  1.00  0.00     0.002 C 
HETATM   29  C   UNL     1      39.889 -14.034  -0.693  1.00  0.00     0.032 C 
ENDBRANCH  23  24
ENDBRANCH  22  23
ENDBRANCH  19  22
ENDBRANCH  18  19
ENDBRANCH   2  18
TORSDOF 8
ENDMDL
MODEL 4
REMARK VINA RESULT:      -8.3      5.137      6.432
REMARK  8 active torsions:
REMARK  status: ('A' for Active; 'I' for Inactive)
REMARK    1  A    between atoms: C_2  and  C_3 
REMARK    2  A    between atoms: C_7  and  C_8 
REMARK       I    between atoms: C_8  and  N_9 
REMARK    3  A    between atoms: N_9  and  C_10 
REMARK    4  A    between atoms: C_10  and  C_11 
REMARK    5  A    between atoms: C_11  and  O_12 
REMARK    6  A    between atoms: C_11  and  C_13 
REMARK    7  A    between atoms: C_13  and  O_14 
REMARK    8  A    between atoms: O_14  and  C_15 
ROOT
HETATM    1  C   UNL     1      40.278 -14.179   0.887  1.00  0.00     0.269 C 
HETATM    2  N   UNL     1      39.974 -13.146   1.742  1.00  0.00    -0.353 N 
HETATM    3  O   UNL     1      39.700 -14.338  -0.182  1.00  0.00    -0.266 OA
HETATM    4  H   UNL     1      40.475 -13.052   2.613  1.00  0.00     0.162 HD
ENDROOT
BRANCH   1   5
HETATM    5  C   UNL     1      41.295 -15.080   1.355  1.00  0.00     0.120 A 
HETATM    6  N   UNL     1      42.619 -14.869   1.086  1.00  0.00    -0.272 N 
HETATM    7  N   UNL     1      43.436 -15.823   1.556  1.00  0.00    -0.174 NA
HETATM    8  H   UNL     1      43.019 -14.093   0.566  1.00  0.00     0.189 HD
HETATM    9  C   UNL     1      42.626 -16.674   2.203  1.00  0.00     0.089 A 
HETATM   10  C   UNL     1      41.273 -16.245   2.095  1.00  0.00     0.071 A 
BRANCH   9  11
HETATM   11  C   UNL     1      43.144 -17.863   2.887  1.00  0.00    -0.005 A 
HETATM   12  C   UNL     1      43.159 -19.114   2.251  1.00  0.00     0.017 A 
HETATM   13  C   UNL     1      43.661 -20.239   2.912  1.00  0.00     0.043 A 
HETATM   14  C   UNL     1      44.151 -20.116   4.206  1.00  0.00     0.116 A 
HETATM   15  C   UNL     1      44.143 -18.890   4.857  1.00  0.00     0.043 A 
HETATM   16  F   UNL     1      44.633 -21.195   4.836  1.00  0.00    -0.206 F 
HETATM   17  C   UNL     1      43.637 -17.765   4.199  1.00  0.00     0.017 A 
ENDBRANCH   9  11
ENDBRANCH   1   5
BRANCH   2  18
HETATM   18  C   UNL     1      38.983 -12.127   1.418  1.00  0.00     0.156 C 
BRANCH  18  19
HETATM   19  C   UNL     1      39.001 -10.948   2.406  1.00  0.00     0.159 C 
BRANCH  19  20
HETATM   20  O   UNL     1      37.685 -10.382   2.505  1.00  0.00    -0.392 OA
HETATM   21  H   UNL     1      37.137 -10.877   1.868  1.00  0.00     0.210 HD
ENDBRANCH  19  20
BRANCH  19  22
HETATM   22  C   UNL     1      39.444 -11.394   3.805  1.00  0.00     0.201 C 
BRANCH  22  23
HETATM   23  O   UNL     1      40.845 -11.608   3.945  1.00  0.00    -0.383 OA
BRANCH  23  24
HETATM   24  C   UNL     1      41.257 -12.506   4.983  1.00  0.00     0.121 C 
HETATM   25  C   UNL     1      42.413 -13.328   4.398  1.00  0.00     0.032 C 
HETATM   26  C   UNL     1      42.902 -14.410   5.352  1.00  0.00     0.002 C 
HETATM   27  C   UNL     1      41.760 -15.316   5.797  1.00  0.00     0.000 C 
HETATM   28  C   UNL     1      40.615 -14.511   6.401  1.00  0.00     0.002 C 
HETATM   29  C   UNL     1      40.122 -13.425   5.448  1.00  0.00     0.032 C 
ENDBRANCH  23  24
ENDBRANCH  22  23
ENDBRANCH  19  22
ENDBRANCH  18  19
ENDBRANCH   2  18
TORSDOF 8
ENDMDL
MODEL 5
REMARK VINA RESULT:      -8.2      5.524      6.997
REMARK  8 active torsions:
REMARK  status: ('A' for Active; 'I' for Inactive)
REMARK    1  A    between atoms: C_2  and  C_3 
REMARK    2  A    between atoms: C_7  and  C_8 
REMARK       I    between atoms: C_8  and  N_9 
REMARK    3  A    between atoms: N_9  and  C_10 
REMARK    4  A    between atoms: C_10  and  C_11 
REMARK    5  A    between atoms: C_11  and  O_12 
REMARK    6  A    between atoms: C_11  and  C_13 
REMARK    7  A    between atoms: C_13  and  O_14 
REMARK    8  A    between atoms: O_14  and  C_15 
ROOT
HETATM    1  C   UNL     1      40.264 -13.593  -0.103  1.00  0.00     0.269 C 
HETATM    2  N   UNL     1      41.232 -12.642  -0.327  1.00  0.00    -0.353 N 
HETATM    3  O   UNL     1      39.163 -13.550  -0.640  1.00  0.00    -0.266 OA
HETATM    4  H   UNL     1      42.125 -12.716   0.137  1.00  0.00     0.162 HD
ENDROOT
BRANCH   1   5
HETATM    5  C   UNL     1      40.622 -14.618   0.839  1.00  0.00     0.120 A 
HETATM    6  N   UNL     1      39.699 -15.174   1.680  1.00  0.00    -0.272 N 
HETATM    7  N   UNL     1      40.201 -16.085   2.526  1.00  0.00    -0.174 NA
HETATM    8  H   UNL     1      38.708 -14.952   1.729  1.00  0.00     0.189 HD
HETATM    9  C   UNL     1      41.499 -16.170   2.201  1.00  0.00     0.089 A 
HETATM   10  C   UNL     1      41.804 -15.260   1.149  1.00  0.00     0.071 A 
BRANCH   9  11
HETATM   11  C   UNL     1      42.409 -17.088   2.892  1.00  0.00    -0.005 A 
HETATM   12  C   UNL     1      42.830 -16.835   4.207  1.00  0.00     0.017 A 
HETATM   13  C   UNL     1      43.694 -17.722   4.858  1.00  0.00     0.043 A 
HETATM   14  C   UNL     1      44.135 -18.862   4.199  1.00  0.00     0.116 A 
HETATM   15  C   UNL     1      43.734 -19.132   2.897  1.00  0.00     0.043 A 
HETATM   16  F   UNL     1      44.959 -19.710   4.826  1.00  0.00    -0.206 F 
HETATM   17  C   UNL     1      42.874 -18.244   2.243  1.00  0.00     0.017 A 
ENDBRANCH   9  11
ENDBRANCH   1   5
BRANCH   2  18
HETATM   18  C   UNL     1      41.046 -11.543  -1.268  1.00  0.00     0.156 C 
BRANCH  18  19
HETATM   19  C   UNL     1      41.381 -10.174  -0.652  1.00  0.00     0.159 C 
BRANCH  19  20
HETATM   20  O   UNL     1      40.496  -9.177  -1.184  1.00  0.00    -0.392 OA
HETATM   21  H   UNL     1      40.459  -8.471  -0.512  1.00  0.00     0.210 HD
ENDBRANCH  19  20
BRANCH  19  22
HETATM   22  C   UNL     1      41.231 -10.192   0.874  1.00  0.00     0.201 C 
BRANCH  22  23
HETATM   23  O   UNL     1      42.343 -10.742   1.575  1.00  0.00    -0.383 OA
BRANCH  23  24
HETATM   24  C   UNL     1      42.098 -11.197   2.911  1.00  0.00     0.121 C 
HETATM   25  C   UNL     1      43.064 -12.366   3.144  1.00  0.00     0.032 C 
HETATM   26  C   UNL     1      42.858 -13.034   4.497  1.00  0.00     0.002 C 
HETATM   27  C   UNL     1      41.412 -13.478   4.684  1.00  0.00     0.000 C 
HETATM   28  C   UNL     1      40.444 -12.318   4.477  1.00  0.00     0.002 C 
HETATM   29  C   UNL     1      40.647 -11.646   3.121  1.00  0.00     0.032 C 
ENDBRANCH  23  24
ENDBRANCH  22  23
ENDBRANCH  19  22
ENDBRANCH  18  19
ENDBRANCH   2  18
TORSDOF 8
ENDMDL
MODEL 6
REMARK VINA RESULT:      -8.1      4.357     10.870
REMARK  8 active torsions:
REMARK  status: ('A' for Active; 'I' for Inactive)
REMARK    1  A    between atoms: C_2  and  C_3 
REMARK    2  A    between atoms: C_7  and  C_8 
REMARK       I    between atoms: C_8  and  N_9 
REMARK    3  A    between atoms: N_9  and  C_10 
REMARK    4  A    between atoms: C_10  and  C_11 
REMARK    5  A    between atoms: C_11  and  O_12 
REMARK    6  A    between atoms: C_11  and  C_13 
REMARK    7  A    between atoms: C_13  and  O_14 
REMARK    8  A    between atoms: O_14  and  C_15 
ROOT
HETATM    1  C   UNL     1      44.252 -11.107   8.265  1.00  0.00     0.269 C 
HETATM    2  N   UNL     1      43.557 -12.170   7.738  1.00  0.00    -0.353 N 
HETATM    3  O   UNL     1      45.382 -10.811   7.894  1.00  0.00    -0.266 OA
HETATM    4  H   UNL     1      42.628 -12.378   8.073  1.00  0.00     0.162 HD
ENDROOT
BRANCH   1   5
HETATM    5  C   UNL     1      43.573 -10.392   9.311  1.00  0.00     0.120 A 
HETATM    6  N   UNL     1      42.354  -9.807   9.106  1.00  0.00    -0.272 N 
HETATM    7  N   UNL     1      41.875  -9.143  10.168  1.00  0.00    -0.174 NA
HETATM    8  H   UNL     1      41.811  -9.817   8.247  1.00  0.00     0.189 HD
HETATM    9  C   UNL     1      42.790  -9.336  11.129  1.00  0.00     0.089 A 
HETATM   10  C   UNL     1      43.874 -10.111  10.629  1.00  0.00     0.071 A 
BRANCH   9  11
HETATM   11  C   UNL     1      42.624  -8.779  12.475  1.00  0.00    -0.005 A 
HETATM   12  C   UNL     1      43.380  -7.675  12.899  1.00  0.00     0.017 A 
HETATM   13  C   UNL     1      43.209  -7.149  14.183  1.00  0.00     0.043 A 
HETATM   14  C   UNL     1      42.281  -7.723  15.044  1.00  0.00     0.116 A 
HETATM   15  C   UNL     1      41.523  -8.817  14.648  1.00  0.00     0.043 A 
HETATM   16  F   UNL     1      42.118  -7.216  16.272  1.00  0.00    -0.206 F 
HETATM   17  C   UNL     1      41.697  -9.347  13.366  1.00  0.00     0.017 A 
ENDBRANCH   9  11
ENDBRANCH   1   5
BRANCH   2  18
HETATM   18  C   UNL     1      44.086 -12.991   6.656  1.00  0.00     0.156 C 
BRANCH  18  19
HETATM   19  C   UNL     1      43.685 -14.470   6.784  1.00  0.00     0.159 C 
BRANCH  19  20
HETATM   20  O   UNL     1      43.066 -14.693   8.059  1.00  0.00    -0.392 OA
HETATM   21  H   UNL     1      43.723 -15.180   8.590  1.00  0.00     0.210 HD
ENDBRANCH  19  20
BRANCH  19  22
HETATM   22  C   UNL     1      42.696 -14.881   5.685  1.00  0.00     0.201 C 
BRANCH  22  23
HETATM   23  O   UNL     1      43.302 -15.370   4.492  1.00  0.00    -0.383 OA
BRANCH  23  24
HETATM   24  C   UNL     1      43.048 -16.739   4.157  1.00  0.00     0.121 C 
HETATM   25  C   UNL     1      44.155 -17.554   4.839  1.00  0.00     0.032 C 
HETATM   26  C   UNL     1      44.087 -19.035   4.494  1.00  0.00     0.002 C 
HETATM   27  C   UNL     1      44.099 -19.257   2.986  1.00  0.00     0.000 C 
HETATM   28  C   UNL     1      42.988 -18.469   2.300  1.00  0.00     0.002 C 
HETATM   29  C   UNL     1      43.053 -16.983   2.644  1.00  0.00     0.032 C 
ENDBRANCH  23  24
ENDBRANCH  22  23
ENDBRANCH  19  22
ENDBRANCH  18  19
ENDBRANCH   2  18
TORSDOF 8
ENDMDL
MODEL 7
REMARK VINA RESULT:      -8.1      4.493      5.696
REMARK  8 active torsions:
REMARK  status: ('A' for Active; 'I' for Inactive)
REMARK    1  A    between atoms: C_2  and  C_3 
REMARK    2  A    between atoms: C_7  and  C_8 
REMARK       I    between atoms: C_8  and  N_9 
REMARK    3  A    between atoms: N_9  and  C_10 
REMARK    4  A    between atoms: C_10  and  C_11 
REMARK    5  A    between atoms: C_11  and  O_12 
REMARK    6  A    between atoms: C_11  and  C_13 
REMARK    7  A    between atoms: C_13  and  O_14 
REMARK    8  A    between atoms: O_14  and  C_15 
ROOT
HETATM    1  C   UNL     1      41.072 -13.442   1.928  1.00  0.00     0.269 C 
HETATM    2  N   UNL     1      40.317 -13.143   3.037  1.00  0.00    -0.353 N 
HETATM    3  O   UNL     1      41.049 -12.755   0.913  1.00  0.00    -0.266 OA
HETATM    4  H   UNL     1      40.366 -13.736   3.852  1.00  0.00     0.162 HD
ENDROOT
BRANCH   1   5
HETATM    5  C   UNL     1      41.860 -14.640   2.030  1.00  0.00     0.120 A 
HETATM    6  N   UNL     1      42.898 -14.891   1.176  1.00  0.00    -0.272 N 
HETATM    7  N   UNL     1      43.504 -16.070   1.376  1.00  0.00    -0.174 NA
HETATM    8  H   UNL     1      43.224 -14.293   0.422  1.00  0.00     0.189 HD
HETATM    9  C   UNL     1      42.873 -16.600   2.435  1.00  0.00     0.089 A 
HETATM   10  C   UNL     1      41.832 -15.734   2.872  1.00  0.00     0.071 A 
BRANCH   9  11
HETATM   11  C   UNL     1      43.260 -17.899   2.992  1.00  0.00    -0.005 A 
HETATM   12  C   UNL     1      43.728 -18.010   4.311  1.00  0.00     0.017 A 
HETATM   13  C   UNL     1      44.088 -19.256   4.834  1.00  0.00     0.043 A 
HETATM   14  C   UNL     1      43.980 -20.392   4.042  1.00  0.00     0.116 A 
HETATM   15  C   UNL     1      43.523 -20.307   2.733  1.00  0.00     0.043 A 
HETATM   16  F   UNL     1      44.324 -21.584   4.546  1.00  0.00    -0.206 F 
HETATM   17  C   UNL     1      43.167 -19.061   2.208  1.00  0.00     0.017 A 
ENDBRANCH   9  11
ENDBRANCH   1   5
BRANCH   2  18
HETATM   18  C   UNL     1      39.477 -11.954   3.115  1.00  0.00     0.156 C 
BRANCH  18  19
HETATM   19  C   UNL     1      39.698 -11.156   4.411  1.00  0.00     0.159 C 
BRANCH  19  20
HETATM   20  O   UNL     1      38.515 -10.406   4.723  1.00  0.00    -0.392 OA
HETATM   21  H   UNL     1      38.323 -10.594   5.660  1.00  0.00     0.210 HD
ENDBRANCH  19  20
BRANCH  19  22
HETATM   22  C   UNL     1      40.013 -12.081   5.593  1.00  0.00     0.201 C 
BRANCH  22  23
HETATM   23  O   UNL     1      41.402 -12.243   5.869  1.00  0.00    -0.383 OA
BRANCH  23  24
HETATM   24  C   UNL     1      41.913 -13.580   5.830  1.00  0.00     0.121 C 
HETATM   25  C   UNL     1      40.793 -14.478   6.373  1.00  0.00     0.032 C 
HETATM   26  C   UNL     1      41.219 -15.935   6.492  1.00  0.00     0.002 C 
HETATM   27  C   UNL     1      42.485 -16.078   7.330  1.00  0.00     0.000 C 
HETATM   28  C   UNL     1      43.612 -15.207   6.786  1.00  0.00     0.002 C 
HETATM   29  C   UNL     1      43.188 -13.745   6.664  1.00  0.00     0.032 C 
ENDBRANCH  23  24
ENDBRANCH  22  23
ENDBRANCH  19  22
ENDBRANCH  18  19
ENDBRANCH   2  18
TORSDOF 8
ENDMDL
MODEL 8
REMARK VINA RESULT:      -8.1      5.516      8.810
REMARK  8 active torsions:
REMARK  status: ('A' for Active; 'I' for Inactive)
REMARK    1  A    between atoms: C_2  and  C_3 
REMARK    2  A    between atoms: C_7  and  C_8 
REMARK       I    between atoms: C_8  and  N_9 
REMARK    3  A    between atoms: N_9  and  C_10 
REMARK    4  A    between atoms: C_10  and  C_11 
REMARK    5  A    between atoms: C_11  and  O_12 
REMARK    6  A    between atoms: C_11  and  C_13 
REMARK    7  A    between atoms: C_13  and  O_14 
REMARK    8  A    between atoms: O_14  and  C_15 
ROOT
HETATM    1  C   UNL     1      40.891 -15.646   4.792  1.00  0.00     0.269 C 
HETATM    2  N   UNL     1      41.780 -15.097   5.685  1.00  0.00    -0.353 N 
HETATM    3  O   UNL     1      40.182 -16.605   5.076  1.00  0.00    -0.266 OA
HETATM    4  H   UNL     1      42.346 -14.308   5.409  1.00  0.00     0.162 HD
ENDROOT
BRANCH   1   5
HETATM    5  C   UNL     1      40.883 -15.041   3.488  1.00  0.00     0.120 A 
HETATM    6  N   UNL     1      42.039 -14.656   2.869  1.00  0.00    -0.272 N 
HETATM    7  N   UNL     1      41.857 -14.069   1.677  1.00  0.00    -0.174 NA
HETATM    8  H   UNL     1      42.984 -14.754   3.229  1.00  0.00     0.189 HD
HETATM    9  C   UNL     1      40.532 -14.111   1.477  1.00  0.00     0.089 A 
HETATM   10  C   UNL     1      39.884 -14.710   2.594  1.00  0.00     0.071 A 
BRANCH   9  11
HETATM   11  C   UNL     1      39.919 -13.581   0.256  1.00  0.00    -0.005 A 
HETATM   12  C   UNL     1      39.199 -12.375   0.274  1.00  0.00     0.017 A 
HETATM   13  C   UNL     1      38.623 -11.876  -0.899  1.00  0.00     0.043 A 
HETATM   14  C   UNL     1      38.768 -12.577  -2.090  1.00  0.00     0.116 A 
HETATM   15  C   UNL     1      39.473 -13.773  -2.131  1.00  0.00     0.043 A 
HETATM   16  F   UNL     1      38.218 -12.096  -3.211  1.00  0.00    -0.206 F 
HETATM   17  C   UNL     1      40.045 -14.275  -0.959  1.00  0.00     0.017 A 
ENDBRANCH   9  11
ENDBRANCH   1   5
BRANCH   2  18
HETATM   18  C   UNL     1      41.906 -15.572   7.058  1.00  0.00     0.156 C 
BRANCH  18  19
HETATM   19  C   UNL     1      43.350 -15.952   7.423  1.00  0.00     0.159 C 
BRANCH  19  20
HETATM   20  O   UNL     1      43.479 -16.042   8.850  1.00  0.00    -0.392 OA
HETATM   21  H   UNL     1      44.328 -15.613   9.065  1.00  0.00     0.210 HD
ENDBRANCH  19  20
BRANCH  19  22
HETATM   22  C   UNL     1      43.747 -17.303   6.814  1.00  0.00     0.201 C 
BRANCH  22  23
HETATM   23  O   UNL     1      44.086 -17.256   5.431  1.00  0.00    -0.383 OA
BRANCH  23  24
HETATM   24  C   UNL     1      43.484 -18.245   4.588  1.00  0.00     0.121 C 
HETATM   25  C   UNL     1      44.272 -19.540   4.826  1.00  0.00     0.032 C 
HETATM   26  C   UNL     1      43.817 -20.676   3.919  1.00  0.00     0.002 C 
HETATM   27  C   UNL     1      43.869 -20.270   2.451  1.00  0.00     0.000 C 
HETATM   28  C   UNL     1      43.070 -18.996   2.198  1.00  0.00     0.002 C 
HETATM   29  C   UNL     1      43.523 -17.855   3.106  1.00  0.00     0.032 C 
ENDBRANCH  23  24
ENDBRANCH  22  23
ENDBRANCH  19  22
ENDBRANCH  18  19
ENDBRANCH   2  18
TORSDOF 8
ENDMDL
MODEL 9
REMARK VINA RESULT:      -8.0      7.226      9.511
REMARK  8 active torsions:
REMARK  status: ('A' for Active; 'I' for Inactive)
REMARK    1  A    between atoms: C_2  and  C_3 
REMARK    2  A    between atoms: C_7  and  C_8 
REMARK       I    between atoms: C_8  and  N_9 
REMARK    3  A    between atoms: N_9  and  C_10 
REMARK    4  A    between atoms: C_10  and  C_11 
REMARK    5  A    between atoms: C_11  and  O_12 
REMARK    6  A    between atoms: C_11  and  C_13 
REMARK    7  A    between atoms: C_13  and  O_14 
REMARK    8  A    between atoms: O_14  and  C_15 
ROOT
HETATM    1  C   UNL     1      40.863 -14.195   0.740  1.00  0.00     0.269 C 
HETATM    2  N   UNL     1      40.973 -14.095  -0.627  1.00  0.00    -0.353 N 
HETATM    3  O   UNL     1      40.064 -13.527   1.386  1.00  0.00    -0.266 OA
HETATM    4  H   UNL     1      41.645 -14.663  -1.119  1.00  0.00     0.162 HD
ENDROOT
BRANCH   1   5
HETATM    5  C   UNL     1      41.781 -15.110   1.360  1.00  0.00     0.120 A 
HETATM    6  N   UNL     1      43.134 -14.971   1.225  1.00  0.00    -0.272 N 
HETATM    7  N   UNL     1      43.851 -15.930   1.829  1.00  0.00    -0.174 NA
HETATM    8  H   UNL     1      43.623 -14.243   0.711  1.00  0.00     0.189 HD
HETATM    9  C   UNL     1      42.937 -16.709   2.428  1.00  0.00     0.089 A 
HETATM   10  C   UNL     1      41.626 -16.230   2.153  1.00  0.00     0.071 A 
BRANCH   9  11
HETATM   11  C   UNL     1      43.323 -17.877   3.224  1.00  0.00    -0.005 A 
HETATM   12  C   UNL     1      43.564 -17.765   4.603  1.00  0.00     0.017 A 
HETATM   13  C   UNL     1      43.926 -18.888   5.353  1.00  0.00     0.043 A 
HETATM   14  C   UNL     1      44.046 -20.124   4.730  1.00  0.00     0.116 A 
HETATM   15  C   UNL     1      43.816 -20.259   3.367  1.00  0.00     0.043 A 
HETATM   16  F   UNL     1      44.390 -21.197   5.451  1.00  0.00    -0.206 F 
HETATM   17  C   UNL     1      43.458 -19.136   2.614  1.00  0.00     0.017 A 
ENDBRANCH   9  11
ENDBRANCH   1   5
BRANCH   2  18
HETATM   18  C   UNL     1      40.107 -13.231  -1.420  1.00  0.00     0.156 C 
BRANCH  18  19
HETATM   19  C   UNL     1      40.895 -12.316  -2.373  1.00  0.00     0.159 C 
BRANCH  19  20
HETATM   20  O   UNL     1      41.401 -13.087  -3.473  1.00  0.00    -0.392 OA
HETATM   21  H   UNL     1      41.012 -13.975  -3.373  1.00  0.00     0.210 HD
ENDBRANCH  19  20
BRANCH  19  22
HETATM   22  C   UNL     1      40.012 -11.193  -2.932  1.00  0.00     0.201 C 
BRANCH  22  23
HETATM   23  O   UNL     1      40.251  -9.909  -2.362  1.00  0.00    -0.383 OA
BRANCH  23  24
HETATM   24  C   UNL     1      41.475  -9.261  -2.728  1.00  0.00     0.121 C 
HETATM   25  C   UNL     1      41.983  -8.568  -1.457  1.00  0.00     0.032 C 
HETATM   26  C   UNL     1      43.238  -7.741  -1.705  1.00  0.00     0.002 C 
HETATM   27  C   UNL     1      43.026  -6.732  -2.827  1.00  0.00     0.000 C 
HETATM   28  C   UNL     1      42.542  -7.413  -4.102  1.00  0.00     0.002 C 
HETATM   29  C   UNL     1      41.285  -8.243  -3.858  1.00  0.00     0.032 C 
ENDBRANCH  23  24
ENDBRANCH  22  23
ENDBRANCH  19  22
ENDBRANCH  18  19
ENDBRANCH   2  18
TORSDOF 8
ENDMDL
MODEL 10
REMARK VINA RESULT:      -8.0      2.759      4.062
REMARK  8 active torsions:
REMARK  status: ('A' for Active; 'I' for Inactive)
REMARK    1  A    between atoms: C_2  and  C_3 
REMARK    2  A    between atoms: C_7  and  C_8 
REMARK       I    between atoms: C_8  and  N_9 
REMARK    3  A    between atoms: N_9  and  C_10 
REMARK    4  A    between atoms: C_10  and  C_11 
REMARK    5  A    between atoms: C_11  and  O_12 
REMARK    6  A    between atoms: C_11  and  C_13 
REMARK    7  A    between atoms: C_13  and  O_14 
REMARK    8  A    between atoms: O_14  and  C_15 
ROOT
HETATM    1  C   UNL     1      42.024 -12.449   3.351  1.00  0.00     0.269 C 
HETATM    2  N   UNL     1      40.960 -12.408   4.222  1.00  0.00    -0.353 N 
HETATM    3  O   UNL     1      42.492 -11.440   2.837  1.00  0.00    -0.266 OA
HETATM    4  H   UNL     1      40.605 -13.264   4.622  1.00  0.00     0.162 HD
ENDROOT
BRANCH   1   5
HETATM    5  C   UNL     1      42.520 -13.766   3.056  1.00  0.00     0.120 A 
HETATM    6  N   UNL     1      43.167 -14.043   1.884  1.00  0.00    -0.272 N 
HETATM    7  N   UNL     1      43.529 -15.326   1.743  1.00  0.00    -0.174 NA
HETATM    8  H   UNL     1      43.371 -13.389   1.133  1.00  0.00     0.189 HD
HETATM    9  C   UNL     1      43.150 -15.912   2.888  1.00  0.00     0.089 A 
HETATM   10  C   UNL     1      42.508 -14.967   3.737  1.00  0.00     0.071 A 
BRANCH   9  11
HETATM   11  C   UNL     1      43.390 -17.336   3.143  1.00  0.00    -0.005 A 
HETATM   12  C   UNL     1      43.118 -18.302   2.160  1.00  0.00     0.017 A 
HETATM   13  C   UNL     1      43.357 -19.656   2.412  1.00  0.00     0.043 A 
HETATM   14  C   UNL     1      43.871 -20.047   3.643  1.00  0.00     0.116 A 
HETATM   15  C   UNL     1      44.145 -19.111   4.631  1.00  0.00     0.043 A 
HETATM   16  F   UNL     1      44.101 -21.345   3.880  1.00  0.00    -0.206 F 
HETATM   17  C   UNL     1      43.902 -17.757   4.382  1.00  0.00     0.017 A 
ENDBRANCH   9  11
ENDBRANCH   1   5
BRANCH   2  18
HETATM   18  C   UNL     1      40.346 -11.156   4.648  1.00  0.00     0.156 C 
BRANCH  18  19
HETATM   19  C   UNL     1      40.475 -10.918   6.162  1.00  0.00     0.159 C 
BRANCH  19  20
HETATM   20  O   UNL     1      40.136 -12.120   6.869  1.00  0.00    -0.392 OA
HETATM   21  H   UNL     1      40.694 -12.122   7.668  1.00  0.00     0.210 HD
ENDBRANCH  19  20
BRANCH  19  22
HETATM   22  C   UNL     1      41.904 -10.514   6.547  1.00  0.00     0.201 C 
BRANCH  22  23
HETATM   23  O   UNL     1      42.801 -11.605   6.732  1.00  0.00    -0.383 OA
BRANCH  23  24
HETATM   24  C   UNL     1      43.980 -11.344   7.504  1.00  0.00     0.121 C 
HETATM   25  C   UNL     1      43.675 -10.086   8.328  1.00  0.00     0.032 C 
HETATM   26  C   UNL     1      44.876  -9.612   9.135  1.00  0.00     0.002 C 
HETATM   27  C   UNL     1      46.095  -9.397   8.245  1.00  0.00     0.000 C 
HETATM   28  C   UNL     1      46.420 -10.649   7.438  1.00  0.00     0.002 C 
HETATM   29  C   UNL     1      45.218 -11.127   6.627  1.00  0.00     0.032 C 
ENDBRANCH  23  24
ENDBRANCH  22  23
ENDBRANCH  19  22
ENDBRANCH  18  19
ENDBRANCH   2  18
TORSDOF 8
ENDMDL
