MODEL 1
REMARK VINA RESULT:      -9.2      0.000      0.000
REMARK  4 active torsions:
REMARK  status: ('A' for Active; 'I' for Inactive)
REMARK    1  A    between atoms: C_4  and  C_5 
REMARK    2  A    between atoms: C_9  and  C_10 
REMARK       I    between atoms: C_10  and  N_11 
REMARK    3  A    between atoms: N_11  and  N_12 
REMARK    4  A    between atoms: C_13  and  C_14 
ROOT
HETATM    1  C   UNL     1      44.485 -11.211   8.202  1.00  0.00     0.289 C 
HETATM    2  N   UNL     1      43.526 -12.152   7.862  1.00  0.00    -0.242 N 
HETATM    3  O   UNL     1      45.602 -11.150   7.694  1.00  0.00    -0.264 OA
HETATM    4  H   UNL     1      42.630 -12.165   8.331  1.00  0.00     0.192 HD
ENDROOT
BRANCH   1   5
HETATM    5  C   UNL     1      44.082 -10.283   9.230  1.00  0.00     0.121 A 
HETATM    6  N   UNL     1      44.038  -8.938   8.991  1.00  0.00    -0.272 N 
HETATM    7  N   UNL     1      43.671  -8.202  10.049  1.00  0.00    -0.174 NA
HETATM    8  H   UNL     1      44.262  -8.470   8.117  1.00  0.00     0.189 HD
HETATM    9  C   UNL     1      43.435  -9.096  11.022  1.00  0.00     0.089 A 
HETATM   10  C   UNL     1      43.684 -10.416  10.546  1.00  0.00     0.071 A 
BRANCH   9  11
HETATM   11  C   UNL     1      43.001  -8.683  12.360  1.00  0.00    -0.006 A 
HETATM   12  C   UNL     1      43.540  -7.546  12.981  1.00  0.00     0.014 A 
HETATM   13  C   UNL     1      43.109  -7.157  14.253  1.00  0.00     0.001 A 
HETATM   14  C   UNL     1      42.136  -7.898  14.920  1.00  0.00     0.000 A 
HETATM   15  C   UNL     1      41.595  -9.031  14.319  1.00  0.00     0.001 A 
HETATM   16  C   UNL     1      42.026  -9.422  13.048  1.00  0.00     0.014 A 
ENDBRANCH   9  11
ENDBRANCH   1   5
BRANCH   2  17
HETATM   17  N   UNL     1      43.800 -13.100   6.915  1.00  0.00    -0.182 NA
HETATM   18  C   UNL     1      42.805 -13.844   6.556  1.00  0.00     0.168 C 
BRANCH  18  19
HETATM   19  C   UNL     1      43.004 -14.870   5.572  1.00  0.00     0.052 A 
HETATM   20  N   UNL     1      43.472 -16.131   5.877  1.00  0.00    -0.358 N 
HETATM   21  H   UNL     1      43.708 -16.433   6.815  1.00  0.00     0.166 HD
HETATM   22  C   UNL     1      43.552 -16.874   4.734  1.00  0.00     0.016 A 
HETATM   23  C   UNL     1      43.130 -16.096   3.676  1.00  0.00    -0.033 A 
HETATM   24  C   UNL     1      43.988 -18.294   4.663  1.00  0.00     0.057 C 
HETATM   25  C   UNL     1      43.105 -16.596   2.272  1.00  0.00     0.040 C 
HETATM   26  C   UNL     1      42.788 -14.828   4.205  1.00  0.00     0.040 A 
HETATM   27  C   UNL     1      43.204 -18.134   2.233  1.00  0.00     0.005 C 
HETATM   28  C   UNL     1      44.276 -18.675   3.199  1.00  0.00     0.006 C 
ENDBRANCH  18  19
ENDBRANCH   2  17
TORSDOF 4
ENDMDL
MODEL 2
REMARK VINA RESULT:      -9.1      1.209      1.624
REMARK  4 active torsions:
REMARK  status: ('A' for Active; 'I' for Inactive)
REMARK    1  A    between atoms: C_4  and  C_5 
REMARK    2  A    between atoms: C_9  and  C_10 
REMARK       I    between atoms: C_10  and  N_11 
REMARK    3  A    between atoms: N_11  and  N_12 
REMARK    4  A    between atoms: C_13  and  C_14 
ROOT
HETATM    1  C   UNL     1      44.408 -11.524   7.203  1.00  0.00     0.289 C 
HETATM    2  N   UNL     1      43.466 -12.540   7.238  1.00  0.00    -0.242 N 
HETATM    3  O   UNL     1      45.215 -11.362   6.291  1.00  0.00    -0.264 OA
HETATM    4  H   UNL     1      42.841 -12.635   8.028  1.00  0.00     0.192 HD
ENDROOT
BRANCH   1   5
HETATM    5  C   UNL     1      44.389 -10.645   8.347  1.00  0.00     0.121 A 
HETATM    6  N   UNL     1      45.508 -10.453   9.108  1.00  0.00    -0.272 N 
HETATM    7  N   UNL     1      45.329  -9.630  10.151  1.00  0.00    -0.174 NA
HETATM    8  H   UNL     1      46.422 -10.873   8.961  1.00  0.00     0.189 HD
HETATM    9  C   UNL     1      44.048  -9.240  10.064  1.00  0.00     0.089 A 
HETATM   10  C   UNL     1      43.423  -9.859   8.942  1.00  0.00     0.071 A 
BRANCH   9  11
HETATM   11  C   UNL     1      43.455  -8.317  11.036  1.00  0.00    -0.006 A 
HETATM   12  C   UNL     1      43.542  -8.560  12.416  1.00  0.00     0.014 A 
HETATM   13  C   UNL     1      42.980  -7.666  13.333  1.00  0.00     0.001 A 
HETATM   14  C   UNL     1      42.326  -6.520  12.884  1.00  0.00     0.000 A 
HETATM   15  C   UNL     1      42.228  -6.269  11.519  1.00  0.00     0.001 A 
HETATM   16  C   UNL     1      42.787  -7.163  10.601  1.00  0.00     0.014 A 
ENDBRANCH   9  11
ENDBRANCH   1   5
BRANCH   2  17
HETATM   17  N   UNL     1      43.403 -13.452   6.221  1.00  0.00    -0.182 NA
HETATM   18  C   UNL     1      43.577 -14.688   6.559  1.00  0.00     0.168 C 
BRANCH  18  19
HETATM   19  C   UNL     1      43.534 -15.712   5.553  1.00  0.00     0.052 A 
HETATM   20  N   UNL     1      43.984 -16.999   5.762  1.00  0.00    -0.358 N 
HETATM   21  H   UNL     1      44.377 -17.323   6.638  1.00  0.00     0.166 HD
HETATM   22  C   UNL     1      43.808 -17.732   4.624  1.00  0.00     0.016 A 
HETATM   23  C   UNL     1      43.235 -16.921   3.666  1.00  0.00    -0.033 A 
HETATM   24  C   UNL     1      44.149 -19.171   4.470  1.00  0.00     0.057 C 
HETATM   25  C   UNL     1      42.919 -17.404   2.291  1.00  0.00     0.040 C 
HETATM   26  C   UNL     1      43.066 -15.644   4.252  1.00  0.00     0.040 A 
HETATM   27  C   UNL     1      42.929 -18.945   2.232  1.00  0.00     0.005 C 
HETATM   28  C   UNL     1      44.135 -19.550   2.977  1.00  0.00     0.006 C 
ENDBRANCH  18  19
ENDBRANCH   2  17
TORSDOF 4
ENDMDL
MODEL 3
REMARK VINA RESULT:      -8.6      1.630      2.370
REMARK  4 active torsions:
REMARK  status: ('A' for Active; 'I' for Inactive)
REMARK    1  A    between atoms: C_4  and  C_5 
REMARK    2  A    between atoms: C_9  and  C_10 
REMARK       I    between atoms: C_10  and  N_11 
REMARK    3  A    between atoms: N_11  and  N_12 
REMARK    4  A    between atoms: C_13  and  C_14 
ROOT
HETATM    1  C   UNL     1      44.756 -11.230   7.484  1.00  0.00     0.289 C 
HETATM    2  N   UNL     1      43.709 -12.135   7.556  1.00  0.00    -0.242 N 
HETATM    3  O   UNL     1      45.824 -11.454   6.921  1.00  0.00    -0.264 OA
HETATM    4  H   UNL     1      42.860 -11.900   8.053  1.00  0.00     0.192 HD
ENDROOT
BRANCH   1   5
HETATM    5  C   UNL     1      44.510  -9.971   8.143  1.00  0.00     0.121 A 
HETATM    6  N   UNL     1      45.352  -8.907   7.971  1.00  0.00    -0.272 N 
HETATM    7  N   UNL     1      45.009  -7.815   8.667  1.00  0.00    -0.174 NA
HETATM    8  H   UNL     1      46.188  -8.882   7.393  1.00  0.00     0.189 HD
HETATM    9  C   UNL     1      43.879  -8.157   9.305  1.00  0.00     0.089 A 
HETATM   10  C   UNL     1      43.534  -9.506   9.002  1.00  0.00     0.071 A 
BRANCH   9  11
HETATM   11  C   UNL     1      43.174  -7.218  10.183  1.00  0.00    -0.006 A 
HETATM   12  C   UNL     1      42.849  -7.561  11.504  1.00  0.00     0.014 A 
HETATM   13  C   UNL     1      42.186  -6.651  12.334  1.00  0.00     0.001 A 
HETATM   14  C   UNL     1      41.839  -5.390  11.855  1.00  0.00     0.000 A 
HETATM   15  C   UNL     1      42.150  -5.037  10.545  1.00  0.00     0.001 A 
HETATM   16  C   UNL     1      42.811  -5.946   9.714  1.00  0.00     0.014 A 
ENDBRANCH   9  11
ENDBRANCH   1   5
BRANCH   2  17
HETATM   17  N   UNL     1      43.833 -13.373   6.989  1.00  0.00    -0.182 NA
HETATM   18  C   UNL     1      43.270 -13.524   5.834  1.00  0.00     0.168 C 
BRANCH  18  19
HETATM   19  C   UNL     1      43.344 -14.794   5.169  1.00  0.00     0.052 A 
HETATM   20  N   UNL     1      42.957 -14.987   3.859  1.00  0.00    -0.358 N 
HETATM   21  H   UNL     1      42.594 -14.251   3.265  1.00  0.00     0.166 HD
HETATM   22  C   UNL     1      43.148 -16.295   3.517  1.00  0.00     0.016 A 
HETATM   23  C   UNL     1      43.668 -16.961   4.608  1.00  0.00    -0.033 A 
HETATM   24  C   UNL     1      42.872 -16.881   2.178  1.00  0.00     0.057 C 
HETATM   25  C   UNL     1      43.983 -18.418   4.583  1.00  0.00     0.040 C 
HETATM   26  C   UNL     1      43.788 -16.014   5.653  1.00  0.00     0.040 A 
HETATM   27  C   UNL     1      44.044 -18.945   3.135  1.00  0.00     0.005 C 
HETATM   28  C   UNL     1      42.880 -18.418   2.273  1.00  0.00     0.006 C 
ENDBRANCH  18  19
ENDBRANCH   2  17
TORSDOF 4
ENDMDL
MODEL 4
REMARK VINA RESULT:      -8.4      1.876     10.631
REMARK  4 active torsions:
REMARK  status: ('A' for Active; 'I' for Inactive)
REMARK    1  A    between atoms: C_4  and  C_5 
REMARK    2  A    between atoms: C_9  and  C_10 
REMARK       I    between atoms: C_10  and  N_11 
REMARK    3  A    between atoms: N_11  and  N_12 
REMARK    4  A    between atoms: C_13  and  C_14 
ROOT
HETATM    1  C   UNL     1      42.415 -10.556   6.694  1.00  0.00     0.289 C 
HETATM    2  N   UNL     1      43.138 -10.721   7.864  1.00  0.00    -0.242 N 
HETATM    3  O   UNL     1      41.544  -9.705   6.535  1.00  0.00    -0.264 OA
HETATM    4  H   UNL     1      43.830 -11.455   7.942  1.00  0.00     0.192 HD
ENDROOT
BRANCH   1   5
HETATM    5  C   UNL     1      42.752 -11.484   5.641  1.00  0.00     0.121 A 
HETATM    6  N   UNL     1      43.441 -11.075   4.534  1.00  0.00    -0.272 N 
HETATM    7  N   UNL     1      43.657 -12.043   3.632  1.00  0.00    -0.174 NA
HETATM    8  H   UNL     1      43.778 -10.136   4.341  1.00  0.00     0.189 HD
HETATM    9  C   UNL     1      43.114 -13.143   4.174  1.00  0.00     0.089 A 
HETATM   10  C   UNL     1      42.533 -12.832   5.438  1.00  0.00     0.071 A 
BRANCH   9  11
HETATM   11  C   UNL     1      43.146 -14.438   3.487  1.00  0.00    -0.006 A 
HETATM   12  C   UNL     1      43.224 -14.517   2.088  1.00  0.00     0.014 A 
HETATM   13  C   UNL     1      43.265 -15.759   1.445  1.00  0.00     0.001 A 
HETATM   14  C   UNL     1      43.227 -16.935   2.191  1.00  0.00     0.000 A 
HETATM   15  C   UNL     1      43.145 -16.872   3.579  1.00  0.00     0.001 A 
HETATM   16  C   UNL     1      43.102 -15.632   4.223  1.00  0.00     0.014 A 
ENDBRANCH   9  11
ENDBRANCH   1   5
BRANCH   2  17
HETATM   17  N   UNL     1      42.891  -9.916   8.942  1.00  0.00    -0.182 NA
HETATM   18  C   UNL     1      43.213 -10.403  10.096  1.00  0.00     0.168 C 
BRANCH  18  19
HETATM   19  C   UNL     1      42.983  -9.629  11.283  1.00  0.00     0.052 A 
HETATM   20  N   UNL     1      41.966  -9.896  12.176  1.00  0.00    -0.358 N 
HETATM   21  H   UNL     1      41.306 -10.658  12.067  1.00  0.00     0.166 HD
HETATM   22  C   UNL     1      42.008  -8.989  13.196  1.00  0.00     0.016 A 
HETATM   23  C   UNL     1      43.062  -8.128  12.972  1.00  0.00    -0.033 A 
HETATM   24  C   UNL     1      41.089  -8.970  14.365  1.00  0.00     0.057 C 
HETATM   25  C   UNL     1      43.386  -7.000  13.892  1.00  0.00     0.040 C 
HETATM   26  C   UNL     1      43.675  -8.529  11.761  1.00  0.00     0.040 A 
HETATM   27  C   UNL     1      42.689  -7.183  15.255  1.00  0.00     0.005 C 
HETATM   28  C   UNL     1      41.220  -7.627  15.106  1.00  0.00     0.006 C 
ENDBRANCH  18  19
ENDBRANCH   2  17
TORSDOF 4
ENDMDL
MODEL 5
REMARK VINA RESULT:      -8.4      2.256     10.799
REMARK  4 active torsions:
REMARK  status: ('A' for Active; 'I' for Inactive)
REMARK    1  A    between atoms: C_4  and  C_5 
REMARK    2  A    between atoms: C_9  and  C_10 
REMARK       I    between atoms: C_10  and  N_11 
REMARK    3  A    between atoms: N_11  and  N_12 
REMARK    4  A    between atoms: C_13  and  C_14 
ROOT
HETATM    1  C   UNL     1      42.475 -13.302   4.468  1.00  0.00     0.289 C 
HETATM    2  N   UNL     1      43.306 -12.871   5.491  1.00  0.00    -0.242 N 
HETATM    3  O   UNL     1      41.510 -12.667   4.050  1.00  0.00    -0.264 OA
HETATM    4  H   UNL     1      44.074 -13.449   5.806  1.00  0.00     0.192 HD
ENDROOT
BRANCH   1   5
HETATM    5  C   UNL     1      42.819 -14.588   3.913  1.00  0.00     0.121 A 
HETATM    6  N   UNL     1      43.175 -14.719   2.600  1.00  0.00    -0.272 N 
HETATM    7  N   UNL     1      43.441 -15.977   2.224  1.00  0.00    -0.174 NA
HETATM    8  H   UNL     1      43.242 -13.973   1.912  1.00  0.00     0.189 HD
HETATM    9  C   UNL     1      43.281 -16.708   3.338  1.00  0.00     0.089 A 
HETATM   10  C   UNL     1      42.888 -15.870   4.421  1.00  0.00     0.071 A 
BRANCH   9  11
HETATM   11  C   UNL     1      43.486 -18.160   3.344  1.00  0.00    -0.006 A 
HETATM   12  C   UNL     1      43.212 -18.938   2.209  1.00  0.00     0.014 A 
HETATM   13  C   UNL     1      43.424 -20.321   2.225  1.00  0.00     0.001 A 
HETATM   14  C   UNL     1      43.910 -20.941   3.374  1.00  0.00     0.000 A 
HETATM   15  C   UNL     1      44.182 -20.183   4.509  1.00  0.00     0.001 A 
HETATM   16  C   UNL     1      43.970 -18.802   4.495  1.00  0.00     0.014 A 
ENDBRANCH   9  11
ENDBRANCH   1   5
BRANCH   2  17
HETATM   17  N   UNL     1      43.066 -11.677   6.112  1.00  0.00    -0.182 NA
HETATM   18  C   UNL     1      43.564 -11.549   7.299  1.00  0.00     0.168 C 
BRANCH  18  19
HETATM   19  C   UNL     1      43.355 -10.330   8.028  1.00  0.00     0.052 A 
HETATM   20  N   UNL     1      43.413 -10.251   9.404  1.00  0.00    -0.358 N 
HETATM   21  H   UNL     1      43.608 -11.042  10.006  1.00  0.00     0.166 HD
HETATM   22  C   UNL     1      43.174  -8.964   9.795  1.00  0.00     0.016 A 
HETATM   23  C   UNL     1      42.964  -8.197   8.668  1.00  0.00    -0.033 A 
HETATM   24  C   UNL     1      43.179  -8.481  11.202  1.00  0.00     0.057 C 
HETATM   25  C   UNL     1      42.659  -6.739   8.736  1.00  0.00     0.040 C 
HETATM   26  C   UNL     1      43.074  -9.060   7.552  1.00  0.00     0.040 A 
HETATM   27  C   UNL     1      43.011  -6.166  10.124  1.00  0.00     0.005 C 
HETATM   28  C   UNL     1      42.539  -7.081  11.270  1.00  0.00     0.006 C 
ENDBRANCH  18  19
ENDBRANCH   2  17
TORSDOF 4
ENDMDL
MODEL 6
REMARK VINA RESULT:      -8.0      8.426     10.882
REMARK  4 active torsions:
REMARK  status: ('A' for Active; 'I' for Inactive)
REMARK    1  A    between atoms: C_4  and  C_5 
REMARK    2  A    between atoms: C_9  and  C_10 
REMARK       I    between atoms: C_10  and  N_11 
REMARK    3  A    between atoms: N_11  and  N_12 
REMARK    4  A    between atoms: C_13  and  C_14 
ROOT
HETATM    1  C   UNL     1      40.740 -13.624  -0.088  1.00  0.00     0.289 C 
HETATM    2  N   UNL     1      41.826 -13.868   0.739  1.00  0.00    -0.242 N 
HETATM    3  O   UNL     1      39.864 -14.448  -0.337  1.00  0.00    -0.264 OA
HETATM    4  H   UNL     1      42.527 -13.155   0.890  1.00  0.00     0.192 HD
ENDROOT
BRANCH   1   5
HETATM    5  C   UNL     1      40.706 -12.302  -0.664  1.00  0.00     0.121 A 
HETATM    6  N   UNL     1      40.122 -11.258  -0.002  1.00  0.00    -0.272 N 
HETATM    7  N   UNL     1      40.144 -10.098  -0.674  1.00  0.00    -0.174 NA
HETATM    8  H   UNL     1      39.681 -11.290   0.913  1.00  0.00     0.189 HD
HETATM    9  C   UNL     1      40.792 -10.377  -1.815  1.00  0.00     0.089 A 
HETATM   10  C   UNL     1      41.160 -11.754  -1.846  1.00  0.00     0.071 A 
BRANCH   9  11
HETATM   11  C   UNL     1      41.031  -9.353  -2.837  1.00  0.00    -0.006 A 
HETATM   12  C   UNL     1      40.438  -9.439  -4.106  1.00  0.00     0.014 A 
HETATM   13  C   UNL     1      40.665  -8.449  -5.067  1.00  0.00     0.001 A 
HETATM   14  C   UNL     1      41.486  -7.363  -4.774  1.00  0.00     0.000 A 
HETATM   15  C   UNL     1      42.086  -7.266  -3.521  1.00  0.00     0.001 A 
HETATM   16  C   UNL     1      41.861  -8.256  -2.560  1.00  0.00     0.014 A 
ENDBRANCH   9  11
ENDBRANCH   1   5
BRANCH   2  17
HETATM   17  N   UNL     1      41.980 -15.094   1.324  1.00  0.00    -0.182 NA
HETATM   18  C   UNL     1      43.034 -15.239   2.059  1.00  0.00     0.168 C 
BRANCH  18  19
HETATM   19  C   UNL     1      43.280 -16.497   2.707  1.00  0.00     0.052 A 
HETATM   20  N   UNL     1      43.369 -17.694   2.028  1.00  0.00    -0.358 N 
HETATM   21  H   UNL     1      43.273 -17.781   1.023  1.00  0.00     0.166 HD
HETATM   22  C   UNL     1      43.608 -18.703   2.917  1.00  0.00     0.016 A 
HETATM   23  C   UNL     1      43.680 -18.162   4.184  1.00  0.00    -0.033 A 
HETATM   24  C   UNL     1      43.794 -20.135   2.560  1.00  0.00     0.057 C 
HETATM   25  C   UNL     1      43.917 -18.993   5.399  1.00  0.00     0.040 C 
HETATM   26  C   UNL     1      43.468 -16.769   4.052  1.00  0.00     0.040 A 
HETATM   27  C   UNL     1      44.458 -20.386   5.018  1.00  0.00     0.005 C 
HETATM   28  C   UNL     1      43.697 -21.002   3.828  1.00  0.00     0.006 C 
ENDBRANCH  18  19
ENDBRANCH   2  17
TORSDOF 4
ENDMDL
MODEL 7
REMARK VINA RESULT:      -7.9      4.847     12.394
REMARK  4 active torsions:
REMARK  status: ('A' for Active; 'I' for Inactive)
REMARK    1  A    between atoms: C_4  and  C_5 
REMARK    2  A    between atoms: C_9  and  C_10 
REMARK       I    between atoms: C_10  and  N_11 
REMARK    3  A    between atoms: N_11  and  N_12 
REMARK    4  A    between atoms: C_13  and  C_14 
ROOT
HETATM    1  C   UNL     1      41.241  -9.548  13.128  1.00  0.00     0.289 C 
HETATM    2  N   UNL     1      41.786  -8.642  14.024  1.00  0.00    -0.242 N 
HETATM    3  O   UNL     1      40.291 -10.285  13.384  1.00  0.00    -0.264 OA
HETATM    4  H   UNL     1      42.581  -8.076  13.762  1.00  0.00     0.192 HD
ENDROOT
BRANCH   1   5
HETATM    5  C   UNL     1      41.884  -9.581  11.838  1.00  0.00     0.121 A 
HETATM    6  N   UNL     1      41.227  -9.174  10.710  1.00  0.00    -0.272 N 
HETATM    7  N   UNL     1      41.944  -9.288   9.583  1.00  0.00    -0.174 NA
HETATM    8  H   UNL     1      40.276  -8.819  10.657  1.00  0.00     0.189 HD
HETATM    9  C   UNL     1      43.133  -9.764   9.982  1.00  0.00     0.089 A 
HETATM   10  C   UNL     1      43.134  -9.963  11.393  1.00  0.00     0.071 A 
BRANCH   9  11
HETATM   11  C   UNL     1      44.217 -10.027   9.030  1.00  0.00    -0.006 A 
HETATM   12  C   UNL     1      45.330  -9.177   8.942  1.00  0.00     0.014 A 
HETATM   13  C   UNL     1      46.362  -9.445   8.037  1.00  0.00     0.001 A 
HETATM   14  C   UNL     1      46.295 -10.564   7.210  1.00  0.00     0.000 A 
HETATM   15  C   UNL     1      45.195 -11.414   7.282  1.00  0.00     0.001 A 
HETATM   16  C   UNL     1      44.162 -11.146   8.185  1.00  0.00     0.014 A 
ENDBRANCH   9  11
ENDBRANCH   1   5
BRANCH   2  17
HETATM   17  N   UNL     1      41.276  -8.537  15.288  1.00  0.00    -0.182 NA
HETATM   18  C   UNL     1      41.731  -7.557  16.000  1.00  0.00     0.168 C 
BRANCH  18  19
HETATM   19  C   UNL     1      41.255  -7.375  17.342  1.00  0.00     0.052 A 
HETATM   20  N   UNL     1      40.645  -8.373  18.073  1.00  0.00    -0.358 N 
HETATM   21  H   UNL     1      40.487  -9.311  17.722  1.00  0.00     0.166 HD
HETATM   22  C   UNL     1      40.309  -7.893  19.306  1.00  0.00     0.016 A 
HETATM   23  C   UNL     1      40.706  -6.575  19.385  1.00  0.00    -0.033 A 
HETATM   24  C   UNL     1      39.657  -8.683  20.385  1.00  0.00     0.057 C 
HETATM   25  C   UNL     1      40.477  -5.739  20.599  1.00  0.00     0.040 C 
HETATM   26  C   UNL     1      41.300  -6.246  18.143  1.00  0.00     0.040 A 
HETATM   27  C   UNL     1      40.142  -6.620  21.819  1.00  0.00     0.005 C 
HETATM   28  C   UNL     1      39.132  -7.732  21.477  1.00  0.00     0.006 C 
ENDBRANCH  18  19
ENDBRANCH   2  17
TORSDOF 4
ENDMDL
MODEL 8
REMARK VINA RESULT:      -7.5      7.736     11.833
REMARK  4 active torsions:
REMARK  status: ('A' for Active; 'I' for Inactive)
REMARK    1  A    between atoms: C_4  and  C_5 
REMARK    2  A    between atoms: C_9  and  C_10 
REMARK       I    between atoms: C_10  and  N_11 
REMARK    3  A    between atoms: N_11  and  N_12 
REMARK    4  A    between atoms: C_13  and  C_14 
ROOT
HETATM    1  C   UNL     1      39.978 -12.663  -0.305  1.00  0.00     0.289 C 
HETATM    2  N   UNL     1      39.522 -13.650   0.554  1.00  0.00    -0.242 N 
HETATM    3  O   UNL     1      41.128 -12.231  -0.311  1.00  0.00    -0.264 OA
HETATM    4  H   UNL     1      38.557 -13.951   0.525  1.00  0.00     0.192 HD
ENDROOT
BRANCH   1   5
HETATM    5  C   UNL     1      38.984 -12.150  -1.216  1.00  0.00     0.121 A 
HETATM    6  N   UNL     1      39.345 -11.483  -2.353  1.00  0.00    -0.272 N 
HETATM    7  N   UNL     1      38.312 -11.044  -3.085  1.00  0.00    -0.174 NA
HETATM    8  H   UNL     1      40.292 -11.291  -2.670  1.00  0.00     0.189 HD
HETATM    9  C   UNL     1      37.222 -11.458  -2.422  1.00  0.00     0.089 A 
HETATM   10  C   UNL     1      37.604 -12.157  -1.240  1.00  0.00     0.071 A 
BRANCH   9  11
HETATM   11  C   UNL     1      35.868 -11.176  -2.909  1.00  0.00    -0.006 A 
HETATM   12  C   UNL     1      35.184 -12.089  -3.725  1.00  0.00     0.014 A 
HETATM   13  C   UNL     1      33.888 -11.812  -4.174  1.00  0.00     0.001 A 
HETATM   14  C   UNL     1      33.263 -10.620  -3.815  1.00  0.00     0.000 A 
HETATM   15  C   UNL     1      33.931  -9.702  -3.010  1.00  0.00     0.001 A 
HETATM   16  C   UNL     1      35.226  -9.977  -2.562  1.00  0.00     0.014 A 
ENDBRANCH   9  11
ENDBRANCH   1   5
BRANCH   2  17
HETATM   17  N   UNL     1      40.367 -14.197   1.480  1.00  0.00    -0.182 NA
HETATM   18  C   UNL     1      40.451 -15.488   1.474  1.00  0.00     0.168 C 
BRANCH  18  19
HETATM   19  C   UNL     1      41.310 -16.147   2.417  1.00  0.00     0.052 A 
HETATM   20  N   UNL     1      41.202 -15.984   3.782  1.00  0.00    -0.358 N 
HETATM   21  H   UNL     1      40.511 -15.391   4.226  1.00  0.00     0.166 HD
HETATM   22  C   UNL     1      42.154 -16.739   4.406  1.00  0.00     0.016 A 
HETATM   23  C   UNL     1      42.885 -17.404   3.443  1.00  0.00    -0.033 A 
HETATM   24  C   UNL     1      42.336 -16.845   5.878  1.00  0.00     0.057 C 
HETATM   25  C   UNL     1      44.020 -18.310   3.781  1.00  0.00     0.040 C 
HETATM   26  C   UNL     1      42.354 -17.027   2.186  1.00  0.00     0.040 A 
HETATM   27  C   UNL     1      43.988 -18.703   5.271  1.00  0.00     0.005 C 
HETATM   28  C   UNL     1      43.696 -17.497   6.187  1.00  0.00     0.006 C 
ENDBRANCH  18  19
ENDBRANCH   2  17
TORSDOF 4
ENDMDL
MODEL 9
REMARK VINA RESULT:      -7.4      8.377     12.005
REMARK  4 active torsions:
REMARK  status: ('A' for Active; 'I' for Inactive)
REMARK    1  A    between atoms: C_4  and  C_5 
REMARK    2  A    between atoms: C_9  and  C_10 
REMARK       I    between atoms: C_10  and  N_11 
REMARK    3  A    between atoms: N_11  and  N_12 
REMARK    4  A    between atoms: C_13  and  C_14 
ROOT
HETATM    1  C   UNL     1      40.154 -13.714  -0.127  1.00  0.00     0.289 C 
HETATM    2  N   UNL     1      40.845 -12.513  -0.107  1.00  0.00    -0.242 N 
HETATM    3  O   UNL     1      39.235 -13.969  -0.902  1.00  0.00    -0.264 OA
HETATM    4  H   UNL     1      41.580 -12.354   0.569  1.00  0.00     0.192 HD
ENDROOT
BRANCH   1   5
HETATM    5  C   UNL     1      40.588 -14.676   0.856  1.00  0.00     0.121 A 
HETATM    6  N   UNL     1      39.721 -15.176   1.787  1.00  0.00    -0.272 N 
HETATM    7  N   UNL     1      40.276 -16.039   2.649  1.00  0.00    -0.174 NA
HETATM    8  H   UNL     1      38.734 -14.948   1.881  1.00  0.00     0.189 HD
HETATM    9  C   UNL     1      41.556 -16.136   2.260  1.00  0.00     0.089 A 
HETATM   10  C   UNL     1      41.792 -15.292   1.135  1.00  0.00     0.071 A 
BRANCH   9  11
HETATM   11  C   UNL     1      42.511 -17.001   2.959  1.00  0.00    -0.006 A 
HETATM   12  C   UNL     1      43.027 -18.156   2.351  1.00  0.00     0.014 A 
HETATM   13  C   UNL     1      43.946 -18.967   3.024  1.00  0.00     0.001 A 
HETATM   14  C   UNL     1      44.360 -18.635   4.312  1.00  0.00     0.000 A 
HETATM   15  C   UNL     1      43.855 -17.494   4.930  1.00  0.00     0.001 A 
HETATM   16  C   UNL     1      42.935 -16.684   4.259  1.00  0.00     0.014 A 
ENDBRANCH   9  11
ENDBRANCH   1   5
BRANCH   2  17
HETATM   17  N   UNL     1      40.507 -11.513  -0.977  1.00  0.00    -0.182 NA
HETATM   18  C   UNL     1      41.495 -10.855  -1.491  1.00  0.00     0.168 C 
BRANCH  18  19
HETATM   19  C   UNL     1      41.233  -9.784  -2.410  1.00  0.00     0.052 A 
HETATM   20  N   UNL     1      40.586  -9.961  -3.615  1.00  0.00    -0.358 N 
HETATM   21  H   UNL     1      40.244 -10.856  -3.945  1.00  0.00     0.166 HD
HETATM   22  C   UNL     1      40.488  -8.760  -4.258  1.00  0.00     0.016 A 
HETATM   23  C   UNL     1      41.069  -7.792  -3.467  1.00  0.00    -0.033 A 
HETATM   24  C   UNL     1      39.829  -8.544  -5.574  1.00  0.00     0.057 C 
HETATM   25  C   UNL     1      41.148  -6.361  -3.878  1.00  0.00     0.040 C 
HETATM   26  C   UNL     1      41.544  -8.439  -2.301  1.00  0.00     0.040 A 
HETATM   27  C   UNL     1      40.176  -6.066  -5.038  1.00  0.00     0.005 C 
HETATM   28  C   UNL     1      40.215  -7.158  -6.125  1.00  0.00     0.006 C 
ENDBRANCH  18  19
ENDBRANCH   2  17
TORSDOF 4
ENDMDL
MODEL 10
REMARK VINA RESULT:      -7.4      5.126     12.810
REMARK  4 active torsions:
REMARK  status: ('A' for Active; 'I' for Inactive)
REMARK    1  A    between atoms: C_4  and  C_5 
REMARK    2  A    between atoms: C_9  and  C_10 
REMARK       I    between atoms: C_10  and  N_11 
REMARK    3  A    between atoms: N_11  and  N_12 
REMARK    4  A    between atoms: C_13  and  C_14 
ROOT
HETATM    1  C   UNL     1      41.326  -9.134  13.516  1.00  0.00     0.289 C 
HETATM    2  N   UNL     1      41.854  -8.310  14.498  1.00  0.00    -0.242 N 
HETATM    3  O   UNL     1      40.354  -9.866  13.679  1.00  0.00    -0.264 OA
HETATM    4  H   UNL     1      42.671  -7.744  14.310  1.00  0.00     0.192 HD
ENDROOT
BRANCH   1   5
HETATM    5  C   UNL     1      42.018  -9.084  12.252  1.00  0.00     0.121 A 
HETATM    6  N   UNL     1      41.687  -8.159  11.301  1.00  0.00    -0.272 N 
HETATM    7  N   UNL     1      42.399  -8.253  10.169  1.00  0.00    -0.174 NA
HETATM    8  H   UNL     1      40.968  -7.444  11.374  1.00  0.00     0.189 HD
HETATM    9  C   UNL     1      43.255  -9.263  10.387  1.00  0.00     0.089 A 
HETATM   10  C   UNL     1      43.045  -9.812  11.685  1.00  0.00     0.071 A 
BRANCH   9  11
HETATM   11  C   UNL     1      44.225  -9.685   9.371  1.00  0.00    -0.006 A 
HETATM   12  C   UNL     1      44.065 -10.889   8.668  1.00  0.00     0.014 A 
HETATM   13  C   UNL     1      44.991 -11.274   7.694  1.00  0.00     0.001 A 
HETATM   14  C   UNL     1      46.088 -10.463   7.411  1.00  0.00     0.000 A 
HETATM   15  C   UNL     1      46.262  -9.267   8.103  1.00  0.00     0.001 A 
HETATM   16  C   UNL     1      45.338  -8.882   9.078  1.00  0.00     0.014 A 
ENDBRANCH   9  11
ENDBRANCH   1   5
BRANCH   2  17
HETATM   17  N   UNL     1      41.298  -8.289  15.747  1.00  0.00    -0.182 NA
HETATM   18  C   UNL     1      41.669  -7.316  16.514  1.00  0.00     0.168 C 
BRANCH  18  19
HETATM   19  C   UNL     1      41.140  -7.219  17.845  1.00  0.00     0.052 A 
HETATM   20  N   UNL     1      41.196  -6.066  18.600  1.00  0.00    -0.358 N 
HETATM   21  H   UNL     1      41.610  -5.200  18.276  1.00  0.00     0.166 HD
HETATM   22  C   UNL     1      40.611  -6.290  19.814  1.00  0.00     0.016 A 
HETATM   23  C   UNL     1      40.166  -7.595  19.850  1.00  0.00    -0.033 A 
HETATM   24  C   UNL     1      40.456  -5.276  20.891  1.00  0.00     0.057 C 
HETATM   25  C   UNL     1      39.489  -8.178  21.044  1.00  0.00     0.040 C 
HETATM   26  C   UNL     1      40.504  -8.183  18.608  1.00  0.00     0.040 A 
HETATM   27  C   UNL     1      39.008  -7.070  22.002  1.00  0.00     0.005 C 
HETATM   28  C   UNL     1      40.073  -5.975  22.209  1.00  0.00     0.006 C 
ENDBRANCH  18  19
ENDBRANCH   2  17
TORSDOF 4
ENDMDL
