MODEL 1
REMARK VINA RESULT:      -8.8      0.000      0.000
REMARK  10 active torsions:
REMARK  status: ('A' for Active; 'I' for Inactive)
REMARK    1  A    between atoms: N_2  and  C_4 
REMARK    2  A    between atoms: C_4  and  C_5 
REMARK    3  A    between atoms: N_6  and  C_7 
REMARK    4  A    between atoms: C_11  and  N_12 
REMARK    5  A    between atoms: C_15  and  C_16 
REMARK       I    between atoms: C_16  and  N_17 
REMARK    6  A    between atoms: N_17  and  N_18 
REMARK    7  A    between atoms: C_19  and  C_20 
REMARK    8  A    between atoms: C_23  and  O_24 
REMARK    9  A    between atoms: O_24  and  C_25 
REMARK   10  A    between atoms: C_25  and  C_26 
ROOT
HETATM    1  C   UNL     1      40.689  -9.665   6.901  1.00  0.00     0.293 C 
HETATM    2  N   UNL     1      40.591 -11.047   6.934  1.00  0.00    -0.242 N 
HETATM    3  O   UNL     1      41.220  -8.986   6.026  1.00  0.00    -0.264 OA
HETATM    4  H   UNL     1      39.979 -11.459   7.636  1.00  0.00     0.192 HD
ENDROOT
BRANCH   1   5
HETATM    5  C   UNL     1      40.081  -9.009   8.055  1.00  0.00     0.170 A 
HETATM    6  C   UNL     1      40.706  -8.651   9.242  1.00  0.00     0.096 A 
HETATM    7  N   UNL     1      39.680  -8.135  10.030  1.00  0.00    -0.215 N 
HETATM    8  N   UNL     1      38.543  -8.091   9.290  1.00  0.00     0.012 NA
HETATM    9  N   UNL     1      38.768  -8.645   8.111  1.00  0.00    -0.152 NA
BRANCH   6  10
HETATM   10  C   UNL     1      42.139  -8.688   9.618  1.00  0.00     0.295 C 
BRANCH  10  11
HETATM   11  N   UNL     1      42.638 -10.027  10.099  1.00  0.00    -0.073 N 
HETATM   12  C   UNL     1      42.809 -10.034  11.595  1.00  0.00     0.269 C 
HETATM   13  H   UNL     1      41.891 -10.710   9.902  1.00  0.00     0.279 HD
HETATM   14  C   UNL     1      43.896 -10.486   9.418  1.00  0.00     0.269 C 
ENDBRANCH  10  11
ENDBRANCH   6  10
BRANCH   7  15
HETATM   15  C   UNL     1      39.717  -7.758  11.394  1.00  0.00     0.225 A 
HETATM   16  N   UNL     1      40.051  -6.508  11.732  1.00  0.00    -0.081 NA
HETATM   17  O   UNL     1      40.003  -6.522  13.130  1.00  0.00    -0.103 OA
HETATM   18  N   UNL     1      39.672  -7.781  13.608  1.00  0.00    -0.083 NA
HETATM   19  C   UNL     1      39.497  -8.549  12.535  1.00  0.00     0.201 A 
BRANCH  19  20
HETATM   20  N   UNL     1      39.163  -9.848  12.572  1.00  0.00    -0.379 N 
HETATM   21  H   UNL     1      38.501 -10.227  11.901  1.00  0.00     0.158 HD
HETATM   22  H   UNL     1      39.401 -10.476  13.337  1.00  0.00     0.158 HD
ENDBRANCH  19  20
ENDBRANCH   7  15
ENDBRANCH   1   5
BRANCH   2  23
HETATM   23  N   UNL     1      40.892 -11.897   5.900  1.00  0.00    -0.184 NA
HETATM   24  C   UNL     1      40.748 -13.173   6.078  1.00  0.00     0.150 C 
BRANCH  24  25
HETATM   25  C   UNL     1      41.133 -14.156   5.046  1.00  0.00    -0.017 A 
HETATM   26  C   UNL     1      41.996 -13.815   4.002  1.00  0.00     0.016 A 
HETATM   27  C   UNL     1      42.362 -14.778   3.054  1.00  0.00     0.037 A 
HETATM   28  C   UNL     1      41.874 -16.082   3.155  1.00  0.00     0.069 A 
HETATM   29  C   UNL     1      41.003 -16.410   4.198  1.00  0.00     0.037 A 
HETATM   30  C   UNL     1      40.629 -15.454   5.143  1.00  0.00     0.016 A 
BRANCH  28  31
HETATM   31  O   UNL     1      42.160 -17.119   2.315  1.00  0.00    -0.347 OA
BRANCH  31  32
HETATM   32  C   UNL     1      43.526 -17.512   2.194  1.00  0.00     0.219 C 
BRANCH  32  33
HETATM   33  C   UNL     1      43.754 -18.672   3.122  1.00  0.00     0.026 A 
HETATM   34  C   UNL     1      44.103 -18.510   4.471  1.00  0.00     0.045 A 
HETATM   35 CL   UNL     1      44.333 -16.945   5.169  1.00  0.00    -0.084 Cl
HETATM   36  C   UNL     1      44.281 -19.622   5.303  1.00  0.00     0.024 A 
HETATM   37  C   UNL     1      44.104 -20.912   4.803  1.00  0.00     0.005 A 
HETATM   38  C   UNL     1      43.748 -21.087   3.469  1.00  0.00     0.043 A 
HETATM   39  C   UNL     1      43.574 -19.975   2.648  1.00  0.00     0.126 A 
HETATM   40  F   UNL     1      43.229 -20.179   1.368  1.00  0.00    -0.205 F 
ENDBRANCH  32  33
ENDBRANCH  31  32
ENDBRANCH  28  31
ENDBRANCH  24  25
ENDBRANCH   2  23
TORSDOF 10
ENDMDL
MODEL 2
REMARK VINA RESULT:      -8.6      2.332      2.988
REMARK  10 active torsions:
REMARK  status: ('A' for Active; 'I' for Inactive)
REMARK    1  A    between atoms: N_2  and  C_4 
REMARK    2  A    between atoms: C_4  and  C_5 
REMARK    3  A    between atoms: N_6  and  C_7 
REMARK    4  A    between atoms: C_11  and  N_12 
REMARK    5  A    between atoms: C_15  and  C_16 
REMARK       I    between atoms: C_16  and  N_17 
REMARK    6  A    between atoms: N_17  and  N_18 
REMARK    7  A    between atoms: C_19  and  C_20 
REMARK    8  A    between atoms: C_23  and  O_24 
REMARK    9  A    between atoms: O_24  and  C_25 
REMARK   10  A    between atoms: C_25  and  C_26 
ROOT
HETATM    1  C   UNL     1      43.650 -10.445   8.139  1.00  0.00     0.293 C 
HETATM    2  N   UNL     1      42.851 -10.749   7.049  1.00  0.00    -0.242 N 
HETATM    3  O   UNL     1      44.460 -11.187   8.687  1.00  0.00    -0.264 OA
HETATM    4  H   UNL     1      42.351  -9.981   6.602  1.00  0.00     0.192 HD
ENDROOT
BRANCH   1   5
HETATM    5  C   UNL     1      43.457  -9.088   8.645  1.00  0.00     0.170 A 
HETATM    6  C   UNL     1      42.427  -8.634   9.456  1.00  0.00     0.096 A 
HETATM    7  N   UNL     1      42.665  -7.267   9.583  1.00  0.00    -0.215 N 
HETATM    8  N   UNL     1      43.840  -6.971   8.970  1.00  0.00     0.012 NA
HETATM    9  N   UNL     1      44.307  -8.056   8.375  1.00  0.00    -0.152 NA
BRANCH   6  10
HETATM   10  C   UNL     1      41.348  -9.382  10.143  1.00  0.00     0.295 C 
BRANCH  10  11
HETATM   11  N   UNL     1      41.786 -10.159  11.359  1.00  0.00    -0.073 N 
HETATM   12  C   UNL     1      40.828  -9.956  12.504  1.00  0.00     0.269 C 
HETATM   13  H   UNL     1      41.718 -11.158  11.114  1.00  0.00     0.279 HD
HETATM   14  C   UNL     1      43.197  -9.868  11.789  1.00  0.00     0.269 C 
ENDBRANCH  10  11
ENDBRANCH   6  10
BRANCH   7  15
HETATM   15  C   UNL     1      41.845  -6.278  10.175  1.00  0.00     0.225 A 
HETATM   16  N   UNL     1      41.083  -5.494   9.404  1.00  0.00    -0.081 NA
HETATM   17  O   UNL     1      40.451  -4.647  10.321  1.00  0.00    -0.103 OA
HETATM   18  N   UNL     1      40.864  -4.913  11.618  1.00  0.00    -0.083 NA
HETATM   19  C   UNL     1      41.730  -5.920  11.529  1.00  0.00     0.201 A 
BRANCH  19  20
HETATM   20  N   UNL     1      42.360  -6.479  12.574  1.00  0.00    -0.379 N 
HETATM   21  H   UNL     1      42.803  -7.389  12.480  1.00  0.00     0.158 HD
HETATM   22  H   UNL     1      42.298  -6.133  13.529  1.00  0.00     0.158 HD
ENDBRANCH  19  20
ENDBRANCH   7  15
ENDBRANCH   1   5
BRANCH   2  23
HETATM   23  N   UNL     1      42.963 -11.864   6.258  1.00  0.00    -0.184 NA
HETATM   24  C   UNL     1      41.882 -12.440   5.832  1.00  0.00     0.150 C 
BRANCH  24  25
HETATM   25  C   UNL     1      41.918 -13.692   5.051  1.00  0.00    -0.017 A 
HETATM   26  C   UNL     1      40.990 -14.713   5.268  1.00  0.00     0.016 A 
HETATM   27  C   UNL     1      41.036 -15.877   4.491  1.00  0.00     0.037 A 
HETATM   28  C   UNL     1      42.002 -16.016   3.493  1.00  0.00     0.069 A 
HETATM   29  C   UNL     1      42.932 -14.992   3.290  1.00  0.00     0.037 A 
HETATM   30  C   UNL     1      42.896 -13.832   4.064  1.00  0.00     0.016 A 
BRANCH  28  31
HETATM   31  O   UNL     1      42.151 -17.083   2.655  1.00  0.00    -0.347 OA
BRANCH  31  32
HETATM   32  C   UNL     1      43.471 -17.584   2.454  1.00  0.00     0.219 C 
BRANCH  32  33
HETATM   33  C   UNL     1      43.660 -18.759   3.373  1.00  0.00     0.026 A 
HETATM   34  C   UNL     1      43.620 -20.088   2.925  1.00  0.00     0.045 A 
HETATM   35 CL   UNL     1      43.315 -20.482   1.270  1.00  0.00    -0.084 Cl
HETATM   36  C   UNL     1      43.826 -21.149   3.816  1.00  0.00     0.024 A 
HETATM   37  C   UNL     1      44.083 -20.899   5.163  1.00  0.00     0.005 A 
HETATM   38  C   UNL     1      44.136 -19.585   5.619  1.00  0.00     0.043 A 
HETATM   39  C   UNL     1      43.929 -18.535   4.726  1.00  0.00     0.126 A 
HETATM   40  F   UNL     1      43.988 -17.281   5.197  1.00  0.00    -0.205 F 
ENDBRANCH  32  33
ENDBRANCH  31  32
ENDBRANCH  28  31
ENDBRANCH  24  25
ENDBRANCH   2  23
TORSDOF 10
ENDMDL
MODEL 3
REMARK VINA RESULT:      -8.6      2.057      2.870
REMARK  10 active torsions:
REMARK  status: ('A' for Active; 'I' for Inactive)
REMARK    1  A    between atoms: N_2  and  C_4 
REMARK    2  A    between atoms: C_4  and  C_5 
REMARK    3  A    between atoms: N_6  and  C_7 
REMARK    4  A    between atoms: C_11  and  N_12 
REMARK    5  A    between atoms: C_15  and  C_16 
REMARK       I    between atoms: C_16  and  N_17 
REMARK    6  A    between atoms: N_17  and  N_18 
REMARK    7  A    between atoms: C_19  and  C_20 
REMARK    8  A    between atoms: C_23  and  O_24 
REMARK    9  A    between atoms: O_24  and  C_25 
REMARK   10  A    between atoms: C_25  and  C_26 
ROOT
HETATM    1  C   UNL     1      43.770 -10.410   8.361  1.00  0.00     0.293 C 
HETATM    2  N   UNL     1      42.867 -10.862   7.412  1.00  0.00    -0.242 N 
HETATM    3  O   UNL     1      44.701 -11.045   8.851  1.00  0.00    -0.264 OA
HETATM    4  H   UNL     1      42.254 -10.172   6.979  1.00  0.00     0.192 HD
ENDROOT
BRANCH   1   5
HETATM    5  C   UNL     1      43.533  -9.033   8.785  1.00  0.00     0.170 A 
HETATM    6  C   UNL     1      42.557  -8.581   9.662  1.00  0.00     0.096 A 
HETATM    7  N   UNL     1      42.710  -7.196   9.665  1.00  0.00    -0.215 N 
HETATM    8  N   UNL     1      43.796  -6.877   8.915  1.00  0.00     0.012 NA
HETATM    9  N   UNL     1      44.278  -7.974   8.356  1.00  0.00    -0.152 NA
BRANCH   6  10
HETATM   10  C   UNL     1      41.605  -9.339  10.508  1.00  0.00     0.295 C 
BRANCH  10  11
HETATM   11  N   UNL     1      42.010  -9.481  11.954  1.00  0.00    -0.073 N 
HETATM   12  C   UNL     1      43.170 -10.431  12.100  1.00  0.00     0.269 C 
HETATM   13  H   UNL     1      42.366  -8.561  12.253  1.00  0.00     0.279 HD
HETATM   14  C   UNL     1      40.882  -9.875  12.864  1.00  0.00     0.269 C 
ENDBRANCH  10  11
ENDBRANCH   6  10
BRANCH   7  15
HETATM   15  C   UNL     1      41.884  -6.217  10.265  1.00  0.00     0.225 A 
HETATM   16  N   UNL     1      41.620  -6.279  11.575  1.00  0.00    -0.081 NA
HETATM   17  O   UNL     1      40.773  -5.186  11.791  1.00  0.00    -0.103 OA
HETATM   18  N   UNL     1      40.518  -4.507  10.609  1.00  0.00    -0.083 NA
HETATM   19  C   UNL     1      41.203  -5.145   9.662  1.00  0.00     0.201 A 
BRANCH  19  20
HETATM   20  N   UNL     1      41.222  -4.796   8.367  1.00  0.00    -0.379 N 
HETATM   21  H   UNL     1      42.106  -4.640   7.890  1.00  0.00     0.158 HD
HETATM   22  H   UNL     1      40.399  -4.508   7.842  1.00  0.00     0.158 HD
ENDBRANCH  19  20
ENDBRANCH   7  15
ENDBRANCH   1   5
BRANCH   2  23
HETATM   23  N   UNL     1      42.969 -12.029   6.699  1.00  0.00    -0.184 NA
HETATM   24  C   UNL     1      42.134 -12.245   5.731  1.00  0.00     0.150 C 
BRANCH  24  25
HETATM   25  C   UNL     1      42.124 -13.513   4.975  1.00  0.00    -0.017 A 
HETATM   26  C   UNL     1      41.295 -14.575   5.345  1.00  0.00     0.016 A 
HETATM   27  C   UNL     1      41.290 -15.755   4.591  1.00  0.00     0.037 A 
HETATM   28  C   UNL     1      42.105 -15.869   3.464  1.00  0.00     0.069 A 
HETATM   29  C   UNL     1      42.938 -14.804   3.107  1.00  0.00     0.037 A 
HETATM   30  C   UNL     1      42.952 -13.628   3.857  1.00  0.00     0.016 A 
BRANCH  28  31
HETATM   31  O   UNL     1      42.188 -16.949   2.632  1.00  0.00    -0.347 OA
BRANCH  31  32
HETATM   32  C   UNL     1      43.490 -17.437   2.313  1.00  0.00     0.219 C 
BRANCH  32  33
HETATM   33  C   UNL     1      43.738 -18.660   3.152  1.00  0.00     0.026 A 
HETATM   34  C   UNL     1      44.158 -18.592   4.489  1.00  0.00     0.045 A 
HETATM   35 CL   UNL     1      44.456 -17.081   5.274  1.00  0.00    -0.084 Cl
HETATM   36  C   UNL     1      44.352 -19.760   5.238  1.00  0.00     0.024 A 
HETATM   37  C   UNL     1      44.123 -21.010   4.666  1.00  0.00     0.005 A 
HETATM   38  C   UNL     1      43.697 -21.092   3.343  1.00  0.00     0.043 A 
HETATM   39  C   UNL     1      43.507 -19.926   2.605  1.00  0.00     0.126 A 
HETATM   40  F   UNL     1      43.094 -20.039   1.334  1.00  0.00    -0.205 F 
ENDBRANCH  32  33
ENDBRANCH  31  32
ENDBRANCH  28  31
ENDBRANCH  24  25
ENDBRANCH   2  23
TORSDOF 10
ENDMDL
MODEL 4
REMARK VINA RESULT:      -8.5      5.523     12.236
REMARK  10 active torsions:
REMARK  status: ('A' for Active; 'I' for Inactive)
REMARK    1  A    between atoms: N_2  and  C_4 
REMARK    2  A    between atoms: C_4  and  C_5 
REMARK    3  A    between atoms: N_6  and  C_7 
REMARK    4  A    between atoms: C_11  and  N_12 
REMARK    5  A    between atoms: C_15  and  C_16 
REMARK       I    between atoms: C_16  and  N_17 
REMARK    6  A    between atoms: N_17  and  N_18 
REMARK    7  A    between atoms: C_19  and  C_20 
REMARK    8  A    between atoms: C_23  and  O_24 
REMARK    9  A    between atoms: O_24  and  C_25 
REMARK   10  A    between atoms: C_25  and  C_26 
ROOT
HETATM    1  C   UNL     1      42.966 -14.900   5.758  1.00  0.00     0.293 C 
HETATM    2  N   UNL     1      43.797 -14.184   6.605  1.00  0.00    -0.242 N 
HETATM    3  O   UNL     1      41.835 -14.585   5.400  1.00  0.00    -0.264 OA
HETATM    4  H   UNL     1      44.768 -14.485   6.678  1.00  0.00     0.192 HD
ENDROOT
BRANCH   1   5
HETATM    5  C   UNL     1      43.554 -16.148   5.281  1.00  0.00     0.170 A 
HETATM    6  C   UNL     1      43.078 -16.966   4.265  1.00  0.00     0.096 A 
HETATM    7  N   UNL     1      43.950 -18.053   4.260  1.00  0.00    -0.215 N 
HETATM    8  N   UNL     1      44.947 -17.815   5.151  1.00  0.00     0.012 NA
HETATM    9  N   UNL     1      44.699 -16.686   5.792  1.00  0.00    -0.152 NA
BRANCH   6  10
HETATM   10  C   UNL     1      41.969 -16.753   3.306  1.00  0.00     0.295 C 
BRANCH  10  11
HETATM   11  N   UNL     1      42.143 -15.575   2.381  1.00  0.00    -0.073 N 
HETATM   12  C   UNL     1      40.924 -15.379   1.519  1.00  0.00     0.269 C 
HETATM   13  H   UNL     1      42.199 -14.735   2.977  1.00  0.00     0.279 HD
HETATM   14  C   UNL     1      43.385 -15.645   1.537  1.00  0.00     0.269 C 
ENDBRANCH  10  11
ENDBRANCH   6  10
BRANCH   7  15
HETATM   15  C   UNL     1      43.851 -19.261   3.531  1.00  0.00     0.225 A 
HETATM   16  N   UNL     1      43.483 -19.236   2.245  1.00  0.00    -0.081 NA
HETATM   17  O   UNL     1      43.474 -20.587   1.880  1.00  0.00    -0.103 OA
HETATM   18  N   UNL     1      43.805 -21.399   2.954  1.00  0.00    -0.083 NA
HETATM   19  C   UNL     1      44.036 -20.581   3.978  1.00  0.00     0.201 A 
BRANCH  19  20
HETATM   20  N   UNL     1      44.389 -20.979   5.209  1.00  0.00    -0.379 N 
HETATM   21  H   UNL     1      43.728 -20.915   5.979  1.00  0.00     0.158 HD
HETATM   22  H   UNL     1      45.343 -21.201   5.486  1.00  0.00     0.158 HD
ENDBRANCH  19  20
ENDBRANCH   7  15
ENDBRANCH   1   5
BRANCH   2  23
HETATM   23  N   UNL     1      43.587 -12.899   7.037  1.00  0.00    -0.184 NA
HETATM   24  C   UNL     1      44.586 -12.072   7.048  1.00  0.00     0.150 C 
BRANCH  24  25
HETATM   25  C   UNL     1      44.460 -10.701   7.580  1.00  0.00    -0.017 A 
HETATM   26  C   UNL     1      45.547 -10.044   8.163  1.00  0.00     0.016 A 
HETATM   27  C   UNL     1      45.401  -8.733   8.635  1.00  0.00     0.037 A 
HETATM   28  C   UNL     1      44.174  -8.078   8.515  1.00  0.00     0.069 A 
HETATM   29  C   UNL     1      43.091  -8.747   7.938  1.00  0.00     0.037 A 
HETATM   30  C   UNL     1      43.227 -10.055   7.472  1.00  0.00     0.016 A 
BRANCH  28  31
HETATM   31  O   UNL     1      43.897  -6.802   8.914  1.00  0.00    -0.347 OA
BRANCH  31  32
HETATM   32  C   UNL     1      42.541  -6.489   9.227  1.00  0.00     0.219 C 
BRANCH  32  33
HETATM   33  C   UNL     1      42.469  -6.181  10.696  1.00  0.00     0.026 A 
HETATM   34  C   UNL     1      42.383  -4.873  11.196  1.00  0.00     0.045 A 
HETATM   35 CL   UNL     1      42.385  -3.497  10.149  1.00  0.00    -0.084 Cl
HETATM   36  C   UNL     1      42.294  -4.637  12.573  1.00  0.00     0.024 A 
HETATM   37  C   UNL     1      42.281  -5.704  13.471  1.00  0.00     0.005 A 
HETATM   38  C   UNL     1      42.356  -7.007  12.990  1.00  0.00     0.043 A 
HETATM   39  C   UNL     1      42.445  -7.233  11.618  1.00  0.00     0.126 A 
HETATM   40  F   UNL     1      42.514  -8.500  11.185  1.00  0.00    -0.205 F 
ENDBRANCH  32  33
ENDBRANCH  31  32
ENDBRANCH  28  31
ENDBRANCH  24  25
ENDBRANCH   2  23
TORSDOF 10
ENDMDL
MODEL 5
REMARK VINA RESULT:      -8.0      5.885     13.076
REMARK  10 active torsions:
REMARK  status: ('A' for Active; 'I' for Inactive)
REMARK    1  A    between atoms: N_2  and  C_4 
REMARK    2  A    between atoms: C_4  and  C_5 
REMARK    3  A    between atoms: N_6  and  C_7 
REMARK    4  A    between atoms: C_11  and  N_12 
REMARK    5  A    between atoms: C_15  and  C_16 
REMARK       I    between atoms: C_16  and  N_17 
REMARK    6  A    between atoms: N_17  and  N_18 
REMARK    7  A    between atoms: C_19  and  C_20 
REMARK    8  A    between atoms: C_23  and  O_24 
REMARK    9  A    between atoms: O_24  and  C_25 
REMARK   10  A    between atoms: C_25  and  C_26 
ROOT
HETATM    1  C   UNL     1      43.571  -9.870   8.488  1.00  0.00     0.293 C 
HETATM    2  N   UNL     1      42.594 -10.051   9.454  1.00  0.00    -0.242 N 
HETATM    3  O   UNL     1      44.284  -8.881   8.339  1.00  0.00    -0.264 OA
HETATM    4  H   UNL     1      42.202 -10.986   9.558  1.00  0.00     0.192 HD
ENDROOT
BRANCH   1   5
HETATM    5  C   UNL     1      43.716 -11.007   7.584  1.00  0.00     0.170 A 
HETATM    6  C   UNL     1      42.816 -11.429   6.616  1.00  0.00     0.096 A 
HETATM    7  N   UNL     1      43.388 -12.587   6.093  1.00  0.00    -0.215 N 
HETATM    8  N   UNL     1      44.614 -12.757   6.652  1.00  0.00     0.012 NA
HETATM    9  N   UNL     1      44.805 -11.829   7.574  1.00  0.00    -0.152 NA
BRANCH   6  10
HETATM   10  C   UNL     1      41.567 -10.796   6.129  1.00  0.00     0.295 C 
BRANCH  10  11
HETATM   11  N   UNL     1      40.301 -11.311   6.765  1.00  0.00    -0.073 N 
HETATM   12  C   UNL     1      39.485 -12.105   5.780  1.00  0.00     0.269 C 
HETATM   13  H   UNL     1      40.587 -11.982   7.494  1.00  0.00     0.279 HD
HETATM   14  C   UNL     1      39.465 -10.239   7.406  1.00  0.00     0.269 C 
ENDBRANCH  10  11
ENDBRANCH   6  10
BRANCH   7  15
HETATM   15  C   UNL     1      42.831 -13.515   5.182  1.00  0.00     0.225 A 
HETATM   16  N   UNL     1      42.258 -14.634   5.637  1.00  0.00    -0.081 NA
HETATM   17  O   UNL     1      41.857 -15.295   4.471  1.00  0.00    -0.103 OA
HETATM   18  N   UNL     1      42.220 -14.582   3.339  1.00  0.00    -0.083 NA
HETATM   19  C   UNL     1      42.826 -13.480   3.777  1.00  0.00     0.201 A 
BRANCH  19  20
HETATM   20  N   UNL     1      43.328 -12.520   2.986  1.00  0.00    -0.379 N 
HETATM   21  H   UNL     1      43.058 -12.466   2.008  1.00  0.00     0.158 HD
HETATM   22  H   UNL     1      44.105 -11.915   3.246  1.00  0.00     0.158 HD
ENDBRANCH  19  20
ENDBRANCH   7  15
ENDBRANCH   1   5
BRANCH   2  23
HETATM   23  N   UNL     1      42.382  -9.242  10.542  1.00  0.00    -0.184 NA
HETATM   24  C   UNL     1      42.826  -9.622  11.699  1.00  0.00     0.150 C 
BRANCH  24  25
HETATM   25  C   UNL     1      42.563  -8.851  12.930  1.00  0.00    -0.017 A 
HETATM   26  C   UNL     1      41.603  -9.265  13.857  1.00  0.00     0.016 A 
HETATM   27  C   UNL     1      41.395  -8.524  15.028  1.00  0.00     0.037 A 
HETATM   28  C   UNL     1      42.153  -7.378  15.275  1.00  0.00     0.069 A 
HETATM   29  C   UNL     1      43.105  -6.968  14.337  1.00  0.00     0.037 A 
HETATM   30  C   UNL     1      43.312  -7.697  13.166  1.00  0.00     0.016 A 
BRANCH  28  31
HETATM   31  O   UNL     1      42.069  -6.576  16.376  1.00  0.00    -0.347 OA
BRANCH  31  32
HETATM   32  C   UNL     1      41.011  -6.832  17.299  1.00  0.00     0.219 C 
BRANCH  32  33
HETATM   33  C   UNL     1      40.133  -5.613  17.339  1.00  0.00     0.026 A 
HETATM   34  C   UNL     1      40.325  -4.567  18.254  1.00  0.00     0.045 A 
HETATM   35 CL   UNL     1      41.581  -4.615  19.440  1.00  0.00    -0.084 Cl
HETATM   36  C   UNL     1      39.494  -3.439  18.236  1.00  0.00     0.024 A 
HETATM   37  C   UNL     1      38.466  -3.336  17.300  1.00  0.00     0.005 A 
HETATM   38  C   UNL     1      38.270  -4.362  16.380  1.00  0.00     0.043 A 
HETATM   39  C   UNL     1      39.100  -5.480  16.405  1.00  0.00     0.126 A 
HETATM   40  F   UNL     1      38.886  -6.450  15.504  1.00  0.00    -0.205 F 
ENDBRANCH  32  33
ENDBRANCH  31  32
ENDBRANCH  28  31
ENDBRANCH  24  25
ENDBRANCH   2  23
TORSDOF 10
ENDMDL
MODEL 6
REMARK VINA RESULT:      -8.0      6.226     13.082
REMARK  10 active torsions:
REMARK  status: ('A' for Active; 'I' for Inactive)
REMARK    1  A    between atoms: N_2  and  C_4 
REMARK    2  A    between atoms: C_4  and  C_5 
REMARK    3  A    between atoms: N_6  and  C_7 
REMARK    4  A    between atoms: C_11  and  N_12 
REMARK    5  A    between atoms: C_15  and  C_16 
REMARK       I    between atoms: C_16  and  N_17 
REMARK    6  A    between atoms: N_17  and  N_18 
REMARK    7  A    between atoms: C_19  and  C_20 
REMARK    8  A    between atoms: C_23  and  O_24 
REMARK    9  A    between atoms: O_24  and  C_25 
REMARK   10  A    between atoms: C_25  and  C_26 
ROOT
HETATM    1  C   UNL     1      43.761  -9.805   8.507  1.00  0.00     0.293 C 
HETATM    2  N   UNL     1      43.041 -10.040   9.667  1.00  0.00    -0.242 N 
HETATM    3  O   UNL     1      44.352  -8.771   8.205  1.00  0.00    -0.264 OA
HETATM    4  H   UNL     1      42.746 -10.998   9.853  1.00  0.00     0.192 HD
ENDROOT
BRANCH   1   5
HETATM    5  C   UNL     1      43.776 -10.940   7.589  1.00  0.00     0.170 A 
HETATM    6  C   UNL     1      42.808 -11.275   6.653  1.00  0.00     0.096 A 
HETATM    7  N   UNL     1      43.262 -12.470   6.099  1.00  0.00    -0.215 N 
HETATM    8  N   UNL     1      44.489 -12.747   6.609  1.00  0.00     0.012 NA
HETATM    9  N   UNL     1      44.792 -11.849   7.530  1.00  0.00    -0.152 NA
BRANCH   6  10
HETATM   10  C   UNL     1      41.599 -10.535   6.219  1.00  0.00     0.295 C 
BRANCH  10  11
HETATM   11  N   UNL     1      40.381 -10.742   7.083  1.00  0.00    -0.073 N 
HETATM   12  C   UNL     1      39.239 -11.308   6.281  1.00  0.00     0.269 C 
HETATM   13  H   UNL     1      40.625 -11.471   7.771  1.00  0.00     0.279 HD
HETATM   14  C   UNL     1      39.948  -9.510   7.827  1.00  0.00     0.269 C 
ENDBRANCH  10  11
ENDBRANCH   6  10
BRANCH   7  15
HETATM   15  C   UNL     1      42.595 -13.339   5.203  1.00  0.00     0.225 A 
HETATM   16  N   UNL     1      42.934 -13.351   3.909  1.00  0.00    -0.081 NA
HETATM   17  O   UNL     1      42.062 -14.292   3.350  1.00  0.00    -0.103 OA
HETATM   18  N   UNL     1      41.198 -14.805   4.306  1.00  0.00    -0.083 NA
HETATM   19  C   UNL     1      41.524 -14.214   5.453  1.00  0.00     0.201 A 
BRANCH  19  20
HETATM   20  N   UNL     1      40.919 -14.442   6.628  1.00  0.00    -0.379 N 
HETATM   21  H   UNL     1      40.818 -13.694   7.308  1.00  0.00     0.158 HD
HETATM   22  H   UNL     1      40.682 -15.369   6.977  1.00  0.00     0.158 HD
ENDBRANCH  19  20
ENDBRANCH   7  15
ENDBRANCH   1   5
BRANCH   2  23
HETATM   23  N   UNL     1      43.024  -9.235  10.778  1.00  0.00    -0.184 NA
HETATM   24  C   UNL     1      42.496  -9.690  11.872  1.00  0.00     0.150 C 
BRANCH  24  25
HETATM   25  C   UNL     1      42.361  -8.855  13.082  1.00  0.00    -0.017 A 
HETATM   26  C   UNL     1      41.403  -9.138  14.059  1.00  0.00     0.016 A 
HETATM   27  C   UNL     1      41.319  -8.341  15.207  1.00  0.00     0.037 A 
HETATM   28  C   UNL     1      42.198  -7.271  15.383  1.00  0.00     0.069 A 
HETATM   29  C   UNL     1      43.147  -6.991  14.396  1.00  0.00     0.037 A 
HETATM   30  C   UNL     1      43.232  -7.776  13.245  1.00  0.00     0.016 A 
BRANCH  28  31
HETATM   31  O   UNL     1      42.239  -6.427  16.456  1.00  0.00    -0.347 OA
BRANCH  31  32
HETATM   32  C   UNL     1      41.001  -5.895  16.924  1.00  0.00     0.219 C 
BRANCH  32  33
HETATM   33  C   UNL     1      40.966  -6.062  18.417  1.00  0.00     0.026 A 
HETATM   34  C   UNL     1      41.536  -5.132  19.300  1.00  0.00     0.045 A 
HETATM   35 CL   UNL     1      42.361  -3.724  18.730  1.00  0.00    -0.084 Cl
HETATM   36  C   UNL     1      41.456  -5.319  20.686  1.00  0.00     0.024 A 
HETATM   37  C   UNL     1      40.799  -6.431  21.210  1.00  0.00     0.005 A 
HETATM   38  C   UNL     1      40.220  -7.356  20.346  1.00  0.00     0.043 A 
HETATM   39  C   UNL     1      40.305  -7.163  18.969  1.00  0.00     0.126 A 
HETATM   40  F   UNL     1      39.735  -8.072  18.164  1.00  0.00    -0.205 F 
ENDBRANCH  32  33
ENDBRANCH  31  32
ENDBRANCH  28  31
ENDBRANCH  24  25
ENDBRANCH   2  23
TORSDOF 10
ENDMDL
MODEL 7
REMARK VINA RESULT:      -7.9      6.360     13.266
REMARK  10 active torsions:
REMARK  status: ('A' for Active; 'I' for Inactive)
REMARK    1  A    between atoms: N_2  and  C_4 
REMARK    2  A    between atoms: C_4  and  C_5 
REMARK    3  A    between atoms: N_6  and  C_7 
REMARK    4  A    between atoms: C_11  and  N_12 
REMARK    5  A    between atoms: C_15  and  C_16 
REMARK       I    between atoms: C_16  and  N_17 
REMARK    6  A    between atoms: N_17  and  N_18 
REMARK    7  A    between atoms: C_19  and  C_20 
REMARK    8  A    between atoms: C_23  and  O_24 
REMARK    9  A    between atoms: O_24  and  C_25 
REMARK   10  A    between atoms: C_25  and  C_26 
ROOT
HETATM    1  C   UNL     1      43.673  -9.941   8.574  1.00  0.00     0.293 C 
HETATM    2  N   UNL     1      43.170 -10.286   9.819  1.00  0.00    -0.242 N 
HETATM    3  O   UNL     1      44.086  -8.837   8.229  1.00  0.00    -0.264 OA
HETATM    4  H   UNL     1      43.021 -11.276  10.009  1.00  0.00     0.192 HD
ENDROOT
BRANCH   1   5
HETATM    5  C   UNL     1      43.681 -11.046   7.621  1.00  0.00     0.170 A 
HETATM    6  C   UNL     1      42.712 -11.343   6.672  1.00  0.00     0.096 A 
HETATM    7  N   UNL     1      43.158 -12.524   6.082  1.00  0.00    -0.215 N 
HETATM    8  N   UNL     1      44.382 -12.827   6.586  1.00  0.00     0.012 NA
HETATM    9  N   UNL     1      44.689 -11.961   7.536  1.00  0.00    -0.152 NA
BRANCH   6  10
HETATM   10  C   UNL     1      41.511 -10.580   6.259  1.00  0.00     0.295 C 
BRANCH  10  11
HETATM   11  N   UNL     1      40.333 -10.691   7.194  1.00  0.00    -0.073 N 
HETATM   12  C   UNL     1      39.098 -11.136   6.456  1.00  0.00     0.269 C 
HETATM   13  H   UNL     1      40.550 -11.451   7.856  1.00  0.00     0.279 HD
HETATM   14  C   UNL     1      40.061  -9.438   7.978  1.00  0.00     0.269 C 
ENDBRANCH  10  11
ENDBRANCH   6  10
BRANCH   7  15
HETATM   15  C   UNL     1      42.487 -13.358   5.157  1.00  0.00     0.225 A 
HETATM   16  N   UNL     1      42.884 -13.395   3.881  1.00  0.00    -0.081 NA
HETATM   17  O   UNL     1      41.989 -14.288   3.283  1.00  0.00    -0.103 OA
HETATM   18  N   UNL     1      41.054 -14.749   4.198  1.00  0.00    -0.083 NA
HETATM   19  C   UNL     1      41.359 -14.172   5.358  1.00  0.00     0.201 A 
BRANCH  19  20
HETATM   20  N   UNL     1      40.687 -14.361   6.504  1.00  0.00    -0.379 N 
HETATM   21  H   UNL     1      40.404 -13.566   7.071  1.00  0.00     0.158 HD
HETATM   22  H   UNL     1      40.569 -15.267   6.953  1.00  0.00     0.158 HD
ENDBRANCH  19  20
ENDBRANCH   7  15
ENDBRANCH   1   5
BRANCH   2  23
HETATM   23  N   UNL     1      43.228  -9.512  10.950  1.00  0.00    -0.184 NA
HETATM   24  C   UNL     1      42.368  -9.725  11.897  1.00  0.00     0.150 C 
BRANCH  24  25
HETATM   25  C   UNL     1      42.311  -8.879  13.106  1.00  0.00    -0.017 A 
HETATM   26  C   UNL     1      41.364  -9.104  14.108  1.00  0.00     0.016 A 
HETATM   27  C   UNL     1      41.352  -8.300  15.254  1.00  0.00     0.037 A 
HETATM   28  C   UNL     1      42.293  -7.278  15.402  1.00  0.00     0.069 A 
HETATM   29  C   UNL     1      43.230  -7.055  14.389  1.00  0.00     0.037 A 
HETATM   30  C   UNL     1      43.243  -7.848  13.241  1.00  0.00     0.016 A 
BRANCH  28  31
HETATM   31  O   UNL     1      42.407  -6.434  16.468  1.00  0.00    -0.347 OA
BRANCH  31  32
HETATM   32  C   UNL     1      41.287  -5.606  16.777  1.00  0.00     0.219 C 
BRANCH  32  33
HETATM   33  C   UNL     1      41.214  -5.473  18.273  1.00  0.00     0.026 A 
HETATM   34  C   UNL     1      40.545  -6.398  19.086  1.00  0.00     0.045 A 
HETATM   35 CL   UNL     1      39.715  -7.762  18.422  1.00  0.00    -0.084 Cl
HETATM   36  C   UNL     1      40.525  -6.245  20.479  1.00  0.00     0.024 A 
HETATM   37  C   UNL     1      41.180  -5.170  21.078  1.00  0.00     0.005 A 
HETATM   38  C   UNL     1      41.856  -4.249  20.284  1.00  0.00     0.043 A 
HETATM   39  C   UNL     1      41.870  -4.409  18.900  1.00  0.00     0.126 A 
HETATM   40  F   UNL     1      42.533  -3.505  18.162  1.00  0.00    -0.205 F 
ENDBRANCH  32  33
ENDBRANCH  31  32
ENDBRANCH  28  31
ENDBRANCH  24  25
ENDBRANCH   2  23
TORSDOF 10
ENDMDL
MODEL 8
REMARK VINA RESULT:      -7.7      3.691      5.671
REMARK  10 active torsions:
REMARK  status: ('A' for Active; 'I' for Inactive)
REMARK    1  A    between atoms: N_2  and  C_4 
REMARK    2  A    between atoms: C_4  and  C_5 
REMARK    3  A    between atoms: N_6  and  C_7 
REMARK    4  A    between atoms: C_11  and  N_12 
REMARK    5  A    between atoms: C_15  and  C_16 
REMARK       I    between atoms: C_16  and  N_17 
REMARK    6  A    between atoms: N_17  and  N_18 
REMARK    7  A    between atoms: C_19  and  C_20 
REMARK    8  A    between atoms: C_23  and  O_24 
REMARK    9  A    between atoms: O_24  and  C_25 
REMARK   10  A    between atoms: C_25  and  C_26 
ROOT
HETATM    1  C   UNL     1      43.757 -10.599   8.122  1.00  0.00     0.293 C 
HETATM    2  N   UNL     1      43.198 -11.755   7.602  1.00  0.00    -0.242 N 
HETATM    3  O   UNL     1      44.360  -9.729   7.498  1.00  0.00    -0.264 OA
HETATM    4  H   UNL     1      42.587 -12.298   8.212  1.00  0.00     0.192 HD
ENDROOT
BRANCH   1   5
HETATM    5  C   UNL     1      43.582 -10.462   9.565  1.00  0.00     0.170 A 
HETATM    6  C   UNL     1      42.611  -9.723  10.225  1.00  0.00     0.096 A 
HETATM    7  N   UNL     1      42.928  -9.864  11.575  1.00  0.00    -0.215 N 
HETATM    8  N   UNL     1      43.962 -10.737  11.689  1.00  0.00     0.012 NA
HETATM    9  N   UNL     1      44.382 -11.076  10.483  1.00  0.00    -0.152 NA
BRANCH   6  10
HETATM   10  C   UNL     1      41.427  -9.007   9.694  1.00  0.00     0.295 C 
BRANCH  10  11
HETATM   11  N   UNL     1      40.364  -9.890   9.092  1.00  0.00    -0.073 N 
HETATM   12  C   UNL     1      40.199  -9.611   7.621  1.00  0.00     0.269 C 
HETATM   13  H   UNL     1      40.714 -10.858   9.153  1.00  0.00     0.279 HD
HETATM   14  C   UNL     1      39.040  -9.816   9.799  1.00  0.00     0.269 C 
ENDBRANCH  10  11
ENDBRANCH   6  10
BRANCH   7  15
HETATM   15  C   UNL     1      42.363  -9.200  12.690  1.00  0.00     0.225 A 
HETATM   16  N   UNL     1      42.994  -8.153  13.233  1.00  0.00    -0.081 NA
HETATM   17  O   UNL     1      42.166  -7.789  14.300  1.00  0.00    -0.103 OA
HETATM   18  N   UNL     1      41.073  -8.636  14.400  1.00  0.00    -0.083 NA
HETATM   19  C   UNL     1      41.195  -9.513  13.405  1.00  0.00     0.201 A 
BRANCH  19  20
HETATM   20  N   UNL     1      40.329 -10.507  13.154  1.00  0.00    -0.379 N 
HETATM   21  H   UNL     1      39.358 -10.426  13.441  1.00  0.00     0.158 HD
HETATM   22  H   UNL     1      40.603 -11.433  12.832  1.00  0.00     0.158 HD
ENDBRANCH  19  20
ENDBRANCH   7  15
ENDBRANCH   1   5
BRANCH   2  23
HETATM   23  N   UNL     1      43.039 -12.041   6.270  1.00  0.00    -0.184 NA
HETATM   24  C   UNL     1      42.101 -12.862   5.915  1.00  0.00     0.150 C 
BRANCH  24  25
HETATM   25  C   UNL     1      41.923 -13.287   4.512  1.00  0.00    -0.017 A 
HETATM   26  C   UNL     1      41.422 -14.551   4.192  1.00  0.00     0.016 A 
HETATM   27  C   UNL     1      41.241 -14.914   2.852  1.00  0.00     0.037 A 
HETATM   28  C   UNL     1      41.551 -14.010   1.834  1.00  0.00     0.069 A 
HETATM   29  C   UNL     1      42.061 -12.751   2.164  1.00  0.00     0.037 A 
HETATM   30  C   UNL     1      42.250 -12.386   3.497  1.00  0.00     0.016 A 
BRANCH  28  31
HETATM   31  O   UNL     1      41.409 -14.224   0.493  1.00  0.00    -0.347 OA
BRANCH  31  32
HETATM   32  C   UNL     1      40.093 -14.473   0.001  1.00  0.00     0.219 C 
BRANCH  32  33
HETATM   33  C   UNL     1      39.684 -13.291  -0.832  1.00  0.00     0.026 A 
HETATM   34  C   UNL     1      39.038 -12.168  -0.294  1.00  0.00     0.045 A 
HETATM   35 CL   UNL     1      38.631 -12.070   1.384  1.00  0.00    -0.084 Cl
HETATM   36  C   UNL     1      38.699 -11.079  -1.106  1.00  0.00     0.024 A 
HETATM   37  C   UNL     1      39.006 -11.092  -2.467  1.00  0.00     0.005 A 
HETATM   38  C   UNL     1      39.654 -12.196  -3.013  1.00  0.00     0.043 A 
HETATM   39  C   UNL     1      39.988 -13.275  -2.197  1.00  0.00     0.126 A 
HETATM   40  F   UNL     1      40.615 -14.322  -2.754  1.00  0.00    -0.205 F 
ENDBRANCH  32  33
ENDBRANCH  31  32
ENDBRANCH  28  31
ENDBRANCH  24  25
ENDBRANCH   2  23
TORSDOF 10
ENDMDL
MODEL 9
REMARK VINA RESULT:      -7.6      2.147      3.157
REMARK  10 active torsions:
REMARK  status: ('A' for Active; 'I' for Inactive)
REMARK    1  A    between atoms: N_2  and  C_4 
REMARK    2  A    between atoms: C_4  and  C_5 
REMARK    3  A    between atoms: N_6  and  C_7 
REMARK    4  A    between atoms: C_11  and  N_12 
REMARK    5  A    between atoms: C_15  and  C_16 
REMARK       I    between atoms: C_16  and  N_17 
REMARK    6  A    between atoms: N_17  and  N_18 
REMARK    7  A    between atoms: C_19  and  C_20 
REMARK    8  A    between atoms: C_23  and  O_24 
REMARK    9  A    between atoms: O_24  and  C_25 
REMARK   10  A    between atoms: C_25  and  C_26 
ROOT
HETATM    1  C   UNL     1      43.024  -9.436   9.299  1.00  0.00     0.293 C 
HETATM    2  N   UNL     1      42.182  -9.686   8.227  1.00  0.00    -0.242 N 
HETATM    3  O   UNL     1      43.995 -10.106   9.643  1.00  0.00    -0.264 OA
HETATM    4  H   UNL     1      41.522  -8.954   7.966  1.00  0.00     0.192 HD
ENDROOT
BRANCH   1   5
HETATM    5  C   UNL     1      42.665  -8.242  10.059  1.00  0.00     0.170 A 
HETATM    6  C   UNL     1      41.939  -8.187  11.240  1.00  0.00     0.096 A 
HETATM    7  N   UNL     1      41.811  -6.824  11.503  1.00  0.00    -0.215 N 
HETATM    8  N   UNL     1      42.530  -6.134  10.580  1.00  0.00     0.012 NA
HETATM    9  N   UNL     1      43.020  -6.978   9.689  1.00  0.00    -0.152 NA
BRANCH   6  10
HETATM   10  C   UNL     1      41.461  -9.277  12.122  1.00  0.00     0.295 C 
BRANCH  10  11
HETATM   11  N   UNL     1      39.980  -9.551  12.053  1.00  0.00    -0.073 N 
HETATM   12  C   UNL     1      39.591 -10.661  12.995  1.00  0.00     0.269 C 
HETATM   13  H   UNL     1      39.506  -8.707  12.407  1.00  0.00     0.279 HD
HETATM   14  C   UNL     1      39.480  -9.833  10.665  1.00  0.00     0.269 C 
ENDBRANCH  10  11
ENDBRANCH   6  10
BRANCH   7  15
HETATM   15  C   UNL     1      41.036  -6.185  12.499  1.00  0.00     0.225 A 
HETATM   16  N   UNL     1      39.721  -6.419  12.573  1.00  0.00    -0.081 NA
HETATM   17  O   UNL     1      39.304  -5.612  13.636  1.00  0.00    -0.103 OA
HETATM   18  N   UNL     1      40.362  -4.885  14.161  1.00  0.00    -0.083 NA
HETATM   19  C   UNL     1      41.435  -5.237  13.456  1.00  0.00     0.201 A 
BRANCH  19  20
HETATM   20  N   UNL     1      42.671  -4.754  13.656  1.00  0.00    -0.379 N 
HETATM   21  H   UNL     1      43.456  -5.387  13.779  1.00  0.00     0.158 HD
HETATM   22  H   UNL     1      42.876  -3.777  13.860  1.00  0.00     0.158 HD
ENDBRANCH  19  20
ENDBRANCH   7  15
ENDBRANCH   1   5
BRANCH   2  23
HETATM   23  N   UNL     1      42.395 -10.612   7.237  1.00  0.00    -0.184 NA
HETATM   24  C   UNL     1      41.463 -10.813   6.359  1.00  0.00     0.150 C 
BRANCH  24  25
HETATM   25  C   UNL     1      41.582 -11.852   5.317  1.00  0.00    -0.017 A 
HETATM   26  C   UNL     1      42.824 -12.370   4.943  1.00  0.00     0.016 A 
HETATM   27  C   UNL     1      42.900 -13.373   3.969  1.00  0.00     0.037 A 
HETATM   28  C   UNL     1      41.735 -13.866   3.379  1.00  0.00     0.069 A 
HETATM   29  C   UNL     1      40.497 -13.335   3.753  1.00  0.00     0.037 A 
HETATM   30  C   UNL     1      40.415 -12.330   4.718  1.00  0.00     0.016 A 
BRANCH  28  31
HETATM   31  O   UNL     1      41.661 -14.849   2.434  1.00  0.00    -0.347 OA
BRANCH  31  32
HETATM   32  C   UNL     1      41.100 -16.100   2.829  1.00  0.00     0.219 C 
BRANCH  32  33
HETATM   33  C   UNL     1      42.131 -16.826   3.647  1.00  0.00     0.026 A 
HETATM   34  C   UNL     1      42.078 -16.897   5.047  1.00  0.00     0.045 A 
HETATM   35 CL   UNL     1      40.826 -16.119   5.951  1.00  0.00    -0.084 Cl
HETATM   36  C   UNL     1      43.049 -17.606   5.766  1.00  0.00     0.024 A 
HETATM   37  C   UNL     1      44.082 -18.261   5.096  1.00  0.00     0.005 A 
HETATM   38  C   UNL     1      44.142 -18.208   3.707  1.00  0.00     0.043 A 
HETATM   39  C   UNL     1      43.172 -17.499   3.000  1.00  0.00     0.126 A 
HETATM   40  F   UNL     1      43.257 -17.468   1.662  1.00  0.00    -0.205 F 
ENDBRANCH  32  33
ENDBRANCH  31  32
ENDBRANCH  28  31
ENDBRANCH  24  25
ENDBRANCH   2  23
TORSDOF 10
ENDMDL
MODEL 10
REMARK VINA RESULT:      -7.5      6.055     12.727
REMARK  10 active torsions:
REMARK  status: ('A' for Active; 'I' for Inactive)
REMARK    1  A    between atoms: N_2  and  C_4 
REMARK    2  A    between atoms: C_4  and  C_5 
REMARK    3  A    between atoms: N_6  and  C_7 
REMARK    4  A    between atoms: C_11  and  N_12 
REMARK    5  A    between atoms: C_15  and  C_16 
REMARK       I    between atoms: C_16  and  N_17 
REMARK    6  A    between atoms: N_17  and  N_18 
REMARK    7  A    between atoms: C_19  and  C_20 
REMARK    8  A    between atoms: C_23  and  O_24 
REMARK    9  A    between atoms: O_24  and  C_25 
REMARK   10  A    between atoms: C_25  and  C_26 
ROOT
HETATM    1  C   UNL     1      40.183  -9.488   8.122  1.00  0.00     0.293 C 
HETATM    2  N   UNL     1      40.295  -9.904   9.439  1.00  0.00    -0.242 N 
HETATM    3  O   UNL     1      40.204  -8.330   7.713  1.00  0.00    -0.264 OA
HETATM    4  H   UNL     1      40.428 -10.901   9.608  1.00  0.00     0.192 HD
ENDROOT
BRANCH   1   5
HETATM    5  C   UNL     1      40.022 -10.586   7.174  1.00  0.00     0.170 A 
HETATM    6  C   UNL     1      41.008 -11.171   6.392  1.00  0.00     0.096 A 
HETATM    7  N   UNL     1      40.325 -12.108   5.618  1.00  0.00    -0.215 N 
HETATM    8  N   UNL     1      39.029 -12.141   6.020  1.00  0.00     0.012 NA
HETATM    9  N   UNL     1      38.830 -11.206   6.933  1.00  0.00    -0.152 NA
BRANCH   6  10
HETATM   10  C   UNL     1      42.476 -10.968   6.393  1.00  0.00     0.295 C 
BRANCH  10  11
HETATM   11  N   UNL     1      43.237 -11.824   7.374  1.00  0.00    -0.073 N 
HETATM   12  C   UNL     1      44.315 -11.029   8.062  1.00  0.00     0.269 C 
HETATM   13  H   UNL     1      42.571 -12.089   8.115  1.00  0.00     0.279 HD
HETATM   14  C   UNL     1      43.804 -13.079   6.771  1.00  0.00     0.269 C 
ENDBRANCH  10  11
ENDBRANCH   6  10
BRANCH   7  15
HETATM   15  C   UNL     1      40.809 -12.885   4.539  1.00  0.00     0.225 A 
HETATM   16  N   UNL     1      41.388 -12.286   3.493  1.00  0.00    -0.081 NA
HETATM   17  O   UNL     1      41.705 -13.349   2.641  1.00  0.00    -0.103 OA
HETATM   18  N   UNL     1      41.288 -14.560   3.172  1.00  0.00    -0.083 NA
HETATM   19  C   UNL     1      40.730 -14.274   4.346  1.00  0.00     0.201 A 
BRANCH  19  20
HETATM   20  N   UNL     1      40.199 -15.182   5.179  1.00  0.00    -0.379 N 
HETATM   21  H   UNL     1      39.190 -15.276   5.261  1.00  0.00     0.158 HD
HETATM   22  H   UNL     1      40.732 -15.696   5.878  1.00  0.00     0.158 HD
ENDBRANCH  19  20
ENDBRANCH   7  15
ENDBRANCH   1   5
BRANCH   2  23
HETATM   23  N   UNL     1      40.651  -9.114  10.503  1.00  0.00    -0.184 NA
HETATM   24  C   UNL     1      41.377  -9.627  11.447  1.00  0.00     0.150 C 
BRANCH  24  25
HETATM   25  C   UNL     1      41.726  -8.868  12.664  1.00  0.00    -0.017 A 
HETATM   26  C   UNL     1      42.906  -8.124  12.744  1.00  0.00     0.016 A 
HETATM   27  C   UNL     1      43.196  -7.394  13.904  1.00  0.00     0.037 A 
HETATM   28  C   UNL     1      42.303  -7.401  14.977  1.00  0.00     0.069 A 
HETATM   29  C   UNL     1      41.130  -8.157  14.890  1.00  0.00     0.037 A 
HETATM   30  C   UNL     1      40.838  -8.891  13.741  1.00  0.00     0.016 A 
BRANCH  28  31
HETATM   31  O   UNL     1      42.449  -6.726  16.155  1.00  0.00    -0.347 OA
BRANCH  31  32
HETATM   32  C   UNL     1      41.368  -5.898  16.579  1.00  0.00     0.219 C 
BRANCH  32  33
HETATM   33  C   UNL     1      41.250  -6.028  18.072  1.00  0.00     0.026 A 
HETATM   34  C   UNL     1      41.688  -5.033  18.958  1.00  0.00     0.045 A 
HETATM   35 CL   UNL     1      42.435  -3.579  18.397  1.00  0.00    -0.084 Cl
HETATM   36  C   UNL     1      41.534  -5.189  20.342  1.00  0.00     0.024 A 
HETATM   37  C   UNL     1      40.933  -6.336  20.859  1.00  0.00     0.005 A 
HETATM   38  C   UNL     1      40.485  -7.327  19.991  1.00  0.00     0.043 A 
HETATM   39  C   UNL     1      40.643  -7.164  18.616  1.00  0.00     0.126 A 
HETATM   40  F   UNL     1      40.199  -8.137  17.806  1.00  0.00    -0.205 F 
ENDBRANCH  32  33
ENDBRANCH  31  32
ENDBRANCH  28  31
ENDBRANCH  24  25
ENDBRANCH   2  23
TORSDOF 10
ENDMDL
