MODEL 1
REMARK VINA RESULT:      -8.8      0.000      0.000
REMARK  4 active torsions:
REMARK  status: ('A' for Active; 'I' for Inactive)
REMARK    1  A    between atoms: C_7  and  C_8 
REMARK    2  A    between atoms: N_9  and  C_10 
REMARK    3  A    between atoms: C_10  and  C_11 
REMARK       I    between atoms: C_11  and  N_12 
REMARK    4  A    between atoms: N_12  and  C_13 
ROOT
HETATM    1  C   UNL     1      42.248 -13.232   5.716  1.00  0.00     0.158 A 
HETATM    2  N   UNL     1      41.061 -12.392   5.729  1.00  0.00    -0.326 N 
HETATM    3  C   UNL     1      41.271 -11.193   6.375  1.00  0.00     0.255 A 
HETATM    4  O   UNL     1      40.446 -10.350   6.666  1.00  0.00    -0.267 OA
HETATM    5  C   UNL     1      42.698 -11.134   6.714  1.00  0.00     0.040 A 
HETATM    6  C   UNL     1      43.291 -12.336   6.317  1.00  0.00    -0.015 A 
HETATM    7  C   UNL     1      43.406 -10.106   7.308  1.00  0.00     0.017 A 
HETATM    8  C   UNL     1      44.772 -10.304   7.511  1.00  0.00     0.001 A 
HETATM    9  C   UNL     1      45.386 -11.512   7.127  1.00  0.00     0.001 A 
HETATM   10  C   UNL     1      44.646 -12.539   6.531  1.00  0.00     0.011 A 
ENDROOT
BRANCH   1  11
HETATM   11  C   UNL     1      42.694 -13.577   4.327  1.00  0.00     0.004 A 
HETATM   12  C   UNL     1      43.046 -12.732   3.276  1.00  0.00     0.015 A 
HETATM   13  C   UNL     1      43.110 -11.249   3.181  1.00  0.00     0.069 C 
HETATM   14  N   UNL     1      43.371 -13.517   2.197  1.00  0.00    -0.359 N 
HETATM   15  H   UNL     1      43.660 -13.170   1.293  1.00  0.00     0.166 HD
HETATM   16  C   UNL     1      43.248 -14.848   2.508  1.00  0.00     0.043 A 
HETATM   17  C   UNL     1      42.827 -14.923   3.832  1.00  0.00     0.001 A 
HETATM   18  C   UNL     1      43.477 -15.980   1.715  1.00  0.00     0.030 A 
HETATM   19  C   UNL     1      42.625 -16.201   4.396  1.00  0.00     0.014 A 
HETATM   20  C   UNL     1      42.850 -17.345   3.620  1.00  0.00     0.001 A 
HETATM   21  C   UNL     1      43.269 -17.233   2.297  1.00  0.00     0.002 A 
ENDBRANCH   1  11
BRANCH   2  22
HETATM   22  C   UNL     1      39.767 -12.859   5.251  1.00  0.00     0.229 C 
BRANCH  22  23
HETATM   23  C   UNL     1      39.437 -12.459   3.810  1.00  0.00     0.235 C 
HETATM   24  N   UNL     1      39.835 -13.367   2.851  1.00  0.00    -0.355 N 
HETATM   25  H   UNL     1      40.122 -14.275   3.204  1.00  0.00     0.162 HD
HETATM   26  O   UNL     1      38.754 -11.468   3.568  1.00  0.00    -0.272 OA
BRANCH  24  27
HETATM   27  C   UNL     1      39.448 -13.304   1.444  1.00  0.00     0.084 C 
HETATM   28  C   UNL     1      39.843 -11.971   0.781  1.00  0.00     0.025 C 
HETATM   29  C   UNL     1      40.977 -12.113  -0.230  1.00  0.00     0.002 C 
HETATM   30  C   UNL     1      40.674 -13.145  -1.317  1.00  0.00     0.000 C 
HETATM   31  C   UNL     1      39.769 -14.287  -0.854  1.00  0.00     0.002 C 
HETATM   32  C   UNL     1      39.884 -14.541   0.643  1.00  0.00     0.025 C 
ENDBRANCH  24  27
ENDBRANCH  22  23
ENDBRANCH   2  22
TORSDOF 4
ENDMDL
MODEL 2
REMARK VINA RESULT:      -8.8      2.661      5.517
REMARK  4 active torsions:
REMARK  status: ('A' for Active; 'I' for Inactive)
REMARK    1  A    between atoms: C_7  and  C_8 
REMARK    2  A    between atoms: N_9  and  C_10 
REMARK    3  A    between atoms: C_10  and  C_11 
REMARK       I    between atoms: C_11  and  N_12 
REMARK    4  A    between atoms: N_12  and  C_13 
ROOT
HETATM    1  C   UNL     1      39.645 -13.245   3.300  1.00  0.00     0.158 A 
HETATM    2  N   UNL     1      39.737 -13.679   1.916  1.00  0.00    -0.326 N 
HETATM    3  C   UNL     1      39.352 -12.696   1.029  1.00  0.00     0.255 A 
HETATM    4  O   UNL     1      39.191 -12.798  -0.171  1.00  0.00    -0.267 OA
HETATM    5  C   UNL     1      39.104 -11.483   1.817  1.00  0.00     0.040 A 
HETATM    6  C   UNL     1      39.286 -11.793   3.167  1.00  0.00    -0.015 A 
HETATM    7  C   UNL     1      38.761 -10.219   1.376  1.00  0.00     0.017 A 
HETATM    8  C   UNL     1      38.593  -9.227   2.343  1.00  0.00     0.001 A 
HETATM    9  C   UNL     1      38.762  -9.524   3.709  1.00  0.00     0.001 A 
HETATM   10  C   UNL     1      39.105 -10.813   4.131  1.00  0.00     0.011 A 
ENDROOT
BRANCH   1  11
HETATM   11  C   UNL     1      40.959 -13.322   4.017  1.00  0.00     0.004 A 
HETATM   12  C   UNL     1      42.138 -12.616   3.780  1.00  0.00     0.015 A 
HETATM   13  C   UNL     1      42.478 -11.571   2.778  1.00  0.00     0.069 C 
HETATM   14  N   UNL     1      43.073 -13.044   4.690  1.00  0.00    -0.359 N 
HETATM   15  H   UNL     1      44.023 -12.706   4.748  1.00  0.00     0.166 HD
HETATM   16  C   UNL     1      42.545 -14.003   5.518  1.00  0.00     0.043 A 
HETATM   17  C   UNL     1      41.225 -14.201   5.126  1.00  0.00     0.001 A 
HETATM   18  C   UNL     1      43.140 -14.702   6.576  1.00  0.00     0.030 A 
HETATM   19  C   UNL     1      40.456 -15.152   5.832  1.00  0.00     0.014 A 
HETATM   20  C   UNL     1      41.033 -15.860   6.894  1.00  0.00     0.001 A 
HETATM   21  C   UNL     1      42.358 -15.637   7.257  1.00  0.00     0.002 A 
ENDBRANCH   1  11
BRANCH   2  22
HETATM   22  C   UNL     1      40.047 -15.052   1.545  1.00  0.00     0.229 C 
BRANCH  22  23
HETATM   23  C   UNL     1      41.510 -15.455   1.751  1.00  0.00     0.235 C 
HETATM   24  N   UNL     1      41.695 -16.632   2.447  1.00  0.00    -0.355 N 
HETATM   25  H   UNL     1      40.861 -17.197   2.574  1.00  0.00     0.162 HD
HETATM   26  O   UNL     1      42.421 -14.829   1.216  1.00  0.00    -0.272 OA
BRANCH  24  27
HETATM   27  C   UNL     1      42.978 -17.317   2.581  1.00  0.00     0.084 C 
HETATM   28  C   UNL     1      43.674 -17.012   3.921  1.00  0.00     0.025 C 
HETATM   29  C   UNL     1      43.696 -18.202   4.875  1.00  0.00     0.002 C 
HETATM   30  C   UNL     1      44.329 -19.446   4.252  1.00  0.00     0.000 C 
HETATM   31  C   UNL     1      44.146 -19.545   2.737  1.00  0.00     0.002 C 
HETATM   32  C   UNL     1      42.895 -18.818   2.261  1.00  0.00     0.025 C 
ENDBRANCH  24  27
ENDBRANCH  22  23
ENDBRANCH   2  22
TORSDOF 4
ENDMDL
MODEL 3
REMARK VINA RESULT:      -8.8      2.831      5.015
REMARK  4 active torsions:
REMARK  status: ('A' for Active; 'I' for Inactive)
REMARK    1  A    between atoms: C_7  and  C_8 
REMARK    2  A    between atoms: N_9  and  C_10 
REMARK    3  A    between atoms: C_10  and  C_11 
REMARK       I    between atoms: C_11  and  N_12 
REMARK    4  A    between atoms: N_12  and  C_13 
ROOT
HETATM    1  C   UNL     1      43.170 -15.151   3.892  1.00  0.00     0.158 A 
HETATM    2  N   UNL     1      42.999 -16.183   2.883  1.00  0.00    -0.326 N 
HETATM    3  C   UNL     1      43.214 -17.449   3.383  1.00  0.00     0.255 A 
HETATM    4  O   UNL     1      43.279 -18.493   2.763  1.00  0.00    -0.267 OA
HETATM    5  C   UNL     1      43.416 -17.309   4.830  1.00  0.00     0.040 A 
HETATM    6  C   UNL     1      43.380 -15.948   5.146  1.00  0.00    -0.015 A 
HETATM    7  C   UNL     1      43.601 -18.297   5.778  1.00  0.00     0.017 A 
HETATM    8  C   UNL     1      43.760 -17.890   7.103  1.00  0.00     0.001 A 
HETATM    9  C   UNL     1      43.738 -16.523   7.441  1.00  0.00     0.001 A 
HETATM   10  C   UNL     1      43.553 -15.542   6.461  1.00  0.00     0.011 A 
ENDROOT
BRANCH   1  11
HETATM   11  C   UNL     1      41.935 -14.323   4.085  1.00  0.00     0.004 A 
HETATM   12  C   UNL     1      40.727 -14.665   4.691  1.00  0.00     0.015 A 
HETATM   13  C   UNL     1      40.271 -15.922   5.343  1.00  0.00     0.069 C 
HETATM   14  N   UNL     1      39.894 -13.576   4.611  1.00  0.00    -0.359 N 
HETATM   15  H   UNL     1      38.949 -13.541   4.967  1.00  0.00     0.166 HD
HETATM   16  C   UNL     1      40.518 -12.530   3.978  1.00  0.00     0.043 A 
HETATM   17  C   UNL     1      41.796 -12.962   3.636  1.00  0.00     0.001 A 
HETATM   18  C   UNL     1      40.044 -11.245   3.687  1.00  0.00     0.030 A 
HETATM   19  C   UNL     1      42.648 -12.057   2.965  1.00  0.00     0.014 A 
HETATM   20  C   UNL     1      42.192 -10.767   2.666  1.00  0.00     0.001 A 
HETATM   21  C   UNL     1      40.906 -10.370   3.022  1.00  0.00     0.002 A 
ENDBRANCH   1  11
BRANCH   2  22
HETATM   22  C   UNL     1      42.786 -15.874   1.476  1.00  0.00     0.229 C 
BRANCH  22  23
HETATM   23  C   UNL     1      41.356 -15.454   1.124  1.00  0.00     0.235 C 
HETATM   24  N   UNL     1      41.263 -14.396   0.243  1.00  0.00    -0.355 N 
HETATM   25  H   UNL     1      42.129 -14.141  -0.222  1.00  0.00     0.162 HD
HETATM   26  O   UNL     1      40.390 -16.109   1.507  1.00  0.00    -0.272 OA
BRANCH  24  27
HETATM   27  C   UNL     1      40.024 -13.960  -0.395  1.00  0.00     0.084 C 
HETATM   28  C   UNL     1      39.437 -12.694   0.257  1.00  0.00     0.025 C 
HETATM   29  C   UNL     1      39.543 -11.455  -0.629  1.00  0.00     0.002 C 
HETATM   30  C   UNL     1      38.904 -11.656  -2.003  1.00  0.00     0.000 C 
HETATM   31  C   UNL     1      38.957 -13.098  -2.509  1.00  0.00     0.002 C 
HETATM   32  C   UNL     1      40.133 -13.869  -1.925  1.00  0.00     0.025 C 
ENDBRANCH  24  27
ENDBRANCH  22  23
ENDBRANCH   2  22
TORSDOF 4
ENDMDL
MODEL 4
REMARK VINA RESULT:      -8.7      1.999      2.974
REMARK  4 active torsions:
REMARK  status: ('A' for Active; 'I' for Inactive)
REMARK    1  A    between atoms: C_7  and  C_8 
REMARK    2  A    between atoms: N_9  and  C_10 
REMARK    3  A    between atoms: C_10  and  C_11 
REMARK       I    between atoms: C_11  and  N_12 
REMARK    4  A    between atoms: N_12  and  C_13 
ROOT
HETATM    1  C   UNL     1      41.783 -14.781   4.838  1.00  0.00     0.158 A 
HETATM    2  N   UNL     1      40.845 -14.180   3.904  1.00  0.00    -0.326 N 
HETATM    3  C   UNL     1      40.983 -12.811   3.827  1.00  0.00     0.255 A 
HETATM    4  O   UNL     1      40.264 -12.021   3.247  1.00  0.00    -0.267 OA
HETATM    5  C   UNL     1      42.151 -12.452   4.641  1.00  0.00     0.040 A 
HETATM    6  C   UNL     1      42.642 -13.617   5.237  1.00  0.00    -0.015 A 
HETATM    7  C   UNL     1      42.731 -11.211   4.824  1.00  0.00     0.017 A 
HETATM    8  C   UNL     1      43.855 -11.146   5.649  1.00  0.00     0.001 A 
HETATM    9  C   UNL     1      44.358 -12.307   6.268  1.00  0.00     0.001 A 
HETATM   10  C   UNL     1      43.749 -13.551   6.069  1.00  0.00     0.011 A 
ENDROOT
BRANCH   1  11
HETATM   11  C   UNL     1      42.672 -15.797   4.187  1.00  0.00     0.004 A 
HETATM   12  C   UNL     1      43.303 -15.753   2.944  1.00  0.00     0.015 A 
HETATM   13  C   UNL     1      43.318 -14.712   1.882  1.00  0.00     0.069 C 
HETATM   14  N   UNL     1      44.000 -16.925   2.785  1.00  0.00    -0.359 N 
HETATM   15  H   UNL     1      44.548 -17.168   1.972  1.00  0.00     0.166 HD
HETATM   16  C   UNL     1      43.851 -17.734   3.884  1.00  0.00     0.043 A 
HETATM   17  C   UNL     1      43.028 -17.059   4.781  1.00  0.00     0.001 A 
HETATM   18  C   UNL     1      44.382 -19.004   4.143  1.00  0.00     0.030 A 
HETATM   19  C   UNL     1      42.719 -17.690   6.006  1.00  0.00     0.014 A 
HETATM   20  C   UNL     1      43.242 -18.959   6.283  1.00  0.00     0.001 A 
HETATM   21  C   UNL     1      44.061 -19.605   5.362  1.00  0.00     0.002 A 
ENDBRANCH   1  11
BRANCH   2  22
HETATM   22  C   UNL     1      39.783 -14.942   3.262  1.00  0.00     0.229 C 
BRANCH  22  23
HETATM   23  C   UNL     1      39.986 -15.180   1.763  1.00  0.00     0.235 C 
HETATM   24  N   UNL     1      39.880 -14.052   0.976  1.00  0.00    -0.355 N 
HETATM   25  H   UNL     1      39.875 -13.170   1.480  1.00  0.00     0.162 HD
HETATM   26  O   UNL     1      40.343 -16.276   1.338  1.00  0.00    -0.272 OA
BRANCH  24  27
HETATM   27  C   UNL     1      40.237 -13.996  -0.439  1.00  0.00     0.084 C 
HETATM   28  C   UNL     1      39.154 -14.609  -1.347  1.00  0.00     0.025 C 
HETATM   29  C   UNL     1      38.409 -13.572  -2.182  1.00  0.00     0.002 C 
HETATM   30  C   UNL     1      39.346 -12.711  -3.028  1.00  0.00     0.000 C 
HETATM   31  C   UNL     1      40.728 -12.502  -2.409  1.00  0.00     0.002 C 
HETATM   32  C   UNL     1      40.698 -12.600  -0.889  1.00  0.00     0.025 C 
ENDBRANCH  24  27
ENDBRANCH  22  23
ENDBRANCH   2  22
TORSDOF 4
ENDMDL
MODEL 5
REMARK VINA RESULT:      -8.6      2.175      5.383
REMARK  4 active torsions:
REMARK  status: ('A' for Active; 'I' for Inactive)
REMARK    1  A    between atoms: C_7  and  C_8 
REMARK    2  A    between atoms: N_9  and  C_10 
REMARK    3  A    between atoms: C_10  and  C_11 
REMARK       I    between atoms: C_11  and  N_12 
REMARK    4  A    between atoms: N_12  and  C_13 
ROOT
HETATM    1  C   UNL     1      39.647 -13.085   4.825  1.00  0.00     0.158 A 
HETATM    2  N   UNL     1      39.916 -13.001   3.399  1.00  0.00    -0.326 N 
HETATM    3  C   UNL     1      39.699 -11.737   2.896  1.00  0.00     0.255 A 
HETATM    4  O   UNL     1      39.705 -11.387   1.731  1.00  0.00    -0.267 OA
HETATM    5  C   UNL     1      39.390 -10.868   4.038  1.00  0.00     0.040 A 
HETATM    6  C   UNL     1      39.367 -11.657   5.192  1.00  0.00    -0.015 A 
HETATM    7  C   UNL     1      39.162  -9.505   4.054  1.00  0.00     0.017 A 
HETATM    8  C   UNL     1      38.898  -8.916   5.291  1.00  0.00     0.001 A 
HETATM    9  C   UNL     1      38.860  -9.695   6.463  1.00  0.00     0.001 A 
HETATM   10  C   UNL     1      39.090 -11.074   6.420  1.00  0.00     0.011 A 
ENDROOT
BRANCH   1  11
HETATM   11  C   UNL     1      40.842 -13.529   5.612  1.00  0.00     0.004 A 
HETATM   12  C   UNL     1      41.014 -14.672   6.391  1.00  0.00     0.015 A 
HETATM   13  C   UNL     1      40.104 -15.811   6.686  1.00  0.00     0.069 C 
HETATM   14  N   UNL     1      42.278 -14.630   6.926  1.00  0.00    -0.359 N 
HETATM   15  H   UNL     1      42.673 -15.330   7.538  1.00  0.00     0.166 HD
HETATM   16  C   UNL     1      42.942 -13.499   6.520  1.00  0.00     0.043 A 
HETATM   17  C   UNL     1      42.074 -12.788   5.696  1.00  0.00     0.001 A 
HETATM   18  C   UNL     1      44.238 -13.061   6.823  1.00  0.00     0.030 A 
HETATM   19  C   UNL     1      42.529 -11.570   5.144  1.00  0.00     0.014 A 
HETATM   20  C   UNL     1      43.821 -11.117   5.434  1.00  0.00     0.001 A 
HETATM   21  C   UNL     1      44.662 -11.854   6.263  1.00  0.00     0.002 A 
ENDBRANCH   1  11
BRANCH   2  22
HETATM   22  C   UNL     1      40.222 -14.172   2.590  1.00  0.00     0.229 C 
BRANCH  22  23
HETATM   23  C   UNL     1      41.662 -14.678   2.716  1.00  0.00     0.235 C 
HETATM   24  N   UNL     1      41.781 -15.998   3.096  1.00  0.00    -0.355 N 
HETATM   25  H   UNL     1      40.923 -16.540   3.061  1.00  0.00     0.162 HD
HETATM   26  O   UNL     1      42.612 -13.979   2.373  1.00  0.00    -0.272 OA
BRANCH  24  27
HETATM   27  C   UNL     1      43.032 -16.752   3.078  1.00  0.00     0.084 C 
HETATM   28  C   UNL     1      43.750 -16.739   4.441  1.00  0.00     0.025 C 
HETATM   29  C   UNL     1      43.724 -18.090   5.150  1.00  0.00     0.002 C 
HETATM   30  C   UNL     1      44.296 -19.218   4.292  1.00  0.00     0.000 C 
HETATM   31  C   UNL     1      44.100 -19.017   2.789  1.00  0.00     0.002 C 
HETATM   32  C   UNL     1      42.880 -18.159   2.479  1.00  0.00     0.025 C 
ENDBRANCH  24  27
ENDBRANCH  22  23
ENDBRANCH   2  22
TORSDOF 4
ENDMDL
MODEL 6
REMARK VINA RESULT:      -8.4      2.160      6.348
REMARK  4 active torsions:
REMARK  status: ('A' for Active; 'I' for Inactive)
REMARK    1  A    between atoms: C_7  and  C_8 
REMARK    2  A    between atoms: N_9  and  C_10 
REMARK    3  A    between atoms: C_10  and  C_11 
REMARK       I    between atoms: C_11  and  N_12 
REMARK    4  A    between atoms: N_12  and  C_13 
ROOT
HETATM    1  C   UNL     1      42.054 -12.225   3.168  1.00  0.00     0.158 A 
HETATM    2  N   UNL     1      42.640 -11.315   4.138  1.00  0.00    -0.326 N 
HETATM    3  C   UNL     1      41.822 -10.240   4.413  1.00  0.00     0.255 A 
HETATM    4  O   UNL     1      42.086  -9.251   5.069  1.00  0.00    -0.267 OA
HETATM    5  C   UNL     1      40.556 -10.474   3.707  1.00  0.00     0.040 A 
HETATM    6  C   UNL     1      40.678 -11.657   2.973  1.00  0.00    -0.015 A 
HETATM    7  C   UNL     1      39.402  -9.715   3.724  1.00  0.00     0.017 A 
HETATM    8  C   UNL     1      38.325 -10.172   2.964  1.00  0.00     0.001 A 
HETATM    9  C   UNL     1      38.432 -11.356   2.209  1.00  0.00     0.001 A 
HETATM   10  C   UNL     1      39.614 -12.104   2.205  1.00  0.00     0.011 A 
ENDROOT
BRANCH   1  11
HETATM   11  C   UNL     1      41.897 -13.615   3.705  1.00  0.00     0.004 A 
HETATM   12  C   UNL     1      41.267 -14.047   4.872  1.00  0.00     0.015 A 
HETATM   13  C   UNL     1      40.549 -13.300   5.939  1.00  0.00     0.069 C 
HETATM   14  N   UNL     1      41.397 -15.412   4.939  1.00  0.00    -0.359 N 
HETATM   15  H   UNL     1      41.038 -15.993   5.684  1.00  0.00     0.166 HD
HETATM   16  C   UNL     1      42.086 -15.891   3.853  1.00  0.00     0.043 A 
HETATM   17  C   UNL     1      42.413 -14.794   3.060  1.00  0.00     0.001 A 
HETATM   18  C   UNL     1      42.439 -17.205   3.521  1.00  0.00     0.030 A 
HETATM   19  C   UNL     1      43.134 -15.026   1.868  1.00  0.00     0.014 A 
HETATM   20  C   UNL     1      43.495 -16.334   1.519  1.00  0.00     0.001 A 
HETATM   21  C   UNL     1      43.152 -17.406   2.337  1.00  0.00     0.002 A 
ENDBRANCH   1  11
BRANCH   2  22
HETATM   22  C   UNL     1      44.006 -11.460   4.622  1.00  0.00     0.229 C 
BRANCH  22  23
HETATM   23  C   UNL     1      44.123 -11.777   6.115  1.00  0.00     0.235 C 
HETATM   24  N   UNL     1      44.080 -10.677   6.947  1.00  0.00    -0.355 N 
HETATM   25  H   UNL     1      43.783  -9.811   6.507  1.00  0.00     0.162 HD
HETATM   26  O   UNL     1      44.123 -12.936   6.520  1.00  0.00    -0.272 OA
BRANCH  24  27
HETATM   27  C   UNL     1      43.963 -10.745   8.401  1.00  0.00     0.084 C 
HETATM   28  C   UNL     1      45.324 -10.614   9.110  1.00  0.00     0.025 C 
HETATM   29  C   UNL     1      45.491  -9.292   9.855  1.00  0.00     0.002 C 
HETATM   30  C   UNL     1      44.372  -9.038  10.865  1.00  0.00     0.000 C 
HETATM   31  C   UNL     1      43.029  -9.656  10.473  1.00  0.00     0.002 C 
HETATM   32  C   UNL     1      42.884  -9.807   8.964  1.00  0.00     0.025 C 
ENDBRANCH  24  27
ENDBRANCH  22  23
ENDBRANCH   2  22
TORSDOF 4
ENDMDL
MODEL 7
REMARK VINA RESULT:      -8.4     16.599     19.656
REMARK  4 active torsions:
REMARK  status: ('A' for Active; 'I' for Inactive)
REMARK    1  A    between atoms: C_7  and  C_8 
REMARK    2  A    between atoms: N_9  and  C_10 
REMARK    3  A    between atoms: C_10  and  C_11 
REMARK       I    between atoms: C_11  and  N_12 
REMARK    4  A    between atoms: N_12  and  C_13 
ROOT
HETATM    1  C   UNL     1      47.519 -29.414  -2.230  1.00  0.00     0.158 A 
HETATM    2  N   UNL     1      46.887 -28.498  -1.295  1.00  0.00    -0.326 N 
HETATM    3  C   UNL     1      45.548 -28.310  -1.566  1.00  0.00     0.255 A 
HETATM    4  O   UNL     1      44.790 -27.509  -1.055  1.00  0.00    -0.267 OA
HETATM    5  C   UNL     1      45.198 -29.231  -2.654  1.00  0.00     0.040 A 
HETATM    6  C   UNL     1      46.359 -29.901  -3.050  1.00  0.00    -0.015 A 
HETATM    7  C   UNL     1      43.964 -29.461  -3.231  1.00  0.00     0.017 A 
HETATM    8  C   UNL     1      43.902 -30.409  -4.253  1.00  0.00     0.001 A 
HETATM    9  C   UNL     1      45.063 -31.086  -4.673  1.00  0.00     0.001 A 
HETATM   10  C   UNL     1      46.302 -30.832  -4.076  1.00  0.00     0.011 A 
ENDROOT
BRANCH   1  11
HETATM   11  C   UNL     1      48.124 -30.604  -1.550  1.00  0.00     0.004 A 
HETATM   12  C   UNL     1      47.511 -31.581  -0.768  1.00  0.00     0.015 A 
HETATM   13  C   UNL     1      46.092 -31.776  -0.365  1.00  0.00     0.069 C 
HETATM   14  N   UNL     1      48.482 -32.460  -0.355  1.00  0.00    -0.359 N 
HETATM   15  H   UNL     1      48.323 -33.267   0.231  1.00  0.00     0.166 HD
HETATM   16  C   UNL     1      49.711 -32.094  -0.845  1.00  0.00     0.043 A 
HETATM   17  C   UNL     1      49.524 -30.938  -1.598  1.00  0.00     0.001 A 
HETATM   18  C   UNL     1      50.962 -32.699  -0.675  1.00  0.00     0.030 A 
HETATM   19  C   UNL     1      50.652 -30.356  -2.216  1.00  0.00     0.014 A 
HETATM   20  C   UNL     1      51.911 -30.948  -2.059  1.00  0.00     0.001 A 
HETATM   21  C   UNL     1      52.061 -32.103  -1.297  1.00  0.00     0.002 A 
ENDBRANCH   1  11
BRANCH   2  22
HETATM   22  C   UNL     1      47.642 -27.752  -0.298  1.00  0.00     0.229 C 
BRANCH  22  23
HETATM   23  C   UNL     1      47.549 -28.314   1.123  1.00  0.00     0.235 C 
HETATM   24  N   UNL     1      48.579 -29.159   1.482  1.00  0.00    -0.355 N 
HETATM   25  H   UNL     1      49.376 -29.164   0.852  1.00  0.00     0.162 HD
HETATM   26  O   UNL     1      46.685 -27.923   1.905  1.00  0.00    -0.272 OA
BRANCH  24  27
HETATM   27  C   UNL     1      48.815 -29.643   2.839  1.00  0.00     0.084 C 
HETATM   28  C   UNL     1      48.044 -30.941   3.146  1.00  0.00     0.025 C 
HETATM   29  C   UNL     1      48.947 -32.165   3.269  1.00  0.00     0.002 C 
HETATM   30  C   UNL     1      50.053 -31.980   4.308  1.00  0.00     0.000 C 
HETATM   31  C   UNL     1      50.518 -30.532   4.471  1.00  0.00     0.002 C 
HETATM   32  C   UNL     1      50.306 -29.715   3.203  1.00  0.00     0.025 C 
ENDBRANCH  24  27
ENDBRANCH  22  23
ENDBRANCH   2  22
TORSDOF 4
ENDMDL
MODEL 8
REMARK VINA RESULT:      -8.3      1.793      6.515
REMARK  4 active torsions:
REMARK  status: ('A' for Active; 'I' for Inactive)
REMARK    1  A    between atoms: C_7  and  C_8 
REMARK    2  A    between atoms: N_9  and  C_10 
REMARK    3  A    between atoms: C_10  and  C_11 
REMARK       I    between atoms: C_11  and  N_12 
REMARK    4  A    between atoms: N_12  and  C_13 
ROOT
HETATM    1  C   UNL     1      40.715 -13.549   3.565  1.00  0.00     0.158 A 
HETATM    2  N   UNL     1      41.080 -13.428   4.967  1.00  0.00    -0.326 N 
HETATM    3  C   UNL     1      41.966 -14.405   5.367  1.00  0.00     0.255 A 
HETATM    4  O   UNL     1      42.346 -14.649   6.496  1.00  0.00    -0.267 OA
HETATM    5  C   UNL     1      42.337 -15.164   4.166  1.00  0.00     0.040 A 
HETATM    6  C   UNL     1      41.609 -14.657   3.087  1.00  0.00    -0.015 A 
HETATM    7  C   UNL     1      43.245 -16.198   4.041  1.00  0.00     0.017 A 
HETATM    8  C   UNL     1      43.422 -16.744   2.770  1.00  0.00     0.001 A 
HETATM    9  C   UNL     1      42.689 -16.254   1.671  1.00  0.00     0.001 A 
HETATM   10  C   UNL     1      41.772 -15.209   1.825  1.00  0.00     0.011 A 
ENDROOT
BRANCH   1  11
HETATM   11  C   UNL     1      41.052 -12.323   2.773  1.00  0.00     0.004 A 
HETATM   12  C   UNL     1      42.253 -11.618   2.703  1.00  0.00     0.015 A 
HETATM   13  C   UNL     1      43.569 -11.844   3.358  1.00  0.00     0.069 C 
HETATM   14  N   UNL     1      42.068 -10.555   1.854  1.00  0.00    -0.359 N 
HETATM   15  H   UNL     1      42.772  -9.870   1.620  1.00  0.00     0.166 HD
HETATM   16  C   UNL     1      40.787 -10.542   1.361  1.00  0.00     0.043 A 
HETATM   17  C   UNL     1      40.124 -11.634   1.914  1.00  0.00     0.001 A 
HETATM   18  C   UNL     1      40.175  -9.648   0.473  1.00  0.00     0.030 A 
HETATM   19  C   UNL     1      38.774 -11.844   1.559  1.00  0.00     0.014 A 
HETATM   20  C   UNL     1      38.145 -10.962   0.671  1.00  0.00     0.001 A 
HETATM   21  C   UNL     1      38.839  -9.879   0.138  1.00  0.00     0.002 A 
ENDBRANCH   1  11
BRANCH   2  22
HETATM   22  C   UNL     1      40.442 -12.473   5.862  1.00  0.00     0.229 C 
BRANCH  22  23
HETATM   23  C   UNL     1      41.310 -11.268   6.234  1.00  0.00     0.235 C 
HETATM   24  N   UNL     1      42.363 -11.551   7.078  1.00  0.00    -0.355 N 
HETATM   25  H   UNL     1      42.567 -12.538   7.204  1.00  0.00     0.162 HD
HETATM   26  O   UNL     1      41.136 -10.174   5.704  1.00  0.00    -0.272 OA
BRANCH  24  27
HETATM   27  C   UNL     1      43.438 -10.616   7.399  1.00  0.00     0.084 C 
HETATM   28  C   UNL     1      43.136  -9.777   8.656  1.00  0.00     0.025 C 
HETATM   29  C   UNL     1      44.007 -10.148   9.853  1.00  0.00     0.002 C 
HETATM   30  C   UNL     1      45.502 -10.068   9.542  1.00  0.00     0.000 C 
HETATM   31  C   UNL     1      45.851 -10.365   8.083  1.00  0.00     0.002 C 
HETATM   32  C   UNL     1      44.825 -11.276   7.421  1.00  0.00     0.025 C 
ENDBRANCH  24  27
ENDBRANCH  22  23
ENDBRANCH   2  22
TORSDOF 4
ENDMDL
MODEL 9
REMARK VINA RESULT:      -8.1      2.148      5.938
REMARK  4 active torsions:
REMARK  status: ('A' for Active; 'I' for Inactive)
REMARK    1  A    between atoms: C_7  and  C_8 
REMARK    2  A    between atoms: N_9  and  C_10 
REMARK    3  A    between atoms: C_10  and  C_11 
REMARK       I    between atoms: C_11  and  N_12 
REMARK    4  A    between atoms: N_12  and  C_13 
ROOT
HETATM    1  C   UNL     1      42.290 -13.646   2.399  1.00  0.00     0.158 A 
HETATM    2  N   UNL     1      42.447 -12.202   2.454  1.00  0.00    -0.326 N 
HETATM    3  C   UNL     1      41.783 -11.560   1.432  1.00  0.00     0.255 A 
HETATM    4  O   UNL     1      41.836 -10.383   1.132  1.00  0.00    -0.267 OA
HETATM    5  C   UNL     1      41.022 -12.585   0.706  1.00  0.00     0.040 A 
HETATM    6  C   UNL     1      41.307 -13.828   1.279  1.00  0.00    -0.015 A 
HETATM    7  C   UNL     1      40.150 -12.428  -0.354  1.00  0.00     0.017 A 
HETATM    8  C   UNL     1      39.542 -13.578  -0.858  1.00  0.00     0.001 A 
HETATM    9  C   UNL     1      39.824 -14.840  -0.301  1.00  0.00     0.001 A 
HETATM   10  C   UNL     1      40.714 -14.973   0.770  1.00  0.00     0.011 A 
ENDROOT
BRANCH   1  11
HETATM   11  C   UNL     1      41.668 -14.206   3.642  1.00  0.00     0.004 A 
HETATM   12  C   UNL     1      40.479 -13.847   4.274  1.00  0.00     0.015 A 
HETATM   13  C   UNL     1      39.449 -12.828   3.935  1.00  0.00     0.069 C 
HETATM   14  N   UNL     1      40.341 -14.637   5.389  1.00  0.00    -0.359 N 
HETATM   15  H   UNL     1      39.571 -14.591   6.041  1.00  0.00     0.166 HD
HETATM   16  C   UNL     1      41.397 -15.506   5.505  1.00  0.00     0.043 A 
HETATM   17  C   UNL     1      42.246 -15.264   4.429  1.00  0.00     0.001 A 
HETATM   18  C   UNL     1      41.658 -16.477   6.480  1.00  0.00     0.030 A 
HETATM   19  C   UNL     1      43.421 -16.040   4.321  1.00  0.00     0.014 A 
HETATM   20  C   UNL     1      43.698 -17.018   5.284  1.00  0.00     0.001 A 
HETATM   21  C   UNL     1      42.827 -17.230   6.349  1.00  0.00     0.002 A 
ENDBRANCH   1  11
BRANCH   2  22
HETATM   22  C   UNL     1      43.345 -11.549   3.396  1.00  0.00     0.229 C 
BRANCH  22  23
HETATM   23  C   UNL     1      42.642 -10.817   4.544  1.00  0.00     0.235 C 
HETATM   24  N   UNL     1      42.074  -9.609   4.200  1.00  0.00    -0.355 N 
HETATM   25  H   UNL     1      42.010  -9.427   3.203  1.00  0.00     0.162 HD
HETATM   26  O   UNL     1      42.499 -11.350   5.642  1.00  0.00    -0.272 OA
BRANCH  24  27
HETATM   27  C   UNL     1      41.181  -8.840   5.064  1.00  0.00     0.084 C 
HETATM   28  C   UNL     1      39.752  -9.412   5.095  1.00  0.00     0.025 C 
HETATM   29  C   UNL     1      39.391 -10.063   6.428  1.00  0.00     0.002 C 
HETATM   30  C   UNL     1      39.581  -9.120   7.615  1.00  0.00     0.000 C 
HETATM   31  C   UNL     1      40.694  -8.090   7.420  1.00  0.00     0.002 C 
HETATM   32  C   UNL     1      41.770  -8.581   6.460  1.00  0.00     0.025 C 
ENDBRANCH  24  27
ENDBRANCH  22  23
ENDBRANCH   2  22
TORSDOF 4
ENDMDL
MODEL 10
REMARK VINA RESULT:      -8.1      2.143      6.455
REMARK  4 active torsions:
REMARK  status: ('A' for Active; 'I' for Inactive)
REMARK    1  A    between atoms: C_7  and  C_8 
REMARK    2  A    between atoms: N_9  and  C_10 
REMARK    3  A    between atoms: C_10  and  C_11 
REMARK       I    between atoms: C_11  and  N_12 
REMARK    4  A    between atoms: N_12  and  C_13 
ROOT
HETATM    1  C   UNL     1      42.229 -12.561   2.677  1.00  0.00     0.158 A 
HETATM    2  N   UNL     1      42.706 -11.608   3.666  1.00  0.00    -0.326 N 
HETATM    3  C   UNL     1      41.801 -10.597   3.903  1.00  0.00     0.255 A 
HETATM    4  O   UNL     1      41.965  -9.590   4.565  1.00  0.00    -0.267 OA
HETATM    5  C   UNL     1      40.586 -10.924   3.148  1.00  0.00     0.040 A 
HETATM    6  C   UNL     1      40.824 -12.096   2.424  1.00  0.00    -0.015 A 
HETATM    7  C   UNL     1      39.378 -10.252   3.115  1.00  0.00     0.017 A 
HETATM    8  C   UNL     1      38.370 -10.789   2.314  1.00  0.00     0.001 A 
HETATM    9  C   UNL     1      38.594 -11.962   1.568  1.00  0.00     0.001 A 
HETATM   10  C   UNL     1      39.827 -12.621   1.615  1.00  0.00     0.011 A 
ENDROOT
BRANCH   1  11
HETATM   11  C   UNL     1      42.152 -13.958   3.213  1.00  0.00     0.004 A 
HETATM   12  C   UNL     1      42.710 -15.131   2.707  1.00  0.00     0.015 A 
HETATM   13  C   UNL     1      43.555 -15.385   1.509  1.00  0.00     0.069 C 
HETATM   14  N   UNL     1      42.351 -16.161   3.541  1.00  0.00    -0.359 N 
HETATM   15  H   UNL     1      42.612 -17.129   3.414  1.00  0.00     0.166 HD
HETATM   16  C   UNL     1      41.580 -15.702   4.580  1.00  0.00     0.043 A 
HETATM   17  C   UNL     1      41.436 -14.328   4.406  1.00  0.00     0.001 A 
HETATM   18  C   UNL     1      41.005 -16.400   5.648  1.00  0.00     0.030 A 
HETATM   19  C   UNL     1      40.675 -13.613   5.357  1.00  0.00     0.014 A 
HETATM   20  C   UNL     1      40.094 -14.294   6.434  1.00  0.00     0.001 A 
HETATM   21  C   UNL     1      40.257 -15.669   6.574  1.00  0.00     0.002 A 
ENDBRANCH   1  11
BRANCH   2  22
HETATM   22  C   UNL     1      44.058 -11.652   4.205  1.00  0.00     0.229 C 
BRANCH  22  23
HETATM   23  C   UNL     1      44.136 -11.923   5.710  1.00  0.00     0.235 C 
HETATM   24  N   UNL     1      44.140 -10.794   6.503  1.00  0.00    -0.355 N 
HETATM   25  H   UNL     1      43.896  -9.929   6.029  1.00  0.00     0.162 HD
HETATM   26  O   UNL     1      44.067 -13.066   6.153  1.00  0.00    -0.272 OA
BRANCH  24  27
HETATM   27  C   UNL     1      43.998 -10.806   7.957  1.00  0.00     0.084 C 
HETATM   28  C   UNL     1      45.350 -10.676   8.684  1.00  0.00     0.025 C 
HETATM   29  C   UNL     1      45.532  -9.332   9.383  1.00  0.00     0.002 C 
HETATM   30  C   UNL     1      44.402  -9.018  10.363  1.00  0.00     0.000 C 
HETATM   31  C   UNL     1      43.053  -9.621   9.971  1.00  0.00     0.002 C 
HETATM   32  C   UNL     1      42.930  -9.825   8.466  1.00  0.00     0.025 C 
ENDBRANCH  24  27
ENDBRANCH  22  23
ENDBRANCH   2  22
TORSDOF 4
ENDMDL
