MODEL 1
REMARK VINA RESULT:      -8.5      0.000      0.000
REMARK  7 active torsions:
REMARK  status: ('A' for Active; 'I' for Inactive)
REMARK    1  A    between atoms: C_2  and  C_3 
REMARK    2  A    between atoms: C_3  and  N_4 
REMARK    3  A    between atoms: C_3  and  C_22 
REMARK       I    between atoms: N_4  and  C_5 
REMARK       I    between atoms: C_5  and  N_6 
REMARK    4  A    between atoms: N_6  and  C_7 
REMARK    5  A    between atoms: C_7  and  C_8 
REMARK    6  A    between atoms: C_11  and  N_12 
REMARK       I    between atoms: N_12  and  C_13 
REMARK       I    between atoms: C_13  and  N_14 
REMARK    7  A    between atoms: N_14  and  C_15 
ROOT
HETATM    1  N   UNL     1      42.937 -12.743   5.314  1.00  0.00    -0.331 N 
HETATM    2  C   UNL     1      43.806 -12.527   6.341  1.00  0.00     0.317 C 
HETATM    3  N   UNL     1      44.662 -11.502   6.063  1.00  0.00    -0.339 N 
HETATM    4  O   UNL     1      43.811 -13.167   7.384  1.00  0.00    -0.247 OA
HETATM    5  H   UNL     1      42.808 -12.003   4.636  1.00  0.00     0.165 HD
HETATM    6  H   UNL     1      44.869 -11.360   5.085  1.00  0.00     0.164 HD
ENDROOT
BRANCH   1   7
HETATM    7  C   UNL     1      41.847 -13.698   5.404  1.00  0.00     0.159 C 
BRANCH   7   8
HETATM    8  C   UNL     1      40.546 -13.178   4.734  1.00  0.00     0.008 C 
HETATM    9  C   UNL     1      40.838 -12.080   3.705  1.00  0.00     0.012 C 
HETATM   10  C   UNL     1      39.483 -12.695   5.726  1.00  0.00     0.012 C 
ENDBRANCH   7   8
BRANCH   7  11
HETATM   11  C   UNL     1      42.357 -14.973   4.793  1.00  0.00     0.128 A 
HETATM   12  N   UNL     1      42.068 -15.447   3.593  1.00  0.00    -0.231 NA
HETATM   13  C   UNL     1      42.758 -16.629   3.485  1.00  0.00     0.085 A 
HETATM   14  C   UNL     1      43.501 -16.876   4.634  1.00  0.00     0.062 A 
HETATM   15  C   UNL     1      42.800 -17.550   2.430  1.00  0.00     0.034 A 
HETATM   16  N   UNL     1      43.240 -15.801   5.445  1.00  0.00    -0.341 N 
HETATM   17  C   UNL     1      44.299 -18.009   4.802  1.00  0.00     0.032 A 
HETATM   18  H   UNL     1      43.623 -15.648   6.365  1.00  0.00     0.167 HD
HETATM   19  C   UNL     1      44.327 -18.920   3.739  1.00  0.00     0.002 A 
HETATM   20  C   UNL     1      43.591 -18.698   2.572  1.00  0.00     0.002 A 
ENDBRANCH   7  11
ENDBRANCH   1   7
BRANCH   3  21
HETATM   21  C   UNL     1      45.684 -11.119   7.011  1.00  0.00     0.162 C 
BRANCH  21  22
HETATM   22  C   UNL     1      45.095 -10.308   8.135  1.00  0.00    -0.040 A 
HETATM   23  C   UNL     1      45.647 -10.370   9.423  1.00  0.00     0.011 A 
HETATM   24  C   UNL     1      45.071  -9.666  10.485  1.00  0.00     0.030 A 
HETATM   25  C   UNL     1      43.938  -8.880  10.280  1.00  0.00     0.036 A 
HETATM   26  C   UNL     1      43.417  -8.772   8.985  1.00  0.00     0.030 A 
HETATM   27  C   UNL     1      43.986  -9.483   7.922  1.00  0.00     0.011 A 
BRANCH  25  28
HETATM   28  N   UNL     1      43.268  -8.187  11.309  1.00  0.00    -0.309 N 
HETATM   29  C   UNL     1      42.357  -8.706  12.206  1.00  0.00     0.321 C 
HETATM   30  N   UNL     1      41.881  -7.708  13.036  1.00  0.00    -0.339 N 
HETATM   31  O   UNL     1      41.964  -9.863  12.259  1.00  0.00    -0.247 OA
HETATM   32  H   UNL     1      42.538  -6.970  13.236  1.00  0.00     0.164 HD
HETATM   33  H   UNL     1      43.290  -7.181  11.259  1.00  0.00     0.170 HD
BRANCH  30  34
HETATM   34  C   UNL     1      40.838  -7.923  14.034  1.00  0.00     0.078 C 
HETATM   35  C   UNL     1      41.408  -8.211  15.422  1.00  0.00     0.032 C 
HETATM   36  C   UNL     1      39.820  -6.787  14.066  1.00  0.00     0.032 C 
ENDBRANCH  30  34
ENDBRANCH  25  28
ENDBRANCH  21  22
ENDBRANCH   3  21
TORSDOF 7
ENDMDL
MODEL 2
REMARK VINA RESULT:      -8.4      3.286     10.669
REMARK  7 active torsions:
REMARK  status: ('A' for Active; 'I' for Inactive)
REMARK    1  A    between atoms: C_2  and  C_3 
REMARK    2  A    between atoms: C_3  and  N_4 
REMARK    3  A    between atoms: C_3  and  C_22 
REMARK       I    between atoms: N_4  and  C_5 
REMARK       I    between atoms: C_5  and  N_6 
REMARK    4  A    between atoms: N_6  and  C_7 
REMARK    5  A    between atoms: C_7  and  C_8 
REMARK    6  A    between atoms: C_11  and  N_12 
REMARK       I    between atoms: N_12  and  C_13 
REMARK       I    between atoms: C_13  and  N_14 
REMARK    7  A    between atoms: N_14  and  C_15 
ROOT
HETATM    1  N   UNL     1      43.329 -11.184   8.316  1.00  0.00    -0.331 N 
HETATM    2  C   UNL     1      43.853 -12.067   7.421  1.00  0.00     0.317 C 
HETATM    3  N   UNL     1      42.873 -12.709   6.722  1.00  0.00    -0.339 N 
HETATM    4  O   UNL     1      45.051 -12.254   7.259  1.00  0.00    -0.247 OA
HETATM    5  H   UNL     1      42.372 -10.882   8.183  1.00  0.00     0.165 HD
HETATM    6  H   UNL     1      41.994 -12.822   7.207  1.00  0.00     0.164 HD
ENDROOT
BRANCH   1   7
HETATM    7  C   UNL     1      44.158 -10.287   9.102  1.00  0.00     0.159 C 
BRANCH   7   8
HETATM    8  C   UNL     1      44.593  -9.029   8.303  1.00  0.00     0.008 C 
HETATM    9  C   UNL     1      46.118  -8.925   8.193  1.00  0.00     0.012 C 
HETATM   10  C   UNL     1      44.017  -7.715   8.844  1.00  0.00     0.012 C 
ENDBRANCH   7   8
BRANCH   7  11
HETATM   11  C   UNL     1      43.365  -9.958  10.336  1.00  0.00     0.128 A 
HETATM   12  N   UNL     1      43.824  -9.414  11.450  1.00  0.00    -0.231 NA
HETATM   13  C   UNL     1      42.740  -9.312  12.286  1.00  0.00     0.085 A 
HETATM   14  C   UNL     1      41.589  -9.785  11.666  1.00  0.00     0.062 A 
HETATM   15  C   UNL     1      42.662  -8.824  13.597  1.00  0.00     0.034 A 
HETATM   16  N   UNL     1      42.010 -10.176  10.422  1.00  0.00    -0.341 N 
HETATM   17  C   UNL     1      40.338  -9.802  12.285  1.00  0.00     0.032 A 
HETATM   18  H   UNL     1      41.428 -10.565   9.696  1.00  0.00     0.167 HD
HETATM   19  C   UNL     1      40.278  -9.312  13.595  1.00  0.00     0.002 A 
HETATM   20  C   UNL     1      41.419  -8.831  14.244  1.00  0.00     0.002 A 
ENDBRANCH   7  11
ENDBRANCH   1   7
BRANCH   3  21
HETATM   21  C   UNL     1      43.209 -13.708   5.733  1.00  0.00     0.162 C 
BRANCH  21  22
HETATM   22  C   UNL     1      42.188 -13.730   4.625  1.00  0.00    -0.040 A 
HETATM   23  C   UNL     1      42.176 -14.773   3.689  1.00  0.00     0.011 A 
HETATM   24  C   UNL     1      41.271 -14.770   2.623  1.00  0.00     0.030 A 
HETATM   25  C   UNL     1      40.354 -13.731   2.477  1.00  0.00     0.036 A 
HETATM   26  C   UNL     1      40.325 -12.716   3.441  1.00  0.00     0.030 A 
HETATM   27  C   UNL     1      41.237 -12.712   4.503  1.00  0.00     0.011 A 
BRANCH  25  28
HETATM   28  N   UNL     1      39.449 -13.629   1.401  1.00  0.00    -0.309 N 
HETATM   29  C   UNL     1      39.740 -13.276   0.098  1.00  0.00     0.321 C 
HETATM   30  N   UNL     1      38.583 -13.241  -0.657  1.00  0.00    -0.339 N 
HETATM   31  O   UNL     1      40.840 -12.981  -0.348  1.00  0.00    -0.247 OA
HETATM   32  H   UNL     1      37.871 -13.898  -0.379  1.00  0.00     0.164 HD
HETATM   33  H   UNL     1      38.471 -13.604   1.640  1.00  0.00     0.170 HD
BRANCH  30  34
HETATM   34  C   UNL     1      38.549 -12.816  -2.053  1.00  0.00     0.078 C 
HETATM   35  C   UNL     1      38.674 -13.988  -3.025  1.00  0.00     0.032 C 
HETATM   36  C   UNL     1      37.333 -11.948  -2.367  1.00  0.00     0.032 C 
ENDBRANCH  30  34
ENDBRANCH  25  28
ENDBRANCH  21  22
ENDBRANCH   3  21
TORSDOF 7
ENDMDL
MODEL 3
REMARK VINA RESULT:      -8.2      2.112      3.746
REMARK  7 active torsions:
REMARK  status: ('A' for Active; 'I' for Inactive)
REMARK    1  A    between atoms: C_2  and  C_3 
REMARK    2  A    between atoms: C_3  and  N_4 
REMARK    3  A    between atoms: C_3  and  C_22 
REMARK       I    between atoms: N_4  and  C_5 
REMARK       I    between atoms: C_5  and  N_6 
REMARK    4  A    between atoms: N_6  and  C_7 
REMARK    5  A    between atoms: C_7  and  C_8 
REMARK    6  A    between atoms: C_11  and  N_12 
REMARK       I    between atoms: N_12  and  C_13 
REMARK       I    between atoms: C_13  and  N_14 
REMARK    7  A    between atoms: N_14  and  C_15 
ROOT
HETATM    1  N   UNL     1      43.165 -12.966   7.236  1.00  0.00    -0.331 N 
HETATM    2  C   UNL     1      43.975 -11.930   7.594  1.00  0.00     0.317 C 
HETATM    3  N   UNL     1      43.374 -11.123   8.516  1.00  0.00    -0.339 N 
HETATM    4  O   UNL     1      45.101 -11.751   7.149  1.00  0.00    -0.247 OA
HETATM    5  H   UNL     1      42.396 -13.203   7.849  1.00  0.00     0.165 HD
HETATM    6  H   UNL     1      42.366 -11.088   8.473  1.00  0.00     0.164 HD
ENDROOT
BRANCH   1   7
HETATM    7  C   UNL     1      43.610 -14.035   6.359  1.00  0.00     0.159 C 
BRANCH   7   8
HETATM    8  C   UNL     1      43.602 -15.420   7.061  1.00  0.00     0.008 C 
HETATM    9  C   UNL     1      44.611 -16.383   6.427  1.00  0.00     0.012 C 
HETATM   10  C   UNL     1      42.219 -16.079   7.125  1.00  0.00     0.012 C 
ENDBRANCH   7   8
BRANCH   7  11
HETATM   11  C   UNL     1      42.721 -13.980   5.149  1.00  0.00     0.128 A 
HETATM   12  N   UNL     1      42.934 -14.565   3.983  1.00  0.00    -0.231 NA
HETATM   13  C   UNL     1      41.860 -14.227   3.197  1.00  0.00     0.085 A 
HETATM   14  C   UNL     1      40.961 -13.434   3.901  1.00  0.00     0.062 A 
HETATM   15  C   UNL     1      41.583 -14.562   1.865  1.00  0.00     0.034 A 
HETATM   16  N   UNL     1      41.524 -13.304   5.144  1.00  0.00    -0.341 N 
HETATM   17  C   UNL     1      39.777 -12.942   3.347  1.00  0.00     0.032 A 
HETATM   18  H   UNL     1      41.131 -12.792   5.920  1.00  0.00     0.167 HD
HETATM   19  C   UNL     1      39.517 -13.285   2.014  1.00  0.00     0.002 A 
HETATM   20  C   UNL     1      40.403 -14.081   1.283  1.00  0.00     0.002 A 
ENDBRANCH   7  11
ENDBRANCH   1   7
BRANCH   3  21
HETATM   21  C   UNL     1      44.050  -9.948   9.017  1.00  0.00     0.162 C 
BRANCH  21  22
HETATM   22  C   UNL     1      43.571  -9.604  10.403  1.00  0.00    -0.040 A 
HETATM   23  C   UNL     1      43.459  -8.266  10.806  1.00  0.00     0.011 A 
HETATM   24  C   UNL     1      43.072  -7.939  12.109  1.00  0.00     0.030 A 
HETATM   25  C   UNL     1      42.780  -8.941  13.033  1.00  0.00     0.036 A 
HETATM   26  C   UNL     1      42.837 -10.278  12.619  1.00  0.00     0.030 A 
HETATM   27  C   UNL     1      43.234 -10.608  11.317  1.00  0.00     0.011 A 
BRANCH  25  28
HETATM   28  N   UNL     1      42.439  -8.693  14.378  1.00  0.00    -0.309 N 
HETATM   29  C   UNL     1      41.248  -8.184  14.854  1.00  0.00     0.321 C 
HETATM   30  N   UNL     1      41.306  -8.040  16.228  1.00  0.00    -0.339 N 
HETATM   31  O   UNL     1      40.280  -7.849  14.187  1.00  0.00    -0.247 OA
HETATM   32  H   UNL     1      41.880  -8.717  16.705  1.00  0.00     0.164 HD
HETATM   33  H   UNL     1      43.200  -8.686  15.038  1.00  0.00     0.170 HD
BRANCH  30  34
HETATM   34  C   UNL     1      40.233  -7.442  17.018  1.00  0.00     0.078 C 
HETATM   35  C   UNL     1      40.122  -8.056  18.412  1.00  0.00     0.032 C 
HETATM   36  C   UNL     1      40.333  -5.921  17.077  1.00  0.00     0.032 C 
ENDBRANCH  30  34
ENDBRANCH  25  28
ENDBRANCH  21  22
ENDBRANCH   3  21
TORSDOF 7
ENDMDL
MODEL 4
REMARK VINA RESULT:      -8.1      2.832      5.742
REMARK  7 active torsions:
REMARK  status: ('A' for Active; 'I' for Inactive)
REMARK    1  A    between atoms: C_2  and  C_3 
REMARK    2  A    between atoms: C_3  and  N_4 
REMARK    3  A    between atoms: C_3  and  C_22 
REMARK       I    between atoms: N_4  and  C_5 
REMARK       I    between atoms: C_5  and  N_6 
REMARK    4  A    between atoms: N_6  and  C_7 
REMARK    5  A    between atoms: C_7  and  C_8 
REMARK    6  A    between atoms: C_11  and  N_12 
REMARK       I    between atoms: N_12  and  C_13 
REMARK       I    between atoms: C_13  and  N_14 
REMARK    7  A    between atoms: N_14  and  C_15 
ROOT
HETATM    1  N   UNL     1      43.042 -10.337   9.348  1.00  0.00    -0.331 N 
HETATM    2  C   UNL     1      42.175  -9.355   9.726  1.00  0.00     0.317 C 
HETATM    3  N   UNL     1      41.457  -9.720  10.827  1.00  0.00    -0.339 N 
HETATM    4  O   UNL     1      42.061  -8.280   9.153  1.00  0.00    -0.247 OA
HETATM    5  H   UNL     1      43.280 -11.048  10.028  1.00  0.00     0.165 HD
HETATM    6  H   UNL     1      41.299 -10.712  10.935  1.00  0.00     0.164 HD
ENDROOT
BRANCH   1   7
HETATM    7  C   UNL     1      44.006 -10.155   8.278  1.00  0.00     0.159 C 
BRANCH   7   8
HETATM    8  C   UNL     1      45.471 -10.178   8.789  1.00  0.00     0.008 C 
HETATM    9  C   UNL     1      45.556  -9.851  10.283  1.00  0.00     0.012 C 
HETATM   10  C   UNL     1      46.423  -9.271   8.000  1.00  0.00     0.012 C 
ENDBRANCH   7   8
BRANCH   7  11
HETATM   11  C   UNL     1      43.715 -11.228   7.267  1.00  0.00     0.128 A 
HETATM   12  N   UNL     1      43.397 -11.053   5.996  1.00  0.00    -0.231 NA
HETATM   13  C   UNL     1      43.221 -12.314   5.481  1.00  0.00     0.085 A 
HETATM   14  C   UNL     1      43.453 -13.283   6.451  1.00  0.00     0.062 A 
HETATM   15  C   UNL     1      42.860 -12.712   4.187  1.00  0.00     0.034 A 
HETATM   16  N   UNL     1      43.780 -12.567   7.574  1.00  0.00    -0.341 N 
HETATM   17  C   UNL     1      43.344 -14.653   6.207  1.00  0.00     0.032 A 
HETATM   18  H   UNL     1      44.018 -12.956   8.474  1.00  0.00     0.167 HD
HETATM   19  C   UNL     1      42.980 -15.032   4.909  1.00  0.00     0.002 A 
HETATM   20  C   UNL     1      42.741 -14.081   3.914  1.00  0.00     0.002 A 
ENDBRANCH   7  11
ENDBRANCH   1   7
BRANCH   3  21
HETATM   21  C   UNL     1      40.461  -8.833  11.383  1.00  0.00     0.162 C 
BRANCH  21  22
HETATM   22  C   UNL     1      40.988  -8.137  12.610  1.00  0.00    -0.040 A 
HETATM   23  C   UNL     1      42.330  -8.279  12.989  1.00  0.00     0.011 A 
HETATM   24  C   UNL     1      42.813  -7.684  14.159  1.00  0.00     0.030 A 
HETATM   25  C   UNL     1      41.966  -6.929  14.969  1.00  0.00     0.036 A 
HETATM   26  C   UNL     1      40.639  -6.738  14.566  1.00  0.00     0.030 A 
HETATM   27  C   UNL     1      40.151  -7.340  13.400  1.00  0.00     0.011 A 
BRANCH  25  28
HETATM   28  N   UNL     1      42.363  -6.346  16.189  1.00  0.00    -0.309 N 
HETATM   29  C   UNL     1      42.061  -6.789  17.461  1.00  0.00     0.321 C 
HETATM   30  N   UNL     1      42.590  -5.929  18.405  1.00  0.00    -0.339 N 
HETATM   31  O   UNL     1      41.385  -7.766  17.751  1.00  0.00    -0.247 OA
HETATM   32  H   UNL     1      43.450  -5.476  18.137  1.00  0.00     0.164 HD
HETATM   33  H   UNL     1      42.722  -5.406  16.140  1.00  0.00     0.170 HD
BRANCH  30  34
HETATM   34  C   UNL     1      42.368  -6.077  19.840  1.00  0.00     0.078 C 
HETATM   35  C   UNL     1      43.528  -5.533  20.671  1.00  0.00     0.032 C 
HETATM   36  C   UNL     1      41.031  -5.492  20.285  1.00  0.00     0.032 C 
ENDBRANCH  30  34
ENDBRANCH  25  28
ENDBRANCH  21  22
ENDBRANCH   3  21
TORSDOF 7
ENDMDL
MODEL 5
REMARK VINA RESULT:      -8.1      3.753     10.008
REMARK  7 active torsions:
REMARK  status: ('A' for Active; 'I' for Inactive)
REMARK    1  A    between atoms: C_2  and  C_3 
REMARK    2  A    between atoms: C_3  and  N_4 
REMARK    3  A    between atoms: C_3  and  C_22 
REMARK       I    between atoms: N_4  and  C_5 
REMARK       I    between atoms: C_5  and  N_6 
REMARK    4  A    between atoms: N_6  and  C_7 
REMARK    5  A    between atoms: C_7  and  C_8 
REMARK    6  A    between atoms: C_11  and  N_12 
REMARK       I    between atoms: N_12  and  C_13 
REMARK       I    between atoms: C_13  and  N_14 
REMARK    7  A    between atoms: N_14  and  C_15 
ROOT
HETATM    1  N   UNL     1      44.044 -13.299   6.488  1.00  0.00    -0.331 N 
HETATM    2  C   UNL     1      43.117 -14.284   6.322  1.00  0.00     0.317 C 
HETATM    3  N   UNL     1      43.636 -15.348   5.644  1.00  0.00    -0.339 N 
HETATM    4  O   UNL     1      41.967 -14.224   6.736  1.00  0.00    -0.247 OA
HETATM    5  H   UNL     1      45.021 -13.543   6.383  1.00  0.00     0.165 HD
HETATM    6  H   UNL     1      44.379 -15.131   4.995  1.00  0.00     0.164 HD
ENDROOT
BRANCH   1   7
HETATM    7  C   UNL     1      43.783 -12.110   7.280  1.00  0.00     0.159 C 
BRANCH   7   8
HETATM    8  C   UNL     1      45.078 -11.317   7.603  1.00  0.00     0.008 C 
HETATM    9  C   UNL     1      44.767  -9.906   8.114  1.00  0.00     0.012 C 
HETATM   10  C   UNL     1      46.072 -11.243   6.438  1.00  0.00     0.012 C 
ENDBRANCH   7   8
BRANCH   7  11
HETATM   11  C   UNL     1      42.776 -11.306   6.506  1.00  0.00     0.128 A 
HETATM   12  N   UNL     1      42.935 -10.787   5.301  1.00  0.00    -0.231 NA
HETATM   13  C   UNL     1      41.756 -10.142   5.018  1.00  0.00     0.085 A 
HETATM   14  C   UNL     1      40.849 -10.285   6.061  1.00  0.00     0.062 A 
HETATM   15  C   UNL     1      41.385  -9.409   3.882  1.00  0.00     0.034 A 
HETATM   16  N   UNL     1      41.516 -11.042   6.989  1.00  0.00    -0.341 N 
HETATM   17  C   UNL     1      39.568  -9.730   6.044  1.00  0.00     0.032 A 
HETATM   18  H   UNL     1      41.149 -11.346   7.879  1.00  0.00     0.167 HD
HETATM   19  C   UNL     1      39.215  -8.999   4.903  1.00  0.00     0.002 A 
HETATM   20  C   UNL     1      40.106  -8.839   3.839  1.00  0.00     0.002 A 
ENDBRANCH   7  11
ENDBRANCH   1   7
BRANCH   3  21
HETATM   21  C   UNL     1      42.814 -16.497   5.338  1.00  0.00     0.162 C 
BRANCH  21  22
HETATM   22  C   UNL     1      42.044 -16.281   4.061  1.00  0.00    -0.040 A 
HETATM   23  C   UNL     1      42.705 -16.263   2.825  1.00  0.00     0.011 A 
HETATM   24  C   UNL     1      42.007 -16.003   1.641  1.00  0.00     0.030 A 
HETATM   25  C   UNL     1      40.634 -15.766   1.668  1.00  0.00     0.036 A 
HETATM   26  C   UNL     1      39.960 -15.838   2.894  1.00  0.00     0.030 A 
HETATM   27  C   UNL     1      40.659 -16.088   4.081  1.00  0.00     0.011 A 
BRANCH  25  28
HETATM   28  N   UNL     1      39.872 -15.443   0.527  1.00  0.00    -0.309 N 
HETATM   29  C   UNL     1      39.820 -14.227  -0.124  1.00  0.00     0.321 C 
HETATM   30  N   UNL     1      38.924 -14.284  -1.174  1.00  0.00    -0.339 N 
HETATM   31  O   UNL     1      40.426 -13.210   0.185  1.00  0.00    -0.247 OA
HETATM   32  H   UNL     1      38.845 -15.185  -1.619  1.00  0.00     0.164 HD
HETATM   33  H   UNL     1      39.136 -16.087   0.284  1.00  0.00     0.170 HD
BRANCH  30  34
HETATM   34  C   UNL     1      38.582 -13.131  -2.001  1.00  0.00     0.078 C 
HETATM   35  C   UNL     1      39.642 -12.836  -3.061  1.00  0.00     0.032 C 
HETATM   36  C   UNL     1      37.188 -13.247  -2.612  1.00  0.00     0.032 C 
ENDBRANCH  30  34
ENDBRANCH  25  28
ENDBRANCH  21  22
ENDBRANCH   3  21
TORSDOF 7
ENDMDL
MODEL 6
REMARK VINA RESULT:      -8.0      5.672     10.448
REMARK  7 active torsions:
REMARK  status: ('A' for Active; 'I' for Inactive)
REMARK    1  A    between atoms: C_2  and  C_3 
REMARK    2  A    between atoms: C_3  and  N_4 
REMARK    3  A    between atoms: C_3  and  C_22 
REMARK       I    between atoms: N_4  and  C_5 
REMARK       I    between atoms: C_5  and  N_6 
REMARK    4  A    between atoms: N_6  and  C_7 
REMARK    5  A    between atoms: C_7  and  C_8 
REMARK    6  A    between atoms: C_11  and  N_12 
REMARK       I    between atoms: N_12  and  C_13 
REMARK       I    between atoms: C_13  and  N_14 
REMARK    7  A    between atoms: N_14  and  C_15 
ROOT
HETATM    1  N   UNL     1      42.268 -14.292   3.467  1.00  0.00    -0.331 N 
HETATM    2  C   UNL     1      42.513 -13.112   2.833  1.00  0.00     0.317 C 
HETATM    3  N   UNL     1      41.458 -12.734   2.055  1.00  0.00    -0.339 N 
HETATM    4  O   UNL     1      43.547 -12.468   2.952  1.00  0.00    -0.247 OA
HETATM    5  H   UNL     1      41.306 -14.599   3.546  1.00  0.00     0.165 HD
HETATM    6  H   UNL     1      40.896 -13.488   1.687  1.00  0.00     0.164 HD
ENDROOT
BRANCH   1   7
HETATM    7  C   UNL     1      43.181 -14.856   4.445  1.00  0.00     0.159 C 
BRANCH   7   8
HETATM    8  C   UNL     1      42.700 -14.630   5.904  1.00  0.00     0.008 C 
HETATM    9  C   UNL     1      41.179 -14.451   5.979  1.00  0.00     0.012 C 
HETATM   10  C   UNL     1      43.399 -13.468   6.620  1.00  0.00     0.012 C 
ENDBRANCH   7   8
BRANCH   7  11
HETATM   11  C   UNL     1      43.330 -16.308   4.090  1.00  0.00     0.128 A 
HETATM   12  N   UNL     1      43.093 -16.864   2.914  1.00  0.00    -0.231 NA
HETATM   13  C   UNL     1      43.362 -18.201   3.076  1.00  0.00     0.085 A 
HETATM   14  C   UNL     1      43.790 -18.468   4.371  1.00  0.00     0.062 A 
HETATM   15  C   UNL     1      43.262 -19.253   2.155  1.00  0.00     0.034 A 
HETATM   16  N   UNL     1      43.776 -17.246   4.992  1.00  0.00    -0.341 N 
HETATM   17  C   UNL     1      44.132 -19.746   4.816  1.00  0.00     0.032 A 
HETATM   18  H   UNL     1      44.038 -17.066   5.949  1.00  0.00     0.167 HD
HETATM   19  C   UNL     1      44.025 -20.786   3.884  1.00  0.00     0.002 A 
HETATM   20  C   UNL     1      43.597 -20.547   2.576  1.00  0.00     0.002 A 
ENDBRANCH   7  11
ENDBRANCH   1   7
BRANCH   3  21
HETATM   21  C   UNL     1      41.517 -11.519   1.274  1.00  0.00     0.162 C 
BRANCH  21  22
HETATM   22  C   UNL     1      40.544 -11.573   0.125  1.00  0.00    -0.040 A 
HETATM   23  C   UNL     1      40.686 -10.707  -0.969  1.00  0.00     0.011 A 
HETATM   24  C   UNL     1      39.754 -10.709  -2.011  1.00  0.00     0.030 A 
HETATM   25  C   UNL     1      38.667 -11.582  -1.986  1.00  0.00     0.036 A 
HETATM   26  C   UNL     1      38.552 -12.486  -0.923  1.00  0.00     0.030 A 
HETATM   27  C   UNL     1      39.479 -12.479   0.126  1.00  0.00     0.011 A 
BRANCH  25  28
HETATM   28  N   UNL     1      37.657 -11.605  -2.969  1.00  0.00    -0.309 N 
HETATM   29  C   UNL     1      36.524 -10.819  -3.018  1.00  0.00     0.321 C 
HETATM   30  N   UNL     1      35.749 -11.165  -4.109  1.00  0.00    -0.339 N 
HETATM   31  O   UNL     1      36.194  -9.967  -2.206  1.00  0.00    -0.247 OA
HETATM   32  H   UNL     1      36.263 -11.494  -4.911  1.00  0.00     0.164 HD
HETATM   33  H   UNL     1      37.646 -12.407  -3.580  1.00  0.00     0.170 HD
BRANCH  30  34
HETATM   34  C   UNL     1      34.443 -10.575  -4.385  1.00  0.00     0.078 C 
HETATM   35  C   UNL     1      34.199 -10.368  -5.879  1.00  0.00     0.032 C 
HETATM   36  C   UNL     1      33.304 -11.349  -3.728  1.00  0.00     0.032 C 
ENDBRANCH  30  34
ENDBRANCH  25  28
ENDBRANCH  21  22
ENDBRANCH   3  21
TORSDOF 7
ENDMDL
MODEL 7
REMARK VINA RESULT:      -8.0      3.134     10.621
REMARK  7 active torsions:
REMARK  status: ('A' for Active; 'I' for Inactive)
REMARK    1  A    between atoms: C_2  and  C_3 
REMARK    2  A    between atoms: C_3  and  N_4 
REMARK    3  A    between atoms: C_3  and  C_22 
REMARK       I    between atoms: N_4  and  C_5 
REMARK       I    between atoms: C_5  and  N_6 
REMARK    4  A    between atoms: N_6  and  C_7 
REMARK    5  A    between atoms: C_7  and  C_8 
REMARK    6  A    between atoms: C_11  and  N_12 
REMARK       I    between atoms: N_12  and  C_13 
REMARK       I    between atoms: C_13  and  N_14 
REMARK    7  A    between atoms: N_14  and  C_15 
ROOT
HETATM    1  N   UNL     1      42.696 -10.513   8.068  1.00  0.00    -0.331 N 
HETATM    2  C   UNL     1      43.525 -11.414   7.471  1.00  0.00     0.317 C 
HETATM    3  N   UNL     1      42.843 -12.521   7.057  1.00  0.00    -0.339 N 
HETATM    4  O   UNL     1      44.728 -11.248   7.320  1.00  0.00    -0.247 OA
HETATM    5  H   UNL     1      41.702 -10.591   7.892  1.00  0.00     0.165 HD
HETATM    6  H   UNL     1      42.020 -12.752   7.594  1.00  0.00     0.164 HD
ENDROOT
BRANCH   1   7
HETATM    7  C   UNL     1      43.149  -9.200   8.493  1.00  0.00     0.159 C 
BRANCH   7   8
HETATM    8  C   UNL     1      42.576  -8.061   7.607  1.00  0.00     0.008 C 
HETATM    9  C   UNL     1      42.557  -6.720   8.349  1.00  0.00     0.012 C 
HETATM   10  C   UNL     1      41.188  -8.357   7.028  1.00  0.00     0.012 C 
ENDBRANCH   7   8
BRANCH   7  11
HETATM   11  C   UNL     1      42.765  -9.073   9.940  1.00  0.00     0.128 A 
HETATM   12  N   UNL     1      41.703  -9.600  10.526  1.00  0.00    -0.231 NA
HETATM   13  C   UNL     1      41.774  -9.210  11.841  1.00  0.00     0.085 A 
HETATM   14  C   UNL     1      42.912  -8.444  12.070  1.00  0.00     0.062 A 
HETATM   15  C   UNL     1      40.899  -9.472  12.903  1.00  0.00     0.034 A 
HETATM   16  N   UNL     1      43.532  -8.385  10.849  1.00  0.00    -0.341 N 
HETATM   17  C   UNL     1      43.238  -7.911  13.319  1.00  0.00     0.032 A 
HETATM   18  H   UNL     1      44.400  -7.909  10.649  1.00  0.00     0.167 HD
HETATM   19  C   UNL     1      42.351  -8.182  14.368  1.00  0.00     0.002 A 
HETATM   20  C   UNL     1      41.200  -8.948  14.167  1.00  0.00     0.002 A 
ENDBRANCH   7  11
ENDBRANCH   1   7
BRANCH   3  21
HETATM   21  C   UNL     1      43.537 -13.615   6.417  1.00  0.00     0.162 C 
BRANCH  21  22
HETATM   22  C   UNL     1      43.193 -13.685   4.952  1.00  0.00    -0.040 A 
HETATM   23  C   UNL     1      43.128 -12.517   4.180  1.00  0.00     0.011 A 
HETATM   24  C   UNL     1      42.751 -12.566   2.834  1.00  0.00     0.030 A 
HETATM   25  C   UNL     1      42.442 -13.784   2.230  1.00  0.00     0.036 A 
HETATM   26  C   UNL     1      42.560 -14.959   2.983  1.00  0.00     0.030 A 
HETATM   27  C   UNL     1      42.928 -14.911   4.333  1.00  0.00     0.011 A 
BRANCH  25  28
HETATM   28  N   UNL     1      42.002 -13.910   0.897  1.00  0.00    -0.309 N 
HETATM   29  C   UNL     1      40.746 -13.618   0.404  1.00  0.00     0.321 C 
HETATM   30  N   UNL     1      40.682 -13.913  -0.945  1.00  0.00    -0.339 N 
HETATM   31  O   UNL     1      39.790 -13.205   1.044  1.00  0.00    -0.247 OA
HETATM   32  H   UNL     1      41.547 -13.795  -1.450  1.00  0.00     0.164 HD
HETATM   33  H   UNL     1      42.583 -14.459   0.284  1.00  0.00     0.170 HD
BRANCH  30  34
HETATM   34  C   UNL     1      39.460 -13.796  -1.735  1.00  0.00     0.078 C 
HETATM   35  C   UNL     1      39.634 -12.887  -2.950  1.00  0.00     0.032 C 
HETATM   36  C   UNL     1      38.887 -15.156  -2.125  1.00  0.00     0.032 C 
ENDBRANCH  30  34
ENDBRANCH  25  28
ENDBRANCH  21  22
ENDBRANCH   3  21
TORSDOF 7
ENDMDL
MODEL 8
REMARK VINA RESULT:      -7.8      6.325     10.041
REMARK  7 active torsions:
REMARK  status: ('A' for Active; 'I' for Inactive)
REMARK    1  A    between atoms: C_2  and  C_3 
REMARK    2  A    between atoms: C_3  and  N_4 
REMARK    3  A    between atoms: C_3  and  C_22 
REMARK       I    between atoms: N_4  and  C_5 
REMARK       I    between atoms: C_5  and  N_6 
REMARK    4  A    between atoms: N_6  and  C_7 
REMARK    5  A    between atoms: C_7  and  C_8 
REMARK    6  A    between atoms: C_11  and  N_12 
REMARK       I    between atoms: N_12  and  C_13 
REMARK       I    between atoms: C_13  and  N_14 
REMARK    7  A    between atoms: N_14  and  C_15 
ROOT
HETATM    1  N   UNL     1      41.321 -15.109   2.881  1.00  0.00    -0.331 N 
HETATM    2  C   UNL     1      41.201 -15.217   1.528  1.00  0.00     0.317 C 
HETATM    3  N   UNL     1      39.901 -15.096   1.132  1.00  0.00    -0.339 N 
HETATM    4  O   UNL     1      42.141 -15.393   0.765  1.00  0.00    -0.247 OA
HETATM    5  H   UNL     1      40.561 -14.681   3.394  1.00  0.00     0.165 HD
HETATM    6  H   UNL     1      39.210 -15.396   1.805  1.00  0.00     0.164 HD
ENDROOT
BRANCH   1   7
HETATM    7  C   UNL     1      42.611 -15.083   3.549  1.00  0.00     0.159 C 
BRANCH   7   8
HETATM    8  C   UNL     1      42.589 -14.234   4.848  1.00  0.00     0.008 C 
HETATM    9  C   UNL     1      41.182 -14.150   5.448  1.00  0.00     0.012 C 
HETATM   10  C   UNL     1      43.172 -12.825   4.682  1.00  0.00     0.012 C 
ENDBRANCH   7   8
BRANCH   7  11
HETATM   11  C   UNL     1      42.985 -16.519   3.788  1.00  0.00     0.128 A 
HETATM   12  N   UNL     1      43.227 -17.090   4.956  1.00  0.00    -0.231 NA
HETATM   13  C   UNL     1      43.531 -18.399   4.672  1.00  0.00     0.085 A 
HETATM   14  C   UNL     1      43.457 -18.640   3.305  1.00  0.00     0.062 A 
HETATM   15  C   UNL     1      43.883 -19.445   5.536  1.00  0.00     0.034 A 
HETATM   16  N   UNL     1      43.094 -17.433   2.766  1.00  0.00    -0.341 N 
HETATM   17  C   UNL     1      43.719 -19.886   2.732  1.00  0.00     0.032 A 
HETATM   18  H   UNL     1      42.941 -17.245   1.787  1.00  0.00     0.167 HD
HETATM   19  C   UNL     1      44.071 -20.919   3.609  1.00  0.00     0.002 A 
HETATM   20  C   UNL     1      44.153 -20.706   4.988  1.00  0.00     0.002 A 
ENDBRANCH   7  11
ENDBRANCH   1   7
BRANCH   3  21
HETATM   21  C   UNL     1      39.545 -15.203  -0.265  1.00  0.00     0.162 C 
BRANCH  21  22
HETATM   22  C   UNL     1      39.684 -13.872  -0.957  1.00  0.00    -0.040 A 
HETATM   23  C   UNL     1      40.303 -13.783  -2.212  1.00  0.00     0.011 A 
HETATM   24  C   UNL     1      40.489 -12.545  -2.834  1.00  0.00     0.030 A 
HETATM   25  C   UNL     1      40.052 -11.372  -2.220  1.00  0.00     0.036 A 
HETATM   26  C   UNL     1      39.384 -11.462  -0.993  1.00  0.00     0.030 A 
HETATM   27  C   UNL     1      39.205 -12.700  -0.363  1.00  0.00     0.011 A 
BRANCH  25  28
HETATM   28  N   UNL     1      40.253 -10.084  -2.756  1.00  0.00    -0.309 N 
HETATM   29  C   UNL     1      41.274  -9.206  -2.456  1.00  0.00     0.321 C 
HETATM   30  N   UNL     1      41.107  -8.022  -3.149  1.00  0.00    -0.339 N 
HETATM   31  O   UNL     1      42.184  -9.392  -1.660  1.00  0.00    -0.247 OA
HETATM   32  H   UNL     1      40.667  -8.114  -4.052  1.00  0.00     0.164 HD
HETATM   33  H   UNL     1      39.471  -9.677  -3.245  1.00  0.00     0.170 HD
BRANCH  30  34
HETATM   34  C   UNL     1      41.976  -6.862  -2.978  1.00  0.00     0.078 C 
HETATM   35  C   UNL     1      42.901  -6.643  -4.174  1.00  0.00     0.032 C 
HETATM   36  C   UNL     1      41.196  -5.598  -2.628  1.00  0.00     0.032 C 
ENDBRANCH  30  34
ENDBRANCH  25  28
ENDBRANCH  21  22
ENDBRANCH   3  21
TORSDOF 7
ENDMDL
MODEL 9
REMARK VINA RESULT:      -7.7     18.824     23.064
REMARK  7 active torsions:
REMARK  status: ('A' for Active; 'I' for Inactive)
REMARK    1  A    between atoms: C_2  and  C_3 
REMARK    2  A    between atoms: C_3  and  N_4 
REMARK    3  A    between atoms: C_3  and  C_22 
REMARK       I    between atoms: N_4  and  C_5 
REMARK       I    between atoms: C_5  and  N_6 
REMARK    4  A    between atoms: N_6  and  C_7 
REMARK    5  A    between atoms: C_7  and  C_8 
REMARK    6  A    between atoms: C_11  and  N_12 
REMARK       I    between atoms: N_12  and  C_13 
REMARK       I    between atoms: C_13  and  N_14 
REMARK    7  A    between atoms: N_14  and  C_15 
ROOT
HETATM    1  N   UNL     1      46.909 -29.918   1.245  1.00  0.00    -0.331 N 
HETATM    2  C   UNL     1      46.148 -29.200   0.372  1.00  0.00     0.317 C 
HETATM    3  N   UNL     1      44.947 -29.805   0.143  1.00  0.00    -0.339 N 
HETATM    4  O   UNL     1      46.497 -28.143  -0.137  1.00  0.00    -0.247 OA
HETATM    5  H   UNL     1      46.445 -30.601   1.830  1.00  0.00     0.165 HD
HETATM    6  H   UNL     1      44.942 -30.811   0.231  1.00  0.00     0.164 HD
ENDROOT
BRANCH   1   7
HETATM    7  C   UNL     1      48.182 -29.434   1.748  1.00  0.00     0.159 C 
BRANCH   7   8
HETATM    8  C   UNL     1      48.391 -29.766   3.250  1.00  0.00     0.008 C 
HETATM    9  C   UNL     1      47.085 -30.201   3.922  1.00  0.00     0.012 C 
HETATM   10  C   UNL     1      49.043 -28.636   4.055  1.00  0.00     0.012 C 
ENDBRANCH   7   8
BRANCH   7  11
HETATM   11  C   UNL     1      49.237 -30.031   0.859  1.00  0.00     0.128 A 
HETATM   12  N   UNL     1      50.059 -31.021   1.161  1.00  0.00    -0.231 NA
HETATM   13  C   UNL     1      50.836 -31.210   0.045  1.00  0.00     0.085 A 
HETATM   14  C   UNL     1      50.471 -30.332  -0.969  1.00  0.00     0.062 A 
HETATM   15  C   UNL     1      51.880 -32.118  -0.178  1.00  0.00     0.034 A 
HETATM   16  N   UNL     1      49.442 -29.603  -0.431  1.00  0.00    -0.341 N 
HETATM   17  C   UNL     1      51.096 -30.300  -2.217  1.00  0.00     0.032 A 
HETATM   18  H   UNL     1      48.929 -28.871  -0.899  1.00  0.00     0.167 HD
HETATM   19  C   UNL     1      52.138 -31.213  -2.421  1.00  0.00     0.002 A 
HETATM   20  C   UNL     1      52.526 -32.108  -1.421  1.00  0.00     0.002 A 
ENDBRANCH   7  11
ENDBRANCH   1   7
BRANCH   3  21
HETATM   21  C   UNL     1      43.993 -29.223  -0.773  1.00  0.00     0.162 C 
BRANCH  21  22
HETATM   22  C   UNL     1      44.247 -29.692  -2.182  1.00  0.00    -0.040 A 
HETATM   23  C   UNL     1      44.334 -31.061  -2.473  1.00  0.00     0.011 A 
HETATM   24  C   UNL     1      44.629 -31.503  -3.766  1.00  0.00     0.030 A 
HETATM   25  C   UNL     1      44.834 -30.586  -4.797  1.00  0.00     0.036 A 
HETATM   26  C   UNL     1      44.693 -29.220  -4.523  1.00  0.00     0.030 A 
HETATM   27  C   UNL     1      44.407 -28.776  -3.227  1.00  0.00     0.011 A 
BRANCH  25  28
HETATM   28  N   UNL     1      45.189 -30.951  -6.111  1.00  0.00    -0.309 N 
HETATM   29  C   UNL     1      44.603 -31.926  -6.893  1.00  0.00     0.321 C 
HETATM   30  N   UNL     1      45.257 -32.024  -8.106  1.00  0.00    -0.339 N 
HETATM   31  O   UNL     1      43.672 -32.653  -6.574  1.00  0.00    -0.247 OA
HETATM   32  H   UNL     1      45.649 -31.161  -8.451  1.00  0.00     0.164 HD
HETATM   33  H   UNL     1      46.083 -30.623  -6.440  1.00  0.00     0.170 HD
BRANCH  30  34
HETATM   34  C   UNL     1      44.928 -33.024  -9.117  1.00  0.00     0.078 C 
HETATM   35  C   UNL     1      43.741 -32.611  -9.985  1.00  0.00     0.032 C 
HETATM   36  C   UNL     1      46.137 -33.416  -9.962  1.00  0.00     0.032 C 
ENDBRANCH  30  34
ENDBRANCH  25  28
ENDBRANCH  21  22
ENDBRANCH   3  21
TORSDOF 7
ENDMDL
MODEL 10
REMARK VINA RESULT:      -7.6      2.431     10.617
REMARK  7 active torsions:
REMARK  status: ('A' for Active; 'I' for Inactive)
REMARK    1  A    between atoms: C_2  and  C_3 
REMARK    2  A    between atoms: C_3  and  N_4 
REMARK    3  A    between atoms: C_3  and  C_22 
REMARK       I    between atoms: N_4  and  C_5 
REMARK       I    between atoms: C_5  and  N_6 
REMARK    4  A    between atoms: N_6  and  C_7 
REMARK    5  A    between atoms: C_7  and  C_8 
REMARK    6  A    between atoms: C_11  and  N_12 
REMARK       I    between atoms: N_12  and  C_13 
REMARK       I    between atoms: C_13  and  N_14 
REMARK    7  A    between atoms: N_14  and  C_15 
ROOT
HETATM    1  N   UNL     1      41.594  -9.095   8.507  1.00  0.00    -0.331 N 
HETATM    2  C   UNL     1      42.795  -9.485   7.994  1.00  0.00     0.317 C 
HETATM    3  N   UNL     1      42.726 -10.740   7.463  1.00  0.00    -0.339 N 
HETATM    4  O   UNL     1      43.804  -8.793   8.002  1.00  0.00    -0.247 OA
HETATM    5  H   UNL     1      40.764  -9.589   8.204  1.00  0.00     0.165 HD
HETATM    6  H   UNL     1      42.045 -11.355   7.885  1.00  0.00     0.164 HD
ENDROOT
BRANCH   1   7
HETATM    7  C   UNL     1      41.366  -7.757   9.024  1.00  0.00     0.159 C 
BRANCH   7   8
HETATM    8  C   UNL     1      39.990  -7.181   8.591  1.00  0.00     0.008 C 
HETATM    9  C   UNL     1      39.234  -8.148   7.673  1.00  0.00     0.012 C 
HETATM   10  C   UNL     1      40.071  -5.796   7.938  1.00  0.00     0.012 C 
ENDBRANCH   7   8
BRANCH   7  11
HETATM   11  C   UNL     1      41.523  -7.853  10.515  1.00  0.00     0.128 A 
HETATM   12  N   UNL     1      40.932  -8.720  11.319  1.00  0.00    -0.231 NA
HETATM   13  C   UNL     1      41.377  -8.416  12.582  1.00  0.00     0.085 A 
HETATM   14  C   UNL     1      42.272  -7.354  12.551  1.00  0.00     0.062 A 
HETATM   15  C   UNL     1      41.057  -9.008  13.812  1.00  0.00     0.034 A 
HETATM   16  N   UNL     1      42.360  -7.023  11.223  1.00  0.00    -0.341 N 
HETATM   17  C   UNL     1      42.881  -6.831  13.693  1.00  0.00     0.032 A 
HETATM   18  H   UNL     1      42.933  -6.290  10.833  1.00  0.00     0.167 HD
HETATM   19  C   UNL     1      42.549  -7.433  14.913  1.00  0.00     0.002 A 
HETATM   20  C   UNL     1      41.653  -8.503  14.975  1.00  0.00     0.002 A 
ENDBRANCH   7  11
ENDBRANCH   1   7
BRANCH   3  21
HETATM   21  C   UNL     1      43.897 -11.359   6.885  1.00  0.00     0.162 C 
BRANCH  21  22
HETATM   22  C   UNL     1      43.560 -12.708   6.307  1.00  0.00    -0.040 A 
HETATM   23  C   UNL     1      43.601 -13.857   7.110  1.00  0.00     0.011 A 
HETATM   24  C   UNL     1      43.347 -15.121   6.567  1.00  0.00     0.030 A 
HETATM   25  C   UNL     1      43.040 -15.261   5.215  1.00  0.00     0.036 A 
HETATM   26  C   UNL     1      42.944 -14.111   4.422  1.00  0.00     0.030 A 
HETATM   27  C   UNL     1      43.207 -12.846   4.960  1.00  0.00     0.011 A 
BRANCH  25  28
HETATM   28  N   UNL     1      42.828 -16.503   4.584  1.00  0.00    -0.309 N 
HETATM   29  C   UNL     1      43.743 -17.524   4.424  1.00  0.00     0.321 C 
HETATM   30  N   UNL     1      43.178 -18.566   3.713  1.00  0.00    -0.339 N 
HETATM   31  O   UNL     1      44.907 -17.523   4.797  1.00  0.00    -0.247 OA
HETATM   32  H   UNL     1      42.188 -18.691   3.853  1.00  0.00     0.164 HD
HETATM   33  H   UNL     1      42.002 -16.579   4.011  1.00  0.00     0.170 HD
BRANCH  30  34
HETATM   34  C   UNL     1      43.920 -19.755   3.305  1.00  0.00     0.078 C 
HETATM   35  C   UNL     1      43.855 -20.871   4.346  1.00  0.00     0.032 C 
HETATM   36  C   UNL     1      43.512 -20.249   1.920  1.00  0.00     0.032 C 
ENDBRANCH  30  34
ENDBRANCH  25  28
ENDBRANCH  21  22
ENDBRANCH   3  21
TORSDOF 7
ENDMDL
