MODEL 1
REMARK VINA RESULT:      -9.5      0.000      0.000
REMARK  8 active torsions:
REMARK  status: ('A' for Active; 'I' for Inactive)
REMARK    1  A    between atoms: N_5  and  C_6 
REMARK    2  A    between atoms: C_6  and  C_7 
REMARK       I    between atoms: C_7  and  N_8 
REMARK    3  A    between atoms: N_8  and  C_9 
REMARK    4  A    between atoms: N_19  and  C_20 
REMARK    5  A    between atoms: C_20  and  C_21 
REMARK    6  A    between atoms: C_24  and  C_25 
REMARK       I    between atoms: C_25  and  N_26 
REMARK    7  A    between atoms: N_26  and  C_27 
REMARK    8  A    between atoms: C_27  and  C_28 
ROOT
HETATM    1  C   UNL     1      40.740  -9.984  13.121  1.00  0.00     0.001 A 
HETATM    2  C   UNL     1      39.907  -9.688  12.047  1.00  0.00     0.019 A 
HETATM    3  C   UNL     1      40.460  -9.311  10.813  1.00  0.00     0.059 A 
HETATM    4  C   UNL     1      41.840  -9.231  10.632  1.00  0.00     0.055 A 
HETATM    5  N   UNL     1      42.354  -8.842   9.365  1.00  0.00    -0.290 N 
HETATM    6  C   UNL     1      41.526  -8.447   8.323  1.00  0.00     0.332 C 
HETATM    7  O   UNL     1      42.002  -7.932   7.309  1.00  0.00    -0.246 OA
HETATM    8  N   UNL     1      40.162  -8.608   8.500  1.00  0.00    -0.261 N 
HETATM    9  C   UNL     1      39.564  -9.006   9.687  1.00  0.00     0.264 C 
HETATM   10  O   UNL     1      38.348  -9.099   9.846  1.00  0.00    -0.267 OA
HETATM   11  C   UNL     1      42.667  -9.529  11.727  1.00  0.00     0.031 A 
HETATM   12  C   UNL     1      42.119  -9.903  12.960  1.00  0.00     0.002 A 
ENDROOT
BRANCH   8  13
HETATM   13  C   UNL     1      39.288  -8.308   7.372  1.00  0.00     0.175 C 
BRANCH  13  14
HETATM   14  C   UNL     1      39.297  -9.414   6.335  1.00  0.00    -0.040 A 
HETATM   15  C   UNL     1      39.276  -9.115   4.966  1.00  0.00     0.010 A 
HETATM   16  C   UNL     1      39.284 -10.135   4.003  1.00  0.00     0.017 A 
HETATM   17  C   UNL     1      39.315 -11.476   4.398  1.00  0.00     0.032 A 
HETATM   18  C   UNL     1      39.334 -11.775   5.769  1.00  0.00     0.017 A 
HETATM   19  C   UNL     1      39.319 -10.757   6.727  1.00  0.00     0.010 A 
BRANCH  17  20
HETATM   20  C   UNL     1      39.325 -12.627   3.440  1.00  0.00     0.251 C 
HETATM   21  N   UNL     1      39.863 -13.822   3.866  1.00  0.00    -0.353 N 
HETATM   22  H   UNL     1      40.143 -13.964   4.823  1.00  0.00     0.163 HD
HETATM   23  O   UNL     1      38.875 -12.477   2.308  1.00  0.00    -0.268 OA
BRANCH  21  24
HETATM   24  C   UNL     1      39.900 -14.976   2.992  1.00  0.00     0.161 C 
BRANCH  24  25
HETATM   25  C   UNL     1      41.126 -15.832   3.212  1.00  0.00    -0.038 A 
HETATM   26  C   UNL     1      41.380 -16.361   4.490  1.00  0.00     0.048 A 
HETATM   27  C   UNL     1      42.462 -17.203   4.647  1.00  0.00     0.105 A 
HETATM   28  C   UNL     1      43.285 -17.531   3.597  1.00  0.00     0.105 A 
HETATM   29  O   UNL     1      42.834 -17.810   5.806  1.00  0.00    -0.323 OA
HETATM   30  O   UNL     1      44.282 -18.381   3.963  1.00  0.00    -0.323 OA
HETATM   31  C   UNL     1      43.071 -17.040   2.329  1.00  0.00     0.040 A 
HETATM   32  C   UNL     1      43.967 -18.581   5.357  1.00  0.00     0.352 A 
HETATM   33  C   UNL     1      41.972 -16.195   2.136  1.00  0.00     0.012 A 
ENDBRANCH  24  25
ENDBRANCH  21  24
ENDBRANCH  17  20
ENDBRANCH  13  14
ENDBRANCH   8  13
BRANCH   5  34
HETATM   34  C   UNL     1      43.801  -8.881   9.111  1.00  0.00     0.237 C 
BRANCH  34  35
HETATM   35  C   UNL     1      44.263  -9.957   8.120  1.00  0.00     0.240 C 
HETATM   36  N   UNL     1      43.229 -10.612   7.476  1.00  0.00    -0.326 N 
HETATM   37  H   UNL     1      42.293 -10.292   7.698  1.00  0.00     0.169 HD
HETATM   38  O   UNL     1      45.457 -10.237   8.039  1.00  0.00    -0.271 OA
BRANCH  36  39
HETATM   39  C   UNL     1      43.320 -11.703   6.588  1.00  0.00     0.036 A 
HETATM   40  C   UNL     1      43.076 -11.621   5.215  1.00  0.00     0.053 A 
HETATM   41  C   UNL     1      43.216 -12.753   4.409  1.00  0.00     0.036 A 
HETATM   42 CL   UNL     1      42.938 -12.636   2.713  1.00  0.00    -0.084 Cl
HETATM   43  C   UNL     1      43.587 -13.978   4.958  1.00  0.00     0.024 A 
HETATM   44  C   UNL     1      43.825 -14.072   6.326  1.00  0.00     0.004 A 
HETATM   45  C   UNL     1      43.696 -12.939   7.135  1.00  0.00     0.029 A 
ENDBRANCH  36  39
ENDBRANCH  34  35
ENDBRANCH   5  34
TORSDOF 8
ENDMDL
MODEL 2
REMARK VINA RESULT:      -9.3      2.975      9.504
REMARK  8 active torsions:
REMARK  status: ('A' for Active; 'I' for Inactive)
REMARK    1  A    between atoms: N_5  and  C_6 
REMARK    2  A    between atoms: C_6  and  C_7 
REMARK       I    between atoms: C_7  and  N_8 
REMARK    3  A    between atoms: N_8  and  C_9 
REMARK    4  A    between atoms: N_19  and  C_20 
REMARK    5  A    between atoms: C_20  and  C_21 
REMARK    6  A    between atoms: C_24  and  C_25 
REMARK       I    between atoms: C_25  and  N_26 
REMARK    7  A    between atoms: N_26  and  C_27 
REMARK    8  A    between atoms: C_27  and  C_28 
ROOT
HETATM    1  C   UNL     1      40.879 -11.625  -3.095  1.00  0.00     0.001 A 
HETATM    2  C   UNL     1      40.495 -10.867  -1.994  1.00  0.00     0.019 A 
HETATM    3  C   UNL     1      40.172 -11.501  -0.784  1.00  0.00     0.059 A 
HETATM    4  C   UNL     1      40.231 -12.888  -0.655  1.00  0.00     0.055 A 
HETATM    5  N   UNL     1      39.892 -13.486   0.590  1.00  0.00    -0.290 N 
HETATM    6  C   UNL     1      39.411 -12.742   1.658  1.00  0.00     0.332 C 
HETATM    7  O   UNL     1      38.942 -13.306   2.650  1.00  0.00    -0.246 OA
HETATM    8  N   UNL     1      39.433 -11.363   1.533  1.00  0.00    -0.261 N 
HETATM    9  C   UNL     1      39.772 -10.683   0.372  1.00  0.00     0.264 C 
HETATM   10  O   UNL     1      39.742  -9.460   0.259  1.00  0.00    -0.267 OA
HETATM   11  C   UNL     1      40.616 -13.639  -1.777  1.00  0.00     0.031 A 
HETATM   12  C   UNL     1      40.937 -13.010  -2.987  1.00  0.00     0.002 A 
ENDROOT
BRANCH   8  13
HETATM   13  C   UNL     1      39.041 -10.567   2.690  1.00  0.00     0.175 C 
BRANCH  13  14
HETATM   14  C   UNL     1      40.093 -10.594   3.782  1.00  0.00    -0.040 A 
HETATM   15  C   UNL     1      41.448 -10.402   3.478  1.00  0.00     0.010 A 
HETATM   16  C   UNL     1      42.424 -10.426   4.485  1.00  0.00     0.017 A 
HETATM   17  C   UNL     1      42.058 -10.642   5.817  1.00  0.00     0.032 A 
HETATM   18  C   UNL     1      40.701 -10.836   6.120  1.00  0.00     0.017 A 
HETATM   19  C   UNL     1      39.730 -10.818   5.114  1.00  0.00     0.010 A 
BRANCH  17  20
HETATM   20  C   UNL     1      43.032 -10.683   6.953  1.00  0.00     0.251 C 
HETATM   21  N   UNL     1      42.659 -10.108   8.150  1.00  0.00    -0.353 N 
HETATM   22  H   UNL     1      41.725  -9.766   8.303  1.00  0.00     0.163 HD
HETATM   23  O   UNL     1      44.130 -11.206   6.791  1.00  0.00    -0.268 OA
BRANCH  21  24
HETATM   24  C   UNL     1      43.552 -10.117   9.290  1.00  0.00     0.161 C 
BRANCH  24  25
HETATM   25  C   UNL     1      42.951  -9.443  10.503  1.00  0.00    -0.038 A 
HETATM   26  C   UNL     1      41.555  -9.309  10.599  1.00  0.00     0.048 A 
HETATM   27  C   UNL     1      41.027  -8.761  11.750  1.00  0.00     0.105 A 
HETATM   28  C   UNL     1      41.825  -8.348  12.790  1.00  0.00     0.105 A 
HETATM   29  O   UNL     1      39.705  -8.578  12.009  1.00  0.00    -0.323 OA
HETATM   30  O   UNL     1      41.107  -7.850  13.831  1.00  0.00    -0.323 OA
HETATM   31  C   UNL     1      43.196  -8.465  12.740  1.00  0.00     0.040 A 
HETATM   32  C   UNL     1      39.762  -8.032  13.343  1.00  0.00     0.352 A 
HETATM   33  C   UNL     1      43.759  -9.032  11.590  1.00  0.00     0.012 A 
ENDBRANCH  24  25
ENDBRANCH  21  24
ENDBRANCH  17  20
ENDBRANCH  13  14
ENDBRANCH   8  13
BRANCH   5  34
HETATM   34  C   UNL     1      40.076 -14.931   0.790  1.00  0.00     0.237 C 
BRANCH  34  35
HETATM   35  C   UNL     1      41.403 -15.336   1.444  1.00  0.00     0.240 C 
HETATM   36  N   UNL     1      41.381 -16.586   2.035  1.00  0.00    -0.326 N 
HETATM   37  H   UNL     1      40.516 -17.107   1.944  1.00  0.00     0.169 HD
HETATM   38  O   UNL     1      42.326 -14.527   1.498  1.00  0.00    -0.271 OA
BRANCH  36  39
HETATM   39  C   UNL     1      42.402 -17.200   2.792  1.00  0.00     0.036 A 
HETATM   40  C   UNL     1      42.887 -16.704   4.003  1.00  0.00     0.053 A 
HETATM   41  C   UNL     1      43.885 -17.396   4.695  1.00  0.00     0.036 A 
HETATM   42 CL   UNL     1      44.459 -16.790   6.201  1.00  0.00    -0.084 Cl
HETATM   43  C   UNL     1      44.417 -18.578   4.185  1.00  0.00     0.024 A 
HETATM   44  C   UNL     1      43.945 -19.075   2.974  1.00  0.00     0.004 A 
HETATM   45  C   UNL     1      42.939 -18.392   2.284  1.00  0.00     0.029 A 
ENDBRANCH  36  39
ENDBRANCH  34  35
ENDBRANCH   5  34
TORSDOF 8
ENDMDL
MODEL 3
REMARK VINA RESULT:      -9.1      4.199      7.159
REMARK  8 active torsions:
REMARK  status: ('A' for Active; 'I' for Inactive)
REMARK    1  A    between atoms: N_5  and  C_6 
REMARK    2  A    between atoms: C_6  and  C_7 
REMARK       I    between atoms: C_7  and  N_8 
REMARK    3  A    between atoms: N_8  and  C_9 
REMARK    4  A    between atoms: N_19  and  C_20 
REMARK    5  A    between atoms: C_20  and  C_21 
REMARK    6  A    between atoms: C_24  and  C_25 
REMARK       I    between atoms: C_25  and  N_26 
REMARK    7  A    between atoms: N_26  and  C_27 
REMARK    8  A    between atoms: C_27  and  C_28 
ROOT
HETATM    1  C   UNL     1      41.861  -4.527   9.911  1.00  0.00     0.001 A 
HETATM    2  C   UNL     1      42.837  -5.411   9.464  1.00  0.00     0.019 A 
HETATM    3  C   UNL     1      42.943  -6.688  10.038  1.00  0.00     0.059 A 
HETATM    4  C   UNL     1      42.079  -7.099  11.052  1.00  0.00     0.055 A 
HETATM    5  N   UNL     1      42.226  -8.401  11.606  1.00  0.00    -0.290 N 
HETATM    6  C   UNL     1      43.262  -9.247  11.235  1.00  0.00     0.332 C 
HETATM    7  O   UNL     1      43.478 -10.283  11.868  1.00  0.00    -0.246 OA
HETATM    8  N   UNL     1      44.059  -8.848  10.175  1.00  0.00    -0.261 N 
HETATM    9  C   UNL     1      43.979  -7.611   9.551  1.00  0.00     0.264 C 
HETATM   10  O   UNL     1      44.724  -7.252   8.642  1.00  0.00    -0.267 OA
HETATM   11  C   UNL     1      41.102  -6.193  11.495  1.00  0.00     0.031 A 
HETATM   12  C   UNL     1      40.995  -4.918  10.926  1.00  0.00     0.002 A 
ENDROOT
BRANCH   8  13
HETATM   13  C   UNL     1      45.076  -9.778   9.699  1.00  0.00     0.175 C 
BRANCH  13  14
HETATM   14  C   UNL     1      44.720 -10.370   8.349  1.00  0.00    -0.040 A 
HETATM   15  C   UNL     1      43.386 -10.443   7.926  1.00  0.00     0.010 A 
HETATM   16  C   UNL     1      43.052 -10.989   6.679  1.00  0.00     0.017 A 
HETATM   17  C   UNL     1      44.054 -11.472   5.830  1.00  0.00     0.032 A 
HETATM   18  C   UNL     1      45.389 -11.401   6.255  1.00  0.00     0.017 A 
HETATM   19  C   UNL     1      45.720 -10.861   7.502  1.00  0.00     0.010 A 
BRANCH  17  20
HETATM   20  C   UNL     1      43.788 -12.071   4.484  1.00  0.00     0.251 C 
HETATM   21  N   UNL     1      42.988 -13.192   4.418  1.00  0.00    -0.353 N 
HETATM   22  H   UNL     1      42.502 -13.542   5.227  1.00  0.00     0.163 HD
HETATM   23  O   UNL     1      44.294 -11.567   3.486  1.00  0.00    -0.268 OA
BRANCH  21  24
HETATM   24  C   UNL     1      42.687 -13.818   3.148  1.00  0.00     0.161 C 
BRANCH  24  25
HETATM   25  C   UNL     1      43.071 -15.280   3.115  1.00  0.00    -0.038 A 
HETATM   26  C   UNL     1      43.423 -15.929   4.312  1.00  0.00     0.048 A 
HETATM   27  C   UNL     1      43.693 -17.282   4.268  1.00  0.00     0.105 A 
HETATM   28  C   UNL     1      43.628 -17.997   3.097  1.00  0.00     0.105 A 
HETATM   29  O   UNL     1      44.028 -18.059   5.333  1.00  0.00    -0.323 OA
HETATM   30  O   UNL     1      43.919 -19.313   3.275  1.00  0.00    -0.323 OA
HETATM   31  C   UNL     1      43.284 -17.403   1.904  1.00  0.00     0.040 A 
HETATM   32  C   UNL     1      44.137 -19.351   4.701  1.00  0.00     0.352 A 
HETATM   33  C   UNL     1      42.989 -16.035   1.920  1.00  0.00     0.012 A 
ENDBRANCH  24  25
ENDBRANCH  21  24
ENDBRANCH  17  20
ENDBRANCH  13  14
ENDBRANCH   8  13
BRANCH   5  34
HETATM   34  C   UNL     1      41.246  -8.906  12.578  1.00  0.00     0.237 C 
BRANCH  34  35
HETATM   35  C   UNL     1      41.444  -8.421  14.019  1.00  0.00     0.240 C 
HETATM   36  N   UNL     1      40.425  -7.611  14.487  1.00  0.00    -0.326 N 
HETATM   37  H   UNL     1      39.652  -7.455  13.850  1.00  0.00     0.169 HD
HETATM   38  O   UNL     1      42.492  -8.676  14.607  1.00  0.00    -0.271 OA
BRANCH  36  39
HETATM   39  C   UNL     1      40.359  -6.937  15.724  1.00  0.00     0.036 A 
HETATM   40  C   UNL     1      40.320  -7.575  16.965  1.00  0.00     0.053 A 
HETATM   41  C   UNL     1      40.281  -6.821  18.140  1.00  0.00     0.036 A 
HETATM   42 CL   UNL     1      40.259  -7.617  19.667  1.00  0.00    -0.084 Cl
HETATM   43  C   UNL     1      40.267  -5.429  18.094  1.00  0.00     0.024 A 
HETATM   44  C   UNL     1      40.297  -4.784  16.862  1.00  0.00     0.004 A 
HETATM   45  C   UNL     1      40.348  -5.534  15.683  1.00  0.00     0.029 A 
ENDBRANCH  36  39
ENDBRANCH  34  35
ENDBRANCH   5  34
TORSDOF 8
ENDMDL
MODEL 4
REMARK VINA RESULT:      -9.0      2.908      5.004
REMARK  8 active torsions:
REMARK  status: ('A' for Active; 'I' for Inactive)
REMARK    1  A    between atoms: N_5  and  C_6 
REMARK    2  A    between atoms: C_6  and  C_7 
REMARK       I    between atoms: C_7  and  N_8 
REMARK    3  A    between atoms: N_8  and  C_9 
REMARK    4  A    between atoms: N_19  and  C_20 
REMARK    5  A    between atoms: C_20  and  C_21 
REMARK    6  A    between atoms: C_24  and  C_25 
REMARK       I    between atoms: C_25  and  N_26 
REMARK    7  A    between atoms: N_26  and  C_27 
REMARK    8  A    between atoms: C_27  and  C_28 
ROOT
HETATM    1  C   UNL     1      41.852  -9.272  13.844  1.00  0.00     0.001 A 
HETATM    2  C   UNL     1      42.719  -9.781  12.882  1.00  0.00     0.019 A 
HETATM    3  C   UNL     1      43.050  -9.009  11.757  1.00  0.00     0.059 A 
HETATM    4  C   UNL     1      42.531  -7.728  11.580  1.00  0.00     0.055 A 
HETATM    5  N   UNL     1      42.892  -6.984  10.423  1.00  0.00    -0.290 N 
HETATM    6  C   UNL     1      43.673  -7.527   9.412  1.00  0.00     0.332 C 
HETATM    7  O   UNL     1      43.806  -6.934   8.339  1.00  0.00    -0.246 OA
HETATM    8  N   UNL     1      44.238  -8.769   9.645  1.00  0.00    -0.261 N 
HETATM    9  C   UNL     1      43.970  -9.562  10.752  1.00  0.00     0.264 C 
HETATM   10  O   UNL     1      44.443 -10.684  10.923  1.00  0.00    -0.267 OA
HETATM   11  C   UNL     1      41.654  -7.230  12.558  1.00  0.00     0.031 A 
HETATM   12  C   UNL     1      41.320  -7.998  13.680  1.00  0.00     0.002 A 
ENDROOT
BRANCH   8  13
HETATM   13  C   UNL     1      45.155  -9.300   8.642  1.00  0.00     0.175 C 
BRANCH  13  14
HETATM   14  C   UNL     1      44.485 -10.318   7.741  1.00  0.00    -0.040 A 
HETATM   15  C   UNL     1      45.156 -11.488   7.356  1.00  0.00     0.010 A 
HETATM   16  C   UNL     1      44.541 -12.433   6.523  1.00  0.00     0.017 A 
HETATM   17  C   UNL     1      43.237 -12.222   6.060  1.00  0.00     0.032 A 
HETATM   18  C   UNL     1      42.567 -11.051   6.445  1.00  0.00     0.017 A 
HETATM   19  C   UNL     1      43.185 -10.106   7.271  1.00  0.00     0.010 A 
BRANCH  17  20
HETATM   20  C   UNL     1      42.506 -13.176   5.169  1.00  0.00     0.251 C 
HETATM   21  N   UNL     1      43.204 -13.764   4.135  1.00  0.00    -0.353 N 
HETATM   22  H   UNL     1      44.199 -13.650   4.037  1.00  0.00     0.163 HD
HETATM   23  O   UNL     1      41.315 -13.399   5.366  1.00  0.00    -0.268 OA
BRANCH  21  24
HETATM   24  C   UNL     1      42.558 -14.700   3.238  1.00  0.00     0.161 C 
BRANCH  24  25
HETATM   25  C   UNL     1      42.960 -16.132   3.506  1.00  0.00    -0.038 A 
HETATM   26  C   UNL     1      42.759 -17.105   2.511  1.00  0.00     0.048 A 
HETATM   27  C   UNL     1      43.207 -18.388   2.749  1.00  0.00     0.105 A 
HETATM   28  C   UNL     1      43.833 -18.732   3.922  1.00  0.00     0.105 A 
HETATM   29  O   UNL     1      43.108 -19.436   1.888  1.00  0.00    -0.323 OA
HETATM   30  O   UNL     1      44.204 -20.040   3.950  1.00  0.00    -0.323 OA
HETATM   31  C   UNL     1      44.054 -17.811   4.921  1.00  0.00     0.040 A 
HETATM   32  C   UNL     1      43.772 -20.471   2.643  1.00  0.00     0.352 A 
HETATM   33  C   UNL     1      43.625 -16.497   4.701  1.00  0.00     0.012 A 
ENDBRANCH  24  25
ENDBRANCH  21  24
ENDBRANCH  17  20
ENDBRANCH  13  14
ENDBRANCH   8  13
BRANCH   5  34
HETATM   34  C   UNL     1      42.467  -5.584  10.281  1.00  0.00     0.237 C 
BRANCH  34  35
HETATM   35  C   UNL     1      41.404  -5.329   9.205  1.00  0.00     0.240 C 
HETATM   36  N   UNL     1      40.594  -6.419   8.943  1.00  0.00    -0.326 N 
HETATM   37  H   UNL     1      40.764  -7.245   9.505  1.00  0.00     0.169 HD
HETATM   38  O   UNL     1      41.402  -4.263   8.593  1.00  0.00    -0.271 OA
BRANCH  36  39
HETATM   39  C   UNL     1      39.596  -6.532   7.953  1.00  0.00     0.036 A 
HETATM   40  C   UNL     1      38.448  -5.739   7.901  1.00  0.00     0.053 A 
HETATM   41  C   UNL     1      37.525  -5.908   6.866  1.00  0.00     0.036 A 
HETATM   42 CL   UNL     1      36.125  -4.907   6.796  1.00  0.00    -0.084 Cl
HETATM   43  C   UNL     1      37.726  -6.873   5.882  1.00  0.00     0.024 A 
HETATM   44  C   UNL     1      38.863  -7.674   5.930  1.00  0.00     0.004 A 
HETATM   45  C   UNL     1      39.795  -7.500   6.958  1.00  0.00     0.029 A 
ENDBRANCH  36  39
ENDBRANCH  34  35
ENDBRANCH   5  34
TORSDOF 8
ENDMDL
MODEL 5
REMARK VINA RESULT:      -9.0      2.691      8.798
REMARK  8 active torsions:
REMARK  status: ('A' for Active; 'I' for Inactive)
REMARK    1  A    between atoms: N_5  and  C_6 
REMARK    2  A    between atoms: C_6  and  C_7 
REMARK       I    between atoms: C_7  and  N_8 
REMARK    3  A    between atoms: N_8  and  C_9 
REMARK    4  A    between atoms: N_19  and  C_20 
REMARK    5  A    between atoms: C_20  and  C_21 
REMARK    6  A    between atoms: C_24  and  C_25 
REMARK       I    between atoms: C_25  and  N_26 
REMARK    7  A    between atoms: N_26  and  C_27 
REMARK    8  A    between atoms: C_27  and  C_28 
ROOT
HETATM    1  C   UNL     1      42.845 -16.059   1.548  1.00  0.00     0.001 A 
HETATM    2  C   UNL     1      42.016 -14.943   1.578  1.00  0.00     0.019 A 
HETATM    3  C   UNL     1      41.507 -14.479   2.802  1.00  0.00     0.059 A 
HETATM    4  C   UNL     1      41.822 -15.113   4.003  1.00  0.00     0.055 A 
HETATM    5  N   UNL     1      41.281 -14.609   5.218  1.00  0.00    -0.290 N 
HETATM    6  C   UNL     1      40.372 -13.561   5.241  1.00  0.00     0.332 C 
HETATM    7  O   UNL     1      39.774 -13.276   6.282  1.00  0.00    -0.246 OA
HETATM    8  N   UNL     1      40.135 -12.900   4.048  1.00  0.00    -0.261 N 
HETATM    9  C   UNL     1      40.634 -13.295   2.815  1.00  0.00     0.264 C 
HETATM   10  O   UNL     1      40.378 -12.727   1.756  1.00  0.00    -0.267 OA
HETATM   11  C   UNL     1      42.657 -16.241   3.955  1.00  0.00     0.031 A 
HETATM   12  C   UNL     1      43.164 -16.707   2.735  1.00  0.00     0.002 A 
ENDROOT
BRANCH   8  13
HETATM   13  C   UNL     1      39.274 -11.723   4.080  1.00  0.00     0.175 C 
BRANCH  13  14
HETATM   14  C   UNL     1      39.898 -10.581   4.858  1.00  0.00    -0.040 A 
HETATM   15  C   UNL     1      39.134  -9.822   5.755  1.00  0.00     0.010 A 
HETATM   16  C   UNL     1      39.708  -8.764   6.476  1.00  0.00     0.017 A 
HETATM   17  C   UNL     1      41.061  -8.450   6.312  1.00  0.00     0.032 A 
HETATM   18  C   UNL     1      41.824  -9.210   5.412  1.00  0.00     0.017 A 
HETATM   19  C   UNL     1      41.249 -10.260   4.689  1.00  0.00     0.010 A 
BRANCH  17  20
HETATM   20  C   UNL     1      41.753  -7.341   7.040  1.00  0.00     0.251 C 
HETATM   21  N   UNL     1      41.765  -7.376   8.418  1.00  0.00    -0.353 N 
HETATM   22  H   UNL     1      41.420  -8.173   8.929  1.00  0.00     0.163 HD
HETATM   23  O   UNL     1      42.273  -6.430   6.403  1.00  0.00    -0.268 OA
BRANCH  21  24
HETATM   24  C   UNL     1      42.421  -6.337   9.184  1.00  0.00     0.161 C 
BRANCH  24  25
HETATM   25  C   UNL     1      42.219  -6.499  10.674  1.00  0.00    -0.038 A 
HETATM   26  C   UNL     1      42.028  -7.784  11.210  1.00  0.00     0.048 A 
HETATM   27  C   UNL     1      41.925  -7.914  12.580  1.00  0.00     0.105 A 
HETATM   28  C   UNL     1      42.003  -6.830  13.420  1.00  0.00     0.105 A 
HETATM   29  O   UNL     1      41.756  -9.082  13.257  1.00  0.00    -0.323 OA
HETATM   30  O   UNL     1      41.889  -7.176  14.729  1.00  0.00    -0.323 OA
HETATM   31  C   UNL     1      42.195  -5.554  12.938  1.00  0.00     0.040 A 
HETATM   32  C   UNL     1      41.769  -8.610  14.620  1.00  0.00     0.352 A 
HETATM   33  C   UNL     1      42.318  -5.394  11.553  1.00  0.00     0.012 A 
ENDBRANCH  24  25
ENDBRANCH  21  24
ENDBRANCH  17  20
ENDBRANCH  13  14
ENDBRANCH   8  13
BRANCH   5  34
HETATM   34  C   UNL     1      41.705 -15.176   6.507  1.00  0.00     0.237 C 
BRANCH  34  35
HETATM   35  C   UNL     1      42.835 -14.419   7.214  1.00  0.00     0.240 C 
HETATM   36  N   UNL     1      42.950 -13.094   6.835  1.00  0.00    -0.326 N 
HETATM   37  H   UNL     1      42.264 -12.761   6.167  1.00  0.00     0.169 HD
HETATM   38  O   UNL     1      43.603 -15.027   7.957  1.00  0.00    -0.271 OA
BRANCH  36  39
HETATM   39  C   UNL     1      43.938 -12.167   7.229  1.00  0.00     0.036 A 
HETATM   40  C   UNL     1      43.866 -11.387   8.385  1.00  0.00     0.053 A 
HETATM   41  C   UNL     1      44.907 -10.512   8.706  1.00  0.00     0.036 A 
HETATM   42 CL   UNL     1      44.821  -9.573  10.147  1.00  0.00    -0.084 Cl
HETATM   43  C   UNL     1      46.021 -10.395   7.878  1.00  0.00     0.024 A 
HETATM   44  C   UNL     1      46.098 -11.162   6.719  1.00  0.00     0.004 A 
HETATM   45  C   UNL     1      45.063 -12.047   6.400  1.00  0.00     0.029 A 
ENDBRANCH  36  39
ENDBRANCH  34  35
ENDBRANCH   5  34
TORSDOF 8
ENDMDL
MODEL 6
REMARK VINA RESULT:      -9.0      3.572      6.114
REMARK  8 active torsions:
REMARK  status: ('A' for Active; 'I' for Inactive)
REMARK    1  A    between atoms: N_5  and  C_6 
REMARK    2  A    between atoms: C_6  and  C_7 
REMARK       I    between atoms: C_7  and  N_8 
REMARK    3  A    between atoms: N_8  and  C_9 
REMARK    4  A    between atoms: N_19  and  C_20 
REMARK    5  A    between atoms: C_20  and  C_21 
REMARK    6  A    between atoms: C_24  and  C_25 
REMARK       I    between atoms: C_25  and  N_26 
REMARK    7  A    between atoms: N_26  and  C_27 
REMARK    8  A    between atoms: C_27  and  C_28 
ROOT
HETATM    1  C   UNL     1      42.019  -9.385  13.864  1.00  0.00     0.001 A 
HETATM    2  C   UNL     1      42.832  -9.879  12.849  1.00  0.00     0.019 A 
HETATM    3  C   UNL     1      43.084  -9.098  11.709  1.00  0.00     0.059 A 
HETATM    4  C   UNL     1      42.538  -7.824  11.570  1.00  0.00     0.055 A 
HETATM    5  N   UNL     1      42.818  -7.071  10.396  1.00  0.00    -0.290 N 
HETATM    6  C   UNL     1      43.544  -7.600   9.338  1.00  0.00     0.332 C 
HETATM    7  O   UNL     1      43.604  -7.001   8.261  1.00  0.00    -0.246 OA
HETATM    8  N   UNL     1      44.140  -8.835   9.531  1.00  0.00    -0.261 N 
HETATM    9  C   UNL     1      43.950  -9.635  10.648  1.00  0.00     0.264 C 
HETATM   10  O   UNL     1      44.447 -10.751  10.786  1.00  0.00    -0.267 OA
HETATM   11  C   UNL     1      41.715  -7.342  12.600  1.00  0.00     0.031 A 
HETATM   12  C   UNL     1      41.460  -8.118  13.738  1.00  0.00     0.002 A 
ENDROOT
BRANCH   8  13
HETATM   13  C   UNL     1      45.001  -9.349   8.472  1.00  0.00     0.175 C 
BRANCH  13  14
HETATM   14  C   UNL     1      44.272 -10.323   7.567  1.00  0.00    -0.040 A 
HETATM   15  C   UNL     1      42.985 -10.035   7.092  1.00  0.00     0.010 A 
HETATM   16  C   UNL     1      42.306 -10.933   6.255  1.00  0.00     0.017 A 
HETATM   17  C   UNL     1      42.909 -12.138   5.877  1.00  0.00     0.032 A 
HETATM   18  C   UNL     1      44.197 -12.426   6.355  1.00  0.00     0.017 A 
HETATM   19  C   UNL     1      44.869 -11.532   7.195  1.00  0.00     0.010 A 
BRANCH  17  20
HETATM   20  C   UNL     1      42.259 -13.152   4.989  1.00  0.00     0.251 C 
HETATM   21  N   UNL     1      43.027 -13.744   4.008  1.00  0.00    -0.353 N 
HETATM   22  H   UNL     1      44.021 -13.590   3.951  1.00  0.00     0.163 HD
HETATM   23  O   UNL     1      41.072 -13.419   5.141  1.00  0.00    -0.268 OA
BRANCH  21  24
HETATM   24  C   UNL     1      42.462 -14.736   3.118  1.00  0.00     0.161 C 
BRANCH  24  25
HETATM   25  C   UNL     1      42.911 -16.140   3.455  1.00  0.00    -0.038 A 
HETATM   26  C   UNL     1      42.731 -17.168   2.513  1.00  0.00     0.048 A 
HETATM   27  C   UNL     1      43.220 -18.424   2.812  1.00  0.00     0.105 A 
HETATM   28  C   UNL     1      43.868 -18.688   3.994  1.00  0.00     0.105 A 
HETATM   29  O   UNL     1      43.144 -19.518   2.007  1.00  0.00    -0.323 OA
HETATM   30  O   UNL     1      44.279 -19.981   4.085  1.00  0.00    -0.323 OA
HETATM   31  C   UNL     1      44.071 -17.710   4.942  1.00  0.00     0.040 A 
HETATM   32  C   UNL     1      43.848 -20.491   2.806  1.00  0.00     0.352 A 
HETATM   33  C   UNL     1      43.599 -16.423   4.659  1.00  0.00     0.012 A 
ENDBRANCH  24  25
ENDBRANCH  21  24
ENDBRANCH  17  20
ENDBRANCH  13  14
ENDBRANCH   8  13
BRANCH   5  34
HETATM   34  C   UNL     1      42.366  -5.677  10.286  1.00  0.00     0.237 C 
BRANCH  34  35
HETATM   35  C   UNL     1      40.865  -5.494  10.032  1.00  0.00     0.240 C 
HETATM   36  N   UNL     1      40.255  -4.589  10.881  1.00  0.00    -0.326 N 
HETATM   37  H   UNL     1      40.862  -4.125  11.547  1.00  0.00     0.169 HD
HETATM   38  O   UNL     1      40.297  -6.204   9.204  1.00  0.00    -0.271 OA
BRANCH  36  39
HETATM   39  C   UNL     1      38.882  -4.274  10.963  1.00  0.00     0.036 A 
HETATM   40  C   UNL     1      38.176  -3.580   9.979  1.00  0.00     0.053 A 
HETATM   41  C   UNL     1      36.809  -3.336  10.138  1.00  0.00     0.036 A 
HETATM   42 CL   UNL     1      35.941  -2.501   8.906  1.00  0.00    -0.084 Cl
HETATM   43  C   UNL     1      36.136  -3.765  11.279  1.00  0.00     0.024 A 
HETATM   44  C   UNL     1      36.834  -4.450  12.269  1.00  0.00     0.004 A 
HETATM   45  C   UNL     1      38.199  -4.707  12.109  1.00  0.00     0.029 A 
ENDBRANCH  36  39
ENDBRANCH  34  35
ENDBRANCH   5  34
TORSDOF 8
ENDMDL
MODEL 7
REMARK VINA RESULT:      -8.9      4.365      8.894
REMARK  8 active torsions:
REMARK  status: ('A' for Active; 'I' for Inactive)
REMARK    1  A    between atoms: N_5  and  C_6 
REMARK    2  A    between atoms: C_6  and  C_7 
REMARK       I    between atoms: C_7  and  N_8 
REMARK    3  A    between atoms: N_8  and  C_9 
REMARK    4  A    between atoms: N_19  and  C_20 
REMARK    5  A    between atoms: C_20  and  C_21 
REMARK    6  A    between atoms: C_24  and  C_25 
REMARK       I    between atoms: C_25  and  N_26 
REMARK    7  A    between atoms: N_26  and  C_27 
REMARK    8  A    between atoms: C_27  and  C_28 
ROOT
HETATM    1  C   UNL     1      43.300 -17.929   2.961  1.00  0.00     0.001 A 
HETATM    2  C   UNL     1      42.356 -17.116   2.343  1.00  0.00     0.019 A 
HETATM    3  C   UNL     1      41.839 -16.001   3.021  1.00  0.00     0.059 A 
HETATM    4  C   UNL     1      42.258 -15.680   4.311  1.00  0.00     0.055 A 
HETATM    5  N   UNL     1      41.704 -14.542   4.960  1.00  0.00    -0.290 N 
HETATM    6  C   UNL     1      40.688 -13.789   4.388  1.00  0.00     0.332 C 
HETATM    7  O   UNL     1      40.096 -12.934   5.050  1.00  0.00    -0.246 OA
HETATM    8  N   UNL     1      40.344 -14.080   3.078  1.00  0.00    -0.261 N 
HETATM    9  C   UNL     1      40.844 -15.150   2.351  1.00  0.00     0.264 C 
HETATM   10  O   UNL     1      40.494 -15.424   1.205  1.00  0.00    -0.267 OA
HETATM   11  C   UNL     1      43.208 -16.514   4.923  1.00  0.00     0.031 A 
HETATM   12  C   UNL     1      43.724 -17.629   4.250  1.00  0.00     0.002 A 
ENDROOT
BRANCH   8  13
HETATM   13  C   UNL     1      39.362 -13.222   2.426  1.00  0.00     0.175 C 
BRANCH  13  14
HETATM   14  C   UNL     1      40.014 -12.074   1.680  1.00  0.00    -0.040 A 
HETATM   15  C   UNL     1      40.350 -12.198   0.324  1.00  0.00     0.010 A 
HETATM   16  C   UNL     1      40.954 -11.140  -0.370  1.00  0.00     0.017 A 
HETATM   17  C   UNL     1      41.231  -9.934   0.284  1.00  0.00     0.032 A 
HETATM   18  C   UNL     1      40.895  -9.812   1.641  1.00  0.00     0.017 A 
HETATM   19  C   UNL     1      40.299 -10.871   2.334  1.00  0.00     0.010 A 
BRANCH  17  20
HETATM   20  C   UNL     1      41.872  -8.755  -0.378  1.00  0.00     0.251 C 
HETATM   21  N   UNL     1      41.247  -7.531  -0.271  1.00  0.00    -0.353 N 
HETATM   22  H   UNL     1      40.445  -7.397   0.323  1.00  0.00     0.163 HD
HETATM   23  O   UNL     1      42.915  -8.906  -1.006  1.00  0.00    -0.268 OA
BRANCH  21  24
HETATM   24  C   UNL     1      41.816  -6.348  -0.883  1.00  0.00     0.161 C 
BRANCH  24  25
HETATM   25  C   UNL     1      42.574  -5.490   0.105  1.00  0.00    -0.038 A 
HETATM   26  C   UNL     1      41.963  -5.131   1.319  1.00  0.00     0.048 A 
HETATM   27  C   UNL     1      42.703  -4.414   2.238  1.00  0.00     0.105 A 
HETATM   28  C   UNL     1      44.005  -4.048   1.994  1.00  0.00     0.105 A 
HETATM   29  O   UNL     1      42.271  -4.006   3.461  1.00  0.00    -0.323 OA
HETATM   30  O   UNL     1      44.554  -3.359   3.029  1.00  0.00    -0.323 OA
HETATM   31  C   UNL     1      44.642  -4.382   0.820  1.00  0.00     0.040 A 
HETATM   32  C   UNL     1      43.460  -3.368   3.970  1.00  0.00     0.352 A 
HETATM   33  C   UNL     1      43.922  -5.122  -0.124  1.00  0.00     0.012 A 
ENDBRANCH  24  25
ENDBRANCH  21  24
ENDBRANCH  17  20
ENDBRANCH  13  14
ENDBRANCH   8  13
BRANCH   5  34
HETATM   34  C   UNL     1      42.227 -14.107   6.263  1.00  0.00     0.237 C 
BRANCH  34  35
HETATM   35  C   UNL     1      43.197 -12.920   6.216  1.00  0.00     0.240 C 
HETATM   36  N   UNL     1      43.403 -12.311   7.440  1.00  0.00    -0.326 N 
HETATM   37  H   UNL     1      42.926 -12.728   8.231  1.00  0.00     0.169 HD
HETATM   38  O   UNL     1      43.629 -12.531   5.133  1.00  0.00    -0.271 OA
BRANCH  36  39
HETATM   39  C   UNL     1      44.157 -11.149   7.709  1.00  0.00     0.036 A 
HETATM   40  C   UNL     1      43.611  -9.947   8.162  1.00  0.00     0.053 A 
HETATM   41  C   UNL     1      44.442  -8.855   8.425  1.00  0.00     0.036 A 
HETATM   42 CL   UNL     1      43.763  -7.383   9.008  1.00  0.00    -0.084 Cl
HETATM   43  C   UNL     1      45.819  -8.943   8.229  1.00  0.00     0.024 A 
HETATM   44  C   UNL     1      46.371 -10.135   7.770  1.00  0.00     0.004 A 
HETATM   45  C   UNL     1      45.544 -11.234   7.517  1.00  0.00     0.029 A 
ENDBRANCH  36  39
ENDBRANCH  34  35
ENDBRANCH   5  34
TORSDOF 8
ENDMDL
MODEL 8
REMARK VINA RESULT:      -8.7      5.374      9.146
REMARK  8 active torsions:
REMARK  status: ('A' for Active; 'I' for Inactive)
REMARK    1  A    between atoms: N_5  and  C_6 
REMARK    2  A    between atoms: C_6  and  C_7 
REMARK       I    between atoms: C_7  and  N_8 
REMARK    3  A    between atoms: N_8  and  C_9 
REMARK    4  A    between atoms: N_19  and  C_20 
REMARK    5  A    between atoms: C_20  and  C_21 
REMARK    6  A    between atoms: C_24  and  C_25 
REMARK       I    between atoms: C_25  and  N_26 
REMARK    7  A    between atoms: N_26  and  C_27 
REMARK    8  A    between atoms: C_27  and  C_28 
ROOT
HETATM    1  C   UNL     1      43.226 -17.963   2.868  1.00  0.00     0.001 A 
HETATM    2  C   UNL     1      42.257 -17.153   2.286  1.00  0.00     0.019 A 
HETATM    3  C   UNL     1      41.744 -16.054   2.992  1.00  0.00     0.059 A 
HETATM    4  C   UNL     1      42.191 -15.746   4.276  1.00  0.00     0.055 A 
HETATM    5  N   UNL     1      41.640 -14.624   4.955  1.00  0.00    -0.290 N 
HETATM    6  C   UNL     1      40.601 -13.876   4.418  1.00  0.00     0.332 C 
HETATM    7  O   UNL     1      40.015 -13.038   5.107  1.00  0.00    -0.246 OA
HETATM    8  N   UNL     1      40.228 -14.152   3.114  1.00  0.00    -0.261 N 
HETATM    9  C   UNL     1      40.722 -15.206   2.359  1.00  0.00     0.264 C 
HETATM   10  O   UNL     1      40.347 -15.469   1.218  1.00  0.00    -0.267 OA
HETATM   11  C   UNL     1      43.166 -16.577   4.852  1.00  0.00     0.031 A 
HETATM   12  C   UNL     1      43.679 -17.675   4.151  1.00  0.00     0.002 A 
ENDROOT
BRANCH   8  13
HETATM   13  C   UNL     1      39.219 -13.298   2.498  1.00  0.00     0.175 C 
BRANCH  13  14
HETATM   14  C   UNL     1      39.839 -12.145   1.733  1.00  0.00    -0.040 A 
HETATM   15  C   UNL     1      39.094 -11.426   0.788  1.00  0.00     0.010 A 
HETATM   16  C   UNL     1      39.664 -10.360   0.077  1.00  0.00     0.017 A 
HETATM   17  C   UNL     1      40.995  -9.994   0.304  1.00  0.00     0.032 A 
HETATM   18  C   UNL     1      41.741 -10.715   1.248  1.00  0.00     0.017 A 
HETATM   19  C   UNL     1      41.173 -11.782   1.951  1.00  0.00     0.010 A 
BRANCH  17  20
HETATM   20  C   UNL     1      41.682  -8.871  -0.408  1.00  0.00     0.251 C 
HETATM   21  N   UNL     1      40.945  -7.744  -0.708  1.00  0.00    -0.353 N 
HETATM   22  H   UNL     1      40.005  -7.622  -0.368  1.00  0.00     0.163 HD
HETATM   23  O   UNL     1      42.864  -8.983  -0.719  1.00  0.00    -0.268 OA
BRANCH  21  24
HETATM   24  C   UNL     1      41.550  -6.620  -1.392  1.00  0.00     0.161 C 
BRANCH  24  25
HETATM   25  C   UNL     1      41.577  -6.799  -2.893  1.00  0.00    -0.038 A 
HETATM   26  C   UNL     1      40.391  -7.125  -3.572  1.00  0.00     0.048 A 
HETATM   27  C   UNL     1      40.425  -7.206  -4.950  1.00  0.00     0.105 A 
HETATM   28  C   UNL     1      41.578  -6.979  -5.661  1.00  0.00     0.105 A 
HETATM   29  O   UNL     1      39.367  -7.492  -5.755  1.00  0.00    -0.323 OA
HETATM   30  O   UNL     1      41.393  -7.097  -7.003  1.00  0.00    -0.323 OA
HETATM   31  C   UNL     1      42.761  -6.652  -5.037  1.00  0.00     0.040 A 
HETATM   32  C   UNL     1      39.981  -7.387  -7.056  1.00  0.00     0.352 A 
HETATM   33  C   UNL     1      42.753  -6.548  -3.641  1.00  0.00     0.012 A 
ENDBRANCH  24  25
ENDBRANCH  21  24
ENDBRANCH  17  20
ENDBRANCH  13  14
ENDBRANCH   8  13
BRANCH   5  34
HETATM   34  C   UNL     1      42.190 -14.201   6.250  1.00  0.00     0.237 C 
BRANCH  34  35
HETATM   35  C   UNL     1      43.155 -13.011   6.194  1.00  0.00     0.240 C 
HETATM   36  N   UNL     1      43.394 -12.420   7.421  1.00  0.00    -0.326 N 
HETATM   37  H   UNL     1      42.940 -12.851   8.218  1.00  0.00     0.169 HD
HETATM   38  O   UNL     1      43.555 -12.604   5.105  1.00  0.00    -0.271 OA
BRANCH  36  39
HETATM   39  C   UNL     1      44.152 -11.260   7.686  1.00  0.00     0.036 A 
HETATM   40  C   UNL     1      43.617 -10.070   8.183  1.00  0.00     0.053 A 
HETATM   41  C   UNL     1      44.453  -8.979   8.439  1.00  0.00     0.036 A 
HETATM   42 CL   UNL     1      43.789  -7.523   9.075  1.00  0.00    -0.084 Cl
HETATM   43  C   UNL     1      45.822  -9.056   8.193  1.00  0.00     0.024 A 
HETATM   44  C   UNL     1      46.362 -10.236   7.690  1.00  0.00     0.004 A 
HETATM   45  C   UNL     1      45.532 -11.334   7.444  1.00  0.00     0.029 A 
ENDBRANCH  36  39
ENDBRANCH  34  35
ENDBRANCH   5  34
TORSDOF 8
ENDMDL
MODEL 9
REMARK VINA RESULT:      -8.6      3.599      6.231
REMARK  8 active torsions:
REMARK  status: ('A' for Active; 'I' for Inactive)
REMARK    1  A    between atoms: N_5  and  C_6 
REMARK    2  A    between atoms: C_6  and  C_7 
REMARK       I    between atoms: C_7  and  N_8 
REMARK    3  A    between atoms: N_8  and  C_9 
REMARK    4  A    between atoms: N_19  and  C_20 
REMARK    5  A    between atoms: C_20  and  C_21 
REMARK    6  A    between atoms: C_24  and  C_25 
REMARK       I    between atoms: C_25  and  N_26 
REMARK    7  A    between atoms: N_26  and  C_27 
REMARK    8  A    between atoms: C_27  and  C_28 
ROOT
HETATM    1  C   UNL     1      43.859 -10.059  11.645  1.00  0.00     0.001 A 
HETATM    2  C   UNL     1      43.828  -9.894  10.265  1.00  0.00     0.019 A 
HETATM    3  C   UNL     1      42.615  -9.600   9.620  1.00  0.00     0.059 A 
HETATM    4  C   UNL     1      41.429  -9.461  10.338  1.00  0.00     0.055 A 
HETATM    5  N   UNL     1      40.224  -9.166   9.643  1.00  0.00    -0.290 N 
HETATM    6  C   UNL     1      40.171  -9.102   8.257  1.00  0.00     0.332 C 
HETATM    7  O   UNL     1      39.084  -9.040   7.677  1.00  0.00    -0.246 OA
HETATM    8  N   UNL     1      41.372  -9.166   7.572  1.00  0.00    -0.261 N 
HETATM    9  C   UNL     1      42.602  -9.425   8.160  1.00  0.00     0.264 C 
HETATM   10  O   UNL     1      43.654  -9.526   7.534  1.00  0.00    -0.267 OA
HETATM   11  C   UNL     1      41.476  -9.636  11.731  1.00  0.00     0.031 A 
HETATM   12  C   UNL     1      42.684  -9.932  12.377  1.00  0.00     0.002 A 
ENDROOT
BRANCH   8  13
HETATM   13  C   UNL     1      41.342  -8.983   6.125  1.00  0.00     0.175 C 
BRANCH  13  14
HETATM   14  C   UNL     1      41.394 -10.304   5.383  1.00  0.00    -0.040 A 
HETATM   15  C   UNL     1      40.394 -11.270   5.564  1.00  0.00     0.010 A 
HETATM   16  C   UNL     1      40.439 -12.493   4.880  1.00  0.00     0.017 A 
HETATM   17  C   UNL     1      41.488 -12.770   3.998  1.00  0.00     0.032 A 
HETATM   18  C   UNL     1      42.490 -11.803   3.818  1.00  0.00     0.017 A 
HETATM   19  C   UNL     1      42.448 -10.587   4.506  1.00  0.00     0.010 A 
BRANCH  17  20
HETATM   20  C   UNL     1      41.615 -14.047   3.227  1.00  0.00     0.251 C 
HETATM   21  N   UNL     1      42.840 -14.352   2.673  1.00  0.00    -0.353 N 
HETATM   22  H   UNL     1      43.659 -13.800   2.865  1.00  0.00     0.163 HD
HETATM   23  O   UNL     1      40.636 -14.774   3.095  1.00  0.00    -0.268 OA
BRANCH  21  24
HETATM   24  C   UNL     1      43.032 -15.574   1.920  1.00  0.00     0.161 C 
BRANCH  24  25
HETATM   25  C   UNL     1      43.279 -16.771   2.809  1.00  0.00    -0.038 A 
HETATM   26  C   UNL     1      43.213 -18.065   2.262  1.00  0.00     0.048 A 
HETATM   27  C   UNL     1      43.519 -19.137   3.075  1.00  0.00     0.105 A 
HETATM   28  C   UNL     1      43.881 -18.970   4.390  1.00  0.00     0.105 A 
HETATM   29  O   UNL     1      43.520 -20.444   2.699  1.00  0.00    -0.323 OA
HETATM   30  O   UNL     1      44.152 -20.150   5.009  1.00  0.00    -0.323 OA
HETATM   31  C   UNL     1      43.963 -17.722   4.965  1.00  0.00     0.040 A 
HETATM   32  C   UNL     1      43.955 -21.077   3.920  1.00  0.00     0.352 A 
HETATM   33  C   UNL     1      43.673 -16.615   4.160  1.00  0.00     0.012 A 
ENDBRANCH  24  25
ENDBRANCH  21  24
ENDBRANCH  17  20
ENDBRANCH  13  14
ENDBRANCH   8  13
BRANCH   5  34
HETATM   34  C   UNL     1      38.990  -8.883  10.389  1.00  0.00     0.237 C 
BRANCH  34  35
HETATM   35  C   UNL     1      38.895  -7.474  10.986  1.00  0.00     0.240 C 
HETATM   36  N   UNL     1      38.226  -7.417  12.195  1.00  0.00    -0.326 N 
HETATM   37  H   UNL     1      37.905  -8.304  12.567  1.00  0.00     0.169 HD
HETATM   38  O   UNL     1      39.303  -6.511  10.340  1.00  0.00    -0.271 OA
BRANCH  36  39
HETATM   39  C   UNL     1      37.893  -6.269  12.944  1.00  0.00     0.036 A 
HETATM   40  C   UNL     1      37.199  -5.172  12.431  1.00  0.00     0.053 A 
HETATM   41  C   UNL     1      36.892  -4.088  13.257  1.00  0.00     0.036 A 
HETATM   42 CL   UNL     1      36.013  -2.750  12.623  1.00  0.00    -0.084 Cl
HETATM   43  C   UNL     1      37.283  -4.077  14.594  1.00  0.00     0.024 A 
HETATM   44  C   UNL     1      37.983  -5.163  15.112  1.00  0.00     0.004 A 
HETATM   45  C   UNL     1      38.281  -6.255  14.291  1.00  0.00     0.029 A 
ENDBRANCH  36  39
ENDBRANCH  34  35
ENDBRANCH   5  34
TORSDOF 8
ENDMDL
MODEL 10
REMARK VINA RESULT:      -8.5      3.125      9.436
REMARK  8 active torsions:
REMARK  status: ('A' for Active; 'I' for Inactive)
REMARK    1  A    between atoms: N_5  and  C_6 
REMARK    2  A    between atoms: C_6  and  C_7 
REMARK       I    between atoms: C_7  and  N_8 
REMARK    3  A    between atoms: N_8  and  C_9 
REMARK    4  A    between atoms: N_19  and  C_20 
REMARK    5  A    between atoms: C_20  and  C_21 
REMARK    6  A    between atoms: C_24  and  C_25 
REMARK       I    between atoms: C_25  and  N_26 
REMARK    7  A    between atoms: N_26  and  C_27 
REMARK    8  A    between atoms: C_27  and  C_28 
ROOT
HETATM    1  C   UNL     1      41.187  -9.166  -0.984  1.00  0.00     0.001 A 
HETATM    2  C   UNL     1      40.640  -9.136   0.295  1.00  0.00     0.019 A 
HETATM    3  C   UNL     1      40.390 -10.336   0.979  1.00  0.00     0.059 A 
HETATM    4  C   UNL     1      40.686 -11.571   0.406  1.00  0.00     0.055 A 
HETATM    5  N   UNL     1      40.413 -12.761   1.135  1.00  0.00    -0.290 N 
HETATM    6  C   UNL     1      39.773 -12.739   2.367  1.00  0.00     0.332 C 
HETATM    7  O   UNL     1      39.376 -13.786   2.883  1.00  0.00    -0.246 OA
HETATM    8  N   UNL     1      39.560 -11.501   2.950  1.00  0.00    -0.261 N 
HETATM    9  C   UNL     1      39.816 -10.285   2.332  1.00  0.00     0.264 C 
HETATM   10  O   UNL     1      39.578  -9.193   2.843  1.00  0.00    -0.267 OA
HETATM   11  C   UNL     1      41.232 -11.584  -0.888  1.00  0.00     0.031 A 
HETATM   12  C   UNL     1      41.481 -10.389  -1.575  1.00  0.00     0.002 A 
ENDROOT
BRANCH   8  13
HETATM   13  C   UNL     1      38.997 -11.469   4.295  1.00  0.00     0.175 C 
BRANCH  13  14
HETATM   14  C   UNL     1      40.009 -11.006   5.325  1.00  0.00    -0.040 A 
HETATM   15  C   UNL     1      39.727  -9.927   6.174  1.00  0.00     0.010 A 
HETATM   16  C   UNL     1      40.660  -9.495   7.128  1.00  0.00     0.017 A 
HETATM   17  C   UNL     1      41.895 -10.141   7.249  1.00  0.00     0.032 A 
HETATM   18  C   UNL     1      42.177 -11.221   6.397  1.00  0.00     0.017 A 
HETATM   19  C   UNL     1      41.248 -11.645   5.442  1.00  0.00     0.010 A 
BRANCH  17  20
HETATM   20  C   UNL     1      42.948  -9.748   8.238  1.00  0.00     0.251 C 
HETATM   21  N   UNL     1      42.658  -9.877   9.580  1.00  0.00    -0.353 N 
HETATM   22  H   UNL     1      41.813 -10.323   9.898  1.00  0.00     0.163 HD
HETATM   23  O   UNL     1      44.022  -9.311   7.838  1.00  0.00    -0.268 OA
BRANCH  21  24
HETATM   24  C   UNL     1      43.633  -9.519  10.589  1.00  0.00     0.161 C 
BRANCH  24  25
HETATM   25  C   UNL     1      42.999  -9.219  11.929  1.00  0.00    -0.038 A 
HETATM   26  C   UNL     1      43.508  -8.171  12.715  1.00  0.00     0.048 A 
HETATM   27  C   UNL     1      42.863  -7.866  13.897  1.00  0.00     0.105 A 
HETATM   28  C   UNL     1      41.751  -8.556  14.316  1.00  0.00     0.105 A 
HETATM   29  O   UNL     1      43.215  -6.876  14.761  1.00  0.00    -0.323 OA
HETATM   30  O   UNL     1      41.265  -8.090  15.497  1.00  0.00    -0.323 OA
HETATM   31  C   UNL     1      41.217  -9.585  13.574  1.00  0.00     0.040 A 
HETATM   32  C   UNL     1      42.177  -7.002  15.754  1.00  0.00     0.352 A 
HETATM   33  C   UNL     1      41.841  -9.907  12.363  1.00  0.00     0.012 A 
ENDBRANCH  24  25
ENDBRANCH  21  24
ENDBRANCH  17  20
ENDBRANCH  13  14
ENDBRANCH   8  13
BRANCH   5  34
HETATM   34  C   UNL     1      40.838 -14.066   0.609  1.00  0.00     0.237 C 
BRANCH  34  35
HETATM   35  C   UNL     1      41.963 -14.752   1.393  1.00  0.00     0.240 C 
HETATM   36  N   UNL     1      41.642 -16.018   1.848  1.00  0.00    -0.326 N 
HETATM   37  H   UNL     1      40.726 -16.365   1.589  1.00  0.00     0.169 HD
HETATM   38  O   UNL     1      42.991 -14.130   1.652  1.00  0.00    -0.271 OA
BRANCH  36  39
HETATM   39  C   UNL     1      42.418 -16.861   2.671  1.00  0.00     0.036 A 
HETATM   40  C   UNL     1      42.788 -18.164   2.332  1.00  0.00     0.053 A 
HETATM   41  C   UNL     1      43.581 -18.916   3.202  1.00  0.00     0.036 A 
HETATM   42 CL   UNL     1      44.054 -20.514   2.765  1.00  0.00    -0.084 Cl
HETATM   43  C   UNL     1      44.003 -18.387   4.420  1.00  0.00     0.024 A 
HETATM   44  C   UNL     1      43.633 -17.092   4.769  1.00  0.00     0.004 A 
HETATM   45  C   UNL     1      42.849 -16.332   3.896  1.00  0.00     0.029 A 
ENDBRANCH  36  39
ENDBRANCH  34  35
ENDBRANCH   5  34
TORSDOF 8
ENDMDL
