MODEL 1
REMARK VINA RESULT:      -8.1      0.000      0.000
REMARK  6 active torsions:
REMARK  status: ('A' for Active; 'I' for Inactive)
REMARK    1  A    between atoms: C_6  and  O_7 
REMARK    2  A    between atoms: C_8  and  C_9 
REMARK    3  A    between atoms: C_9  and  N_10 
REMARK    4  A    between atoms: N_10  and  C_12 
REMARK    5  A    between atoms: C_12  and  C_13 
REMARK    6  A    between atoms: C_12  and  C_16 
REMARK       I    between atoms: C_13  and  N_14 
ROOT
HETATM    1  N   UNL     1      40.966 -14.712   2.279  1.00  0.00    -0.054 N 
HETATM    2  H   UNL     1      41.271 -14.519   3.245  1.00  0.00     0.281 HD
HETATM    3  C   UNL     1      39.854 -15.717   2.346  1.00  0.00     0.271 C 
ENDROOT
BRANCH   1   4
HETATM    4  C   UNL     1      42.213 -15.289   1.640  1.00  0.00     0.277 C 
BRANCH   4   5
HETATM    5  C   UNL     1      42.802 -16.418   2.449  1.00  0.00     0.001 A 
HETATM    6  C   UNL     1      43.251 -16.210   3.755  1.00  0.00     0.074 A 
HETATM    7  C   UNL     1      43.774 -17.253   4.514  1.00  0.00     0.044 A 
HETATM    8  C   UNL     1      43.849 -18.548   3.977  1.00  0.00    -0.053 A 
HETATM    9  C   UNL     1      43.417 -18.775   2.655  1.00  0.00    -0.055 A 
HETATM   10  C   UNL     1      44.401 -19.666   4.822  1.00  0.00     0.049 C 
HETATM   11  C   UNL     1      43.456 -20.150   2.041  1.00  0.00     0.049 C 
HETATM   12  C   UNL     1      42.896 -17.707   1.905  1.00  0.00     0.019 A 
BRANCH   6  13
HETATM   13  O   UNL     1      43.116 -14.958   4.292  1.00  0.00    -0.360 OA
HETATM   14  H   UNL     1      42.211 -14.891   4.660  1.00  0.00     0.217 HD
ENDBRANCH   6  13
ENDBRANCH   4   5
ENDBRANCH   1   4
BRANCH   1  15
HETATM   15  C   UNL     1      40.502 -13.370   1.696  1.00  0.00     0.312 C 
BRANCH  15  16
HETATM   16  C   UNL     1      39.273 -12.750   2.419  1.00  0.00     0.251 C 
HETATM   17  N   UNL     1      38.230 -12.346   1.632  1.00  0.00    -0.368 N 
HETATM   18  H   UNL     1      38.107 -12.626   0.665  1.00  0.00     0.159 HD
HETATM   19  H   UNL     1      37.408 -11.976   2.102  1.00  0.00     0.159 HD
HETATM   20  O   UNL     1      39.228 -12.573   3.633  1.00  0.00    -0.271 OA
ENDBRANCH  15  16
BRANCH  15  21
HETATM   21  C   UNL     1      40.371 -13.411   0.181  1.00  0.00    -0.016 A 
HETATM   22  C   UNL     1      39.665 -14.470  -0.418  1.00  0.00     0.052 A 
HETATM   23  C   UNL     1      39.529 -14.532  -1.802  1.00  0.00     0.117 A 
HETATM   24  F   UNL     1      38.856 -15.554  -2.346  1.00  0.00    -0.206 F 
HETATM   25  C   UNL     1      40.079 -13.557  -2.619  1.00  0.00     0.042 A 
HETATM   26  C   UNL     1      40.771 -12.494  -2.043  1.00  0.00     0.004 A 
HETATM   27  C   UNL     1      40.912 -12.416  -0.654  1.00  0.00     0.010 A 
ENDBRANCH  15  21
ENDBRANCH   1  15
TORSDOF 6
ENDMDL
MODEL 2
REMARK VINA RESULT:      -8.0      1.300      1.640
REMARK  6 active torsions:
REMARK  status: ('A' for Active; 'I' for Inactive)
REMARK    1  A    between atoms: C_6  and  O_7 
REMARK    2  A    between atoms: C_8  and  C_9 
REMARK    3  A    between atoms: C_9  and  N_10 
REMARK    4  A    between atoms: N_10  and  C_12 
REMARK    5  A    between atoms: C_12  and  C_13 
REMARK    6  A    between atoms: C_12  and  C_16 
REMARK       I    between atoms: C_13  and  N_14 
ROOT
HETATM    1  N   UNL     1      41.047 -14.838   2.494  1.00  0.00    -0.054 N 
HETATM    2  H   UNL     1      41.254 -14.738   3.499  1.00  0.00     0.281 HD
HETATM    3  C   UNL     1      39.968 -15.872   2.354  1.00  0.00     0.271 C 
ENDROOT
BRANCH   1   4
HETATM    4  C   UNL     1      42.366 -15.318   1.925  1.00  0.00     0.277 C 
BRANCH   4   5
HETATM    5  C   UNL     1      42.913 -16.511   2.668  1.00  0.00     0.001 A 
HETATM    6  C   UNL     1      43.302 -16.409   4.006  1.00  0.00     0.074 A 
HETATM    7  C   UNL     1      43.786 -17.513   4.703  1.00  0.00     0.044 A 
HETATM    8  C   UNL     1      43.879 -18.762   4.070  1.00  0.00    -0.053 A 
HETATM    9  C   UNL     1      43.507 -18.882   2.716  1.00  0.00    -0.055 A 
HETATM   10  C   UNL     1      44.387 -19.947   4.849  1.00  0.00     0.049 C 
HETATM   11  C   UNL     1      43.568 -20.205   1.999  1.00  0.00     0.049 C 
HETATM   12  C   UNL     1      43.026 -17.754   2.029  1.00  0.00     0.019 A 
BRANCH   6  13
HETATM   13  O   UNL     1      43.149 -15.202   4.633  1.00  0.00    -0.360 OA
HETATM   14  H   UNL     1      44.044 -14.841   4.798  1.00  0.00     0.217 HD
ENDBRANCH   6  13
ENDBRANCH   4   5
ENDBRANCH   1   4
BRANCH   1  15
HETATM   15  C   UNL     1      40.595 -13.456   2.006  1.00  0.00     0.312 C 
BRANCH  15  16
HETATM   16  C   UNL     1      39.371 -12.876   2.770  1.00  0.00     0.251 C 
HETATM   17  N   UNL     1      39.341 -13.061   4.124  1.00  0.00    -0.368 N 
HETATM   18  H   UNL     1      40.146 -13.335   4.677  1.00  0.00     0.159 HD
HETATM   19  H   UNL     1      38.564 -12.650   4.633  1.00  0.00     0.159 HD
HETATM   20  O   UNL     1      38.435 -12.314   2.207  1.00  0.00    -0.271 OA
ENDBRANCH  15  16
BRANCH  15  21
HETATM   21  C   UNL     1      40.463 -13.392   0.491  1.00  0.00    -0.016 A 
HETATM   22  C   UNL     1      41.069 -12.331  -0.206  1.00  0.00     0.052 A 
HETATM   23  C   UNL     1      40.965 -12.248  -1.591  1.00  0.00     0.117 A 
HETATM   24  F   UNL     1      41.548 -11.225  -2.229  1.00  0.00    -0.206 F 
HETATM   25  C   UNL     1      40.269 -13.204  -2.315  1.00  0.00     0.042 A 
HETATM   26  C   UNL     1      39.672 -14.269  -1.643  1.00  0.00     0.004 A 
HETATM   27  C   UNL     1      39.772 -14.367  -0.252  1.00  0.00     0.010 A 
ENDBRANCH  15  21
ENDBRANCH   1  15
TORSDOF 6
ENDMDL
MODEL 3
REMARK VINA RESULT:      -7.9      3.394      4.537
REMARK  6 active torsions:
REMARK  status: ('A' for Active; 'I' for Inactive)
REMARK    1  A    between atoms: C_6  and  O_7 
REMARK    2  A    between atoms: C_8  and  C_9 
REMARK    3  A    between atoms: C_9  and  N_10 
REMARK    4  A    between atoms: N_10  and  C_12 
REMARK    5  A    between atoms: C_12  and  C_13 
REMARK    6  A    between atoms: C_12  and  C_16 
REMARK       I    between atoms: C_13  and  N_14 
ROOT
HETATM    1  N   UNL     1      41.469 -15.083   3.300  1.00  0.00    -0.054 N 
HETATM    2  H   UNL     1      41.518 -15.405   4.278  1.00  0.00     0.281 HD
HETATM    3  C   UNL     1      40.322 -15.796   2.644  1.00  0.00     0.271 C 
ENDROOT
BRANCH   1   4
HETATM    4  C   UNL     1      42.804 -15.521   2.733  1.00  0.00     0.277 C 
BRANCH   4   5
HETATM    5  C   UNL     1      43.227 -16.877   3.242  1.00  0.00     0.001 A 
HETATM    6  C   UNL     1      43.592 -17.063   4.577  1.00  0.00     0.074 A 
HETATM    7  C   UNL     1      43.961 -18.317   5.057  1.00  0.00     0.044 A 
HETATM    8  C   UNL     1      43.960 -19.429   4.200  1.00  0.00    -0.053 A 
HETATM    9  C   UNL     1      43.610 -19.258   2.845  1.00  0.00    -0.055 A 
HETATM   10  C   UNL     1      44.343 -20.780   4.745  1.00  0.00     0.049 C 
HETATM   11  C   UNL     1      43.573 -20.424   1.891  1.00  0.00     0.049 C 
HETATM   12  C   UNL     1      43.246 -17.983   2.381  1.00  0.00     0.019 A 
BRANCH   6  13
HETATM   13  O   UNL     1      43.530 -15.986   5.420  1.00  0.00    -0.360 OA
HETATM   14  H   UNL     1      43.148 -15.239   4.915  1.00  0.00     0.217 HD
ENDBRANCH   6  13
ENDBRANCH   4   5
ENDBRANCH   1   4
BRANCH   1  15
HETATM   15  C   UNL     1      41.255 -13.565   3.354  1.00  0.00     0.312 C 
BRANCH  15  16
HETATM   16  C   UNL     1      40.855 -12.926   1.995  1.00  0.00     0.251 C 
HETATM   17  N   UNL     1      39.742 -12.130   1.987  1.00  0.00    -0.368 N 
HETATM   18  H   UNL     1      39.310 -11.752   2.823  1.00  0.00     0.159 HD
HETATM   19  H   UNL     1      39.499 -11.679   1.110  1.00  0.00     0.159 HD
HETATM   20  O   UNL     1      41.459 -13.143   0.948  1.00  0.00    -0.271 OA
ENDBRANCH  15  16
BRANCH  15  21
HETATM   21  C   UNL     1      42.393 -12.845   4.064  1.00  0.00    -0.016 A 
HETATM   22  C   UNL     1      42.500 -12.943   5.462  1.00  0.00     0.052 A 
HETATM   23  C   UNL     1      43.531 -12.295   6.137  1.00  0.00     0.117 A 
HETATM   24  F   UNL     1      43.607 -12.401   7.469  1.00  0.00    -0.206 F 
HETATM   25  C   UNL     1      44.474 -11.546   5.451  1.00  0.00     0.042 A 
HETATM   26  C   UNL     1      44.391 -11.447   4.064  1.00  0.00     0.004 A 
HETATM   27  C   UNL     1      43.363 -12.096   3.373  1.00  0.00     0.010 A 
ENDBRANCH  15  21
ENDBRANCH   1  15
TORSDOF 6
ENDMDL
MODEL 4
REMARK VINA RESULT:      -7.9      4.080      5.322
REMARK  6 active torsions:
REMARK  status: ('A' for Active; 'I' for Inactive)
REMARK    1  A    between atoms: C_6  and  O_7 
REMARK    2  A    between atoms: C_8  and  C_9 
REMARK    3  A    between atoms: C_9  and  N_10 
REMARK    4  A    between atoms: N_10  and  C_12 
REMARK    5  A    between atoms: C_12  and  C_13 
REMARK    6  A    between atoms: C_12  and  C_16 
REMARK       I    between atoms: C_13  and  N_14 
ROOT
HETATM    1  N   UNL     1      41.791 -15.269   4.311  1.00  0.00    -0.054 N 
HETATM    2  H   UNL     1      41.387 -16.184   4.562  1.00  0.00     0.281 HD
HETATM    3  C   UNL     1      40.866 -14.621   3.322  1.00  0.00     0.271 C 
ENDROOT
BRANCH   1   4
HETATM    4  C   UNL     1      43.116 -15.647   3.681  1.00  0.00     0.277 C 
BRANCH   4   5
HETATM    5  C   UNL     1      43.426 -17.115   3.833  1.00  0.00     0.001 A 
HETATM    6  C   UNL     1      43.852 -17.638   5.056  1.00  0.00     0.074 A 
HETATM    7  C   UNL     1      44.118 -18.996   5.208  1.00  0.00     0.044 A 
HETATM    8  C   UNL     1      43.948 -19.874   4.125  1.00  0.00    -0.053 A 
HETATM    9  C   UNL     1      43.534 -19.363   2.878  1.00  0.00    -0.055 A 
HETATM   10  C   UNL     1      44.222 -21.342   4.317  1.00  0.00     0.049 C 
HETATM   11  C   UNL     1      43.316 -20.267   1.693  1.00  0.00     0.049 C 
HETATM   12  C   UNL     1      43.277 -17.988   2.746  1.00  0.00     0.019 A 
BRANCH   6  13
HETATM   13  O   UNL     1      43.955 -16.785   6.122  1.00  0.00    -0.360 OA
HETATM   14  H   UNL     1      43.108 -16.824   6.612  1.00  0.00     0.217 HD
ENDBRANCH   6  13
ENDBRANCH   4   5
ENDBRANCH   1   4
BRANCH   1  15
HETATM   15  C   UNL     1      41.898 -14.470   5.616  1.00  0.00     0.312 C 
BRANCH  15  16
HETATM   16  C   UNL     1      40.531 -14.043   6.219  1.00  0.00     0.251 C 
HETATM   17  N   UNL     1      40.289 -12.701   6.321  1.00  0.00    -0.368 N 
HETATM   18  H   UNL     1      40.822 -11.990   5.833  1.00  0.00     0.159 HD
HETATM   19  H   UNL     1      39.381 -12.417   6.679  1.00  0.00     0.159 HD
HETATM   20  O   UNL     1      39.703 -14.848   6.640  1.00  0.00    -0.271 OA
ENDBRANCH  15  16
BRANCH  15  21
HETATM   21  C   UNL     1      42.911 -13.337   5.520  1.00  0.00    -0.016 A 
HETATM   22  C   UNL     1      43.751 -13.074   6.617  1.00  0.00     0.052 A 
HETATM   23  C   UNL     1      44.686 -12.045   6.556  1.00  0.00     0.117 A 
HETATM   24  F   UNL     1      45.470 -11.813   7.616  1.00  0.00    -0.206 F 
HETATM   25  C   UNL     1      44.815 -11.261   5.420  1.00  0.00     0.042 A 
HETATM   26  C   UNL     1      43.999 -11.515   4.319  1.00  0.00     0.004 A 
HETATM   27  C   UNL     1      43.058 -12.548   4.364  1.00  0.00     0.010 A 
ENDBRANCH  15  21
ENDBRANCH   1  15
TORSDOF 6
ENDMDL
MODEL 5
REMARK VINA RESULT:      -7.8      2.267      6.648
REMARK  6 active torsions:
REMARK  status: ('A' for Active; 'I' for Inactive)
REMARK    1  A    between atoms: C_6  and  O_7 
REMARK    2  A    between atoms: C_8  and  C_9 
REMARK    3  A    between atoms: C_9  and  N_10 
REMARK    4  A    between atoms: N_10  and  C_12 
REMARK    5  A    between atoms: C_12  and  C_13 
REMARK    6  A    between atoms: C_12  and  C_16 
REMARK       I    between atoms: C_13  and  N_14 
ROOT
HETATM    1  N   UNL     1      41.010 -15.438   3.115  1.00  0.00    -0.054 N 
HETATM    2  H   UNL     1      40.880 -15.965   2.238  1.00  0.00     0.281 HD
HETATM    3  C   UNL     1      40.244 -16.150   4.191  1.00  0.00     0.271 C 
ENDROOT
BRANCH   1   4
HETATM    4  C   UNL     1      40.405 -14.088   2.790  1.00  0.00     0.277 C 
BRANCH   4   5
HETATM    5  C   UNL     1      40.376 -13.813   1.307  1.00  0.00     0.001 A 
HETATM    6  C   UNL     1      39.932 -14.782   0.405  1.00  0.00     0.074 A 
HETATM    7  C   UNL     1      39.882 -14.526  -0.963  1.00  0.00     0.044 A 
HETATM    8  C   UNL     1      40.269 -13.272  -1.461  1.00  0.00    -0.053 A 
HETATM    9  C   UNL     1      40.735 -12.286  -0.568  1.00  0.00    -0.055 A 
HETATM   10  C   UNL     1      40.188 -13.010  -2.942  1.00  0.00     0.049 C 
HETATM   11  C   UNL     1      41.140 -10.918  -1.050  1.00  0.00     0.049 C 
HETATM   12  C   UNL     1      40.782 -12.567   0.808  1.00  0.00     0.019 A 
BRANCH   6  13
HETATM   13  O   UNL     1      39.498 -15.980   0.905  1.00  0.00    -0.360 OA
HETATM   14  H   UNL     1      38.649 -15.817   1.364  1.00  0.00     0.217 HD
ENDBRANCH   6  13
ENDBRANCH   4   5
ENDBRANCH   1   4
BRANCH   1  15
HETATM   15  C   UNL     1      42.520 -15.423   3.390  1.00  0.00     0.312 C 
BRANCH  15  16
HETATM   16  C   UNL     1      43.334 -14.501   2.438  1.00  0.00     0.251 C 
HETATM   17  N   UNL     1      43.767 -15.050   1.263  1.00  0.00    -0.368 N 
HETATM   18  H   UNL     1      43.407 -15.916   0.875  1.00  0.00     0.159 HD
HETATM   19  H   UNL     1      44.266 -14.442   0.620  1.00  0.00     0.159 HD
HETATM   20  O   UNL     1      43.633 -13.344   2.720  1.00  0.00    -0.271 OA
ENDBRANCH  15  16
BRANCH  15  21
HETATM   21  C   UNL     1      43.096 -16.824   3.535  1.00  0.00    -0.016 A 
HETATM   22  C   UNL     1      42.887 -17.760   2.507  1.00  0.00     0.052 A 
HETATM   23  C   UNL     1      43.404 -19.049   2.613  1.00  0.00     0.117 A 
HETATM   24  F   UNL     1      43.186 -19.922   1.622  1.00  0.00    -0.206 F 
HETATM   25  C   UNL     1      44.135 -19.437   3.724  1.00  0.00     0.042 A 
HETATM   26  C   UNL     1      44.362 -18.518   4.747  1.00  0.00     0.004 A 
HETATM   27  C   UNL     1      43.853 -17.220   4.652  1.00  0.00     0.010 A 
ENDBRANCH  15  21
ENDBRANCH   1  15
TORSDOF 6
ENDMDL
MODEL 6
REMARK VINA RESULT:      -7.8      4.099      6.796
REMARK  6 active torsions:
REMARK  status: ('A' for Active; 'I' for Inactive)
REMARK    1  A    between atoms: C_6  and  O_7 
REMARK    2  A    between atoms: C_8  and  C_9 
REMARK    3  A    between atoms: C_9  and  N_10 
REMARK    4  A    between atoms: N_10  and  C_12 
REMARK    5  A    between atoms: C_12  and  C_13 
REMARK    6  A    between atoms: C_12  and  C_16 
REMARK       I    between atoms: C_13  and  N_14 
ROOT
HETATM    1  N   UNL     1      42.688 -14.173   3.953  1.00  0.00    -0.054 N 
HETATM    2  H   UNL     1      43.497 -14.549   4.470  1.00  0.00     0.281 HD
HETATM    3  C   UNL     1      43.189 -13.073   3.063  1.00  0.00     0.271 C 
ENDROOT
BRANCH   1   4
HETATM    4  C   UNL     1      41.799 -13.643   5.060  1.00  0.00     0.277 C 
BRANCH   4   5
HETATM    5  C   UNL     1      42.490 -12.601   5.903  1.00  0.00     0.001 A 
HETATM    6  C   UNL     1      43.653 -12.906   6.614  1.00  0.00     0.074 A 
HETATM    7  C   UNL     1      44.307 -11.942   7.376  1.00  0.00     0.044 A 
HETATM    8  C   UNL     1      43.811 -10.629   7.431  1.00  0.00    -0.053 A 
HETATM    9  C   UNL     1      42.630 -10.306   6.733  1.00  0.00    -0.055 A 
HETATM   10  C   UNL     1      44.547  -9.597   8.245  1.00  0.00     0.049 C 
HETATM   11  C   UNL     1      42.070  -8.907   6.743  1.00  0.00     0.049 C 
HETATM   12  C   UNL     1      41.983 -11.296   5.975  1.00  0.00     0.019 A 
BRANCH   6  13
HETATM   13  O   UNL     1      44.164 -14.171   6.505  1.00  0.00    -0.360 OA
HETATM   14  H   UNL     1      44.490 -14.278   5.588  1.00  0.00     0.217 HD
ENDBRANCH   6  13
ENDBRANCH   4   5
ENDBRANCH   1   4
BRANCH   1  15
HETATM   15  C   UNL     1      42.101 -15.344   3.156  1.00  0.00     0.312 C 
BRANCH  15  16
HETATM   16  C   UNL     1      40.556 -15.481   3.262  1.00  0.00     0.251 C 
HETATM   17  N   UNL     1      40.070 -16.235   4.294  1.00  0.00    -0.368 N 
HETATM   18  H   UNL     1      40.616 -16.509   5.103  1.00  0.00     0.159 HD
HETATM   19  H   UNL     1      39.060 -16.296   4.390  1.00  0.00     0.159 HD
HETATM   20  O   UNL     1      39.782 -14.988   2.446  1.00  0.00    -0.271 OA
ENDBRANCH  15  16
BRANCH  15  21
HETATM   21  C   UNL     1      42.854 -16.645   3.398  1.00  0.00    -0.016 A 
HETATM   22  C   UNL     1      42.819 -17.650   2.415  1.00  0.00     0.052 A 
HETATM   23  C   UNL     1      43.499 -18.849   2.610  1.00  0.00     0.117 A 
HETATM   24  F   UNL     1      43.446 -19.791   1.661  1.00  0.00    -0.206 F 
HETATM   25  C   UNL     1      44.225 -19.079   3.768  1.00  0.00     0.042 A 
HETATM   26  C   UNL     1      44.281 -18.090   4.748  1.00  0.00     0.004 A 
HETATM   27  C   UNL     1      43.606 -16.879   4.563  1.00  0.00     0.010 A 
ENDBRANCH  15  21
ENDBRANCH   1  15
TORSDOF 6
ENDMDL
MODEL 7
REMARK VINA RESULT:      -7.8      1.908      2.311
REMARK  6 active torsions:
REMARK  status: ('A' for Active; 'I' for Inactive)
REMARK    1  A    between atoms: C_6  and  O_7 
REMARK    2  A    between atoms: C_8  and  C_9 
REMARK    3  A    between atoms: C_9  and  N_10 
REMARK    4  A    between atoms: N_10  and  C_12 
REMARK    5  A    between atoms: C_12  and  C_13 
REMARK    6  A    between atoms: C_12  and  C_16 
REMARK       I    between atoms: C_13  and  N_14 
ROOT
HETATM    1  N   UNL     1      41.389 -15.122   3.012  1.00  0.00    -0.054 N 
HETATM    2  H   UNL     1      41.368 -15.558   3.947  1.00  0.00     0.281 HD
HETATM    3  C   UNL     1      40.230 -15.669   2.231  1.00  0.00     0.271 C 
ENDROOT
BRANCH   1   4
HETATM    4  C   UNL     1      42.718 -15.586   2.453  1.00  0.00     0.277 C 
BRANCH   4   5
HETATM    5  C   UNL     1      43.193 -16.868   3.091  1.00  0.00     0.001 A 
HETATM    6  C   UNL     1      43.551 -16.910   4.440  1.00  0.00     0.074 A 
HETATM    7  C   UNL     1      43.969 -18.095   5.039  1.00  0.00     0.044 A 
HETATM    8  C   UNL     1      44.026 -19.282   4.292  1.00  0.00    -0.053 A 
HETATM    9  C   UNL     1      43.685 -19.257   2.924  1.00  0.00    -0.055 A 
HETATM   10  C   UNL     1      44.462 -20.557   4.965  1.00  0.00     0.049 C 
HETATM   11  C   UNL     1      43.709 -20.508   2.085  1.00  0.00     0.049 C 
HETATM   12  C   UNL     1      43.271 -18.049   2.338  1.00  0.00     0.019 A 
BRANCH   6  13
HETATM   13  O   UNL     1      43.432 -15.762   5.176  1.00  0.00    -0.360 OA
HETATM   14  H   UNL     1      43.006 -15.090   4.606  1.00  0.00     0.217 HD
ENDBRANCH   6  13
ENDBRANCH   4   5
ENDBRANCH   1   4
BRANCH   1  15
HETATM   15  C   UNL     1      41.274 -13.609   3.239  1.00  0.00     0.312 C 
BRANCH  15  16
HETATM   16  C   UNL     1      40.762 -13.210   4.651  1.00  0.00     0.251 C 
HETATM   17  N   UNL     1      39.979 -14.119   5.307  1.00  0.00    -0.368 N 
HETATM   18  H   UNL     1      39.903 -15.096   5.045  1.00  0.00     0.159 HD
HETATM   19  H   UNL     1      39.674 -13.879   6.246  1.00  0.00     0.159 HD
HETATM   20  O   UNL     1      40.993 -12.118   5.164  1.00  0.00    -0.271 OA
ENDBRANCH  15  16
BRANCH  15  21
HETATM   21  C   UNL     1      40.550 -12.906   2.099  1.00  0.00    -0.016 A 
HETATM   22  C   UNL     1      41.217 -12.721   0.875  1.00  0.00     0.052 A 
HETATM   23  C   UNL     1      40.579 -12.081  -0.184  1.00  0.00     0.117 A 
HETATM   24  F   UNL     1      41.238 -11.913  -1.337  1.00  0.00    -0.206 F 
HETATM   25  C   UNL     1      39.278 -11.619  -0.062  1.00  0.00     0.042 A 
HETATM   26  C   UNL     1      38.598 -11.805   1.140  1.00  0.00     0.004 A 
HETATM   27  C   UNL     1      39.225 -12.449   2.211  1.00  0.00     0.010 A 
ENDBRANCH  15  21
ENDBRANCH   1  15
TORSDOF 6
ENDMDL
MODEL 8
REMARK VINA RESULT:      -7.7      4.212      5.558
REMARK  6 active torsions:
REMARK  status: ('A' for Active; 'I' for Inactive)
REMARK    1  A    between atoms: C_6  and  O_7 
REMARK    2  A    between atoms: C_8  and  C_9 
REMARK    3  A    between atoms: C_9  and  N_10 
REMARK    4  A    between atoms: N_10  and  C_12 
REMARK    5  A    between atoms: C_12  and  C_13 
REMARK    6  A    between atoms: C_12  and  C_16 
REMARK       I    between atoms: C_13  and  N_14 
ROOT
HETATM    1  N   UNL     1      42.038 -14.020   4.482  1.00  0.00    -0.054 N 
HETATM    2  H   UNL     1      42.491 -14.217   5.387  1.00  0.00     0.281 HD
HETATM    3  C   UNL     1      40.707 -14.714   4.481  1.00  0.00     0.271 C 
ENDROOT
BRANCH   1   4
HETATM    4  C   UNL     1      42.997 -14.636   3.484  1.00  0.00     0.277 C 
BRANCH   4   5
HETATM    5  C   UNL     1      43.351 -16.061   3.831  1.00  0.00     0.001 A 
HETATM    6  C   UNL     1      43.810 -16.398   5.106  1.00  0.00     0.074 A 
HETATM    7  C   UNL     1      44.116 -17.714   5.439  1.00  0.00     0.044 A 
HETATM    8  C   UNL     1      43.955 -18.738   4.491  1.00  0.00    -0.053 A 
HETATM    9  C   UNL     1      43.508 -18.416   3.194  1.00  0.00    -0.055 A 
HETATM   10  C   UNL     1      44.274 -20.158   4.879  1.00  0.00     0.049 C 
HETATM   11  C   UNL     1      43.299 -19.480   2.149  1.00  0.00     0.049 C 
HETATM   12  C   UNL     1      43.210 -17.080   2.878  1.00  0.00     0.019 A 
BRANCH   6  13
HETATM   13  O   UNL     1      43.905 -15.403   6.042  1.00  0.00    -0.360 OA
HETATM   14  H   UNL     1      44.828 -15.078   6.034  1.00  0.00     0.217 HD
ENDBRANCH   6  13
ENDBRANCH   4   5
ENDBRANCH   1   4
BRANCH   1  15
HETATM   15  C   UNL     1      41.898 -12.495   4.390  1.00  0.00     0.312 C 
BRANCH  15  16
HETATM   16  C   UNL     1      42.129 -11.916   2.966  1.00  0.00     0.251 C 
HETATM   17  N   UNL     1      41.157 -12.155   2.034  1.00  0.00    -0.368 N 
HETATM   18  H   UNL     1      40.220 -12.472   2.260  1.00  0.00     0.159 HD
HETATM   19  H   UNL     1      41.284 -11.745   1.113  1.00  0.00     0.159 HD
HETATM   20  O   UNL     1      43.148 -11.308   2.647  1.00  0.00    -0.271 OA
ENDBRANCH  15  16
BRANCH  15  21
HETATM   21  C   UNL     1      42.677 -11.776   5.483  1.00  0.00    -0.016 A 
HETATM   22  C   UNL     1      44.063 -11.987   5.588  1.00  0.00     0.052 A 
HETATM   23  C   UNL     1      44.800 -11.342   6.578  1.00  0.00     0.117 A 
HETATM   24  F   UNL     1      46.118 -11.565   6.659  1.00  0.00    -0.206 F 
HETATM   25  C   UNL     1      44.191 -10.478   7.474  1.00  0.00     0.042 A 
HETATM   26  C   UNL     1      42.821 -10.247   7.377  1.00  0.00     0.004 A 
HETATM   27  C   UNL     1      42.069 -10.885   6.385  1.00  0.00     0.010 A 
ENDBRANCH  15  21
ENDBRANCH   1  15
TORSDOF 6
ENDMDL
MODEL 9
REMARK VINA RESULT:      -7.7      3.552      6.393
REMARK  6 active torsions:
REMARK  status: ('A' for Active; 'I' for Inactive)
REMARK    1  A    between atoms: C_6  and  O_7 
REMARK    2  A    between atoms: C_8  and  C_9 
REMARK    3  A    between atoms: C_9  and  N_10 
REMARK    4  A    between atoms: N_10  and  C_12 
REMARK    5  A    between atoms: C_12  and  C_13 
REMARK    6  A    between atoms: C_12  and  C_16 
REMARK       I    between atoms: C_13  and  N_14 
ROOT
HETATM    1  N   UNL     1      42.752 -14.655   2.826  1.00  0.00    -0.054 N 
HETATM    2  H   UNL     1      43.270 -14.666   3.717  1.00  0.00     0.281 HD
HETATM    3  C   UNL     1      43.760 -14.648   1.714  1.00  0.00     0.271 C 
ENDROOT
BRANCH   1   4
HETATM    4  C   UNL     1      41.983 -13.352   2.898  1.00  0.00     0.277 C 
BRANCH   4   5
HETATM    5  C   UNL     1      42.300 -12.567   4.147  1.00  0.00     0.001 A 
HETATM    6  C   UNL     1      41.286 -12.152   5.013  1.00  0.00     0.074 A 
HETATM    7  C   UNL     1      41.575 -11.447   6.178  1.00  0.00     0.044 A 
HETATM    8  C   UNL     1      42.906 -11.149   6.510  1.00  0.00    -0.053 A 
HETATM    9  C   UNL     1      43.943 -11.544   5.641  1.00  0.00    -0.055 A 
HETATM   10  C   UNL     1      43.198 -10.402   7.786  1.00  0.00     0.049 C 
HETATM   11  C   UNL     1      45.388 -11.267   5.964  1.00  0.00     0.049 C 
HETATM   12  C   UNL     1      43.628 -12.250   4.468  1.00  0.00     0.019 A 
BRANCH   6  13
HETATM   13  O   UNL     1      39.997 -12.501   4.713  1.00  0.00    -0.360 OA
HETATM   14  H   UNL     1      39.842 -12.274   3.773  1.00  0.00     0.217 HD
ENDBRANCH   6  13
ENDBRANCH   4   5
ENDBRANCH   1   4
BRANCH   1  15
HETATM   15  C   UNL     1      41.884 -15.920   2.815  1.00  0.00     0.312 C 
BRANCH  15  16
HETATM   16  C   UNL     1      40.559 -15.794   3.617  1.00  0.00     0.251 C 
HETATM   17  N   UNL     1      39.396 -15.770   2.897  1.00  0.00    -0.368 N 
HETATM   18  H   UNL     1      39.326 -16.055   1.926  1.00  0.00     0.159 HD
HETATM   19  H   UNL     1      38.526 -15.727   3.418  1.00  0.00     0.159 HD
HETATM   20  O   UNL     1      40.524 -15.670   4.839  1.00  0.00    -0.271 OA
ENDBRANCH  15  16
BRANCH  15  21
HETATM   21  C   UNL     1      42.684 -17.174   3.139  1.00  0.00    -0.016 A 
HETATM   22  C   UNL     1      42.693 -18.237   2.218  1.00  0.00     0.052 A 
HETATM   23  C   UNL     1      43.416 -19.396   2.488  1.00  0.00     0.117 A 
HETATM   24  F   UNL     1      43.404 -20.395   1.597  1.00  0.00    -0.206 F 
HETATM   25  C   UNL     1      44.144 -19.528   3.660  1.00  0.00     0.042 A 
HETATM   26  C   UNL     1      44.156 -18.480   4.579  1.00  0.00     0.004 A 
HETATM   27  C   UNL     1      43.438 -17.308   4.319  1.00  0.00     0.010 A 
ENDBRANCH  15  21
ENDBRANCH   1  15
TORSDOF 6
ENDMDL
MODEL 10
REMARK VINA RESULT:      -7.6      3.555      4.560
REMARK  6 active torsions:
REMARK  status: ('A' for Active; 'I' for Inactive)
REMARK    1  A    between atoms: C_6  and  O_7 
REMARK    2  A    between atoms: C_8  and  C_9 
REMARK    3  A    between atoms: C_9  and  N_10 
REMARK    4  A    between atoms: N_10  and  C_12 
REMARK    5  A    between atoms: C_12  and  C_13 
REMARK    6  A    between atoms: C_12  and  C_16 
REMARK       I    between atoms: C_13  and  N_14 
ROOT
HETATM    1  N   UNL     1      41.947 -14.373   3.785  1.00  0.00    -0.054 N 
HETATM    2  H   UNL     1      42.129 -14.746   4.729  1.00  0.00     0.281 HD
HETATM    3  C   UNL     1      40.563 -14.797   3.388  1.00  0.00     0.271 C 
ENDROOT
BRANCH   1   4
HETATM    4  C   UNL     1      43.009 -15.052   2.945  1.00  0.00     0.277 C 
BRANCH   4   5
HETATM    5  C   UNL     1      43.345 -16.433   3.449  1.00  0.00     0.001 A 
HETATM    6  C   UNL     1      43.695 -16.646   4.785  1.00  0.00     0.074 A 
HETATM    7  C   UNL     1      43.984 -17.922   5.261  1.00  0.00     0.044 A 
HETATM    8  C   UNL     1      43.915 -19.029   4.400  1.00  0.00    -0.053 A 
HETATM    9  C   UNL     1      43.581 -18.833   3.045  1.00  0.00    -0.055 A 
HETATM   10  C   UNL     1      44.213 -20.403   4.942  1.00  0.00     0.049 C 
HETATM   11  C   UNL     1      43.473 -19.991   2.088  1.00  0.00     0.049 C 
HETATM   12  C   UNL     1      43.298 -17.536   2.585  1.00  0.00     0.019 A 
BRANCH   6  13
HETATM   13  O   UNL     1      43.698 -15.570   5.631  1.00  0.00    -0.360 OA
HETATM   14  H   UNL     1      44.469 -15.014   5.397  1.00  0.00     0.217 HD
ENDBRANCH   6  13
ENDBRANCH   4   5
ENDBRANCH   1   4
BRANCH   1  15
HETATM   15  C   UNL     1      42.081 -12.848   3.890  1.00  0.00     0.312 C 
BRANCH  15  16
HETATM   16  C   UNL     1      43.447 -12.363   4.452  1.00  0.00     0.251 C 
HETATM   17  N   UNL     1      44.217 -11.590   3.627  1.00  0.00    -0.368 N 
HETATM   18  H   UNL     1      43.870 -11.132   2.791  1.00  0.00     0.159 HD
HETATM   19  H   UNL     1      45.093 -11.237   4.003  1.00  0.00     0.159 HD
HETATM   20  O   UNL     1      43.866 -12.680   5.562  1.00  0.00    -0.271 OA
ENDBRANCH  15  16
BRANCH  15  21
HETATM   21  C   UNL     1      40.875 -12.206   4.561  1.00  0.00    -0.016 A 
HETATM   22  C   UNL     1      40.061 -11.333   3.816  1.00  0.00     0.052 A 
HETATM   23  C   UNL     1      38.952 -10.732   4.404  1.00  0.00     0.117 A 
HETATM   24  F   UNL     1      38.197  -9.901   3.675  1.00  0.00    -0.206 F 
HETATM   25  C   UNL     1      38.620 -10.981   5.727  1.00  0.00     0.042 A 
HETATM   26  C   UNL     1      39.408 -11.852   6.476  1.00  0.00     0.004 A 
HETATM   27  C   UNL     1      40.523 -12.467   5.898  1.00  0.00     0.010 A 
ENDBRANCH  15  21
ENDBRANCH   1  15
TORSDOF 6
ENDMDL
