MODEL 1
REMARK VINA RESULT:      -9.6      0.000      0.000
REMARK  3 active torsions:
REMARK  status: ('A' for Active; 'I' for Inactive)
REMARK    1  A    between atoms: C_4  and  N_5 
REMARK       I    between atoms: N_5  and  C_6 
REMARK       I    between atoms: C_6  and  N_7 
REMARK    2  A    between atoms: C_10  and  C_11 
REMARK    3  A    between atoms: C_24  and  O_25 
ROOT
HETATM    1  N   UNL     1      39.225 -12.964   0.609  1.00  0.00    -0.306 N 
HETATM    2  C   UNL     1      40.584 -12.833   0.755  1.00  0.00     0.323 C 
HETATM    3  N   UNL     1      41.158 -13.792   1.599  1.00  0.00    -0.330 N 
HETATM    4  C   UNL     1      42.599 -13.647   1.779  1.00  0.00     0.155 C 
HETATM    5  C   UNL     1      43.200 -14.722   2.629  1.00  0.00     0.001 C 
HETATM    6  C   UNL     1      42.526 -15.770   3.132  1.00  0.00    -0.046 C 
HETATM    7  C   UNL     1      41.054 -15.931   2.875  1.00  0.00     0.059 C 
HETATM    8  C   UNL     1      40.628 -15.160   1.627  1.00  0.00     0.132 C 
HETATM    9  O   UNL     1      41.256 -11.958   0.211  1.00  0.00    -0.247 OA
HETATM   10  H   UNL     1      38.716 -13.232   1.440  1.00  0.00     0.171 HD
ENDROOT
BRANCH   1  11
HETATM   11  C   UNL     1      38.431 -12.418  -0.421  1.00  0.00     0.070 A 
HETATM   12  C   UNL     1      37.830 -11.160  -0.309  1.00  0.00     0.039 A 
HETATM   13  C   UNL     1      37.116 -10.613  -1.381  1.00  0.00    -0.060 A 
HETATM   14  C   UNL     1      36.511  -9.244  -1.278  1.00  0.00     0.048 C 
HETATM   15  C   UNL     1      37.008 -11.341  -2.571  1.00  0.00     0.009 A 
HETATM   16  C   UNL     1      37.601 -12.602  -2.689  1.00  0.00     0.039 A 
HETATM   17  C   UNL     1      38.311 -13.148  -1.617  1.00  0.00     0.095 A 
BRANCH  17  18
HETATM   18  O   UNL     1      38.940 -14.372  -1.644  1.00  0.00    -0.354 OA
HETATM   19  C   UNL     1      38.720 -15.158  -2.811  1.00  0.00     0.210 C 
ENDBRANCH  17  18
ENDBRANCH   1  11
BRANCH   6  20
HETATM   20  C   UNL     1      43.140 -16.841   3.845  1.00  0.00    -0.002 A 
HETATM   21  C   UNL     1      43.317 -18.185   3.396  1.00  0.00     0.003 A 
HETATM   22  C   UNL     1      43.947 -18.880   4.431  1.00  0.00     0.043 A 
HETATM   23  C   UNL     1      42.989 -18.888   2.217  1.00  0.00     0.014 A 
HETATM   24  C   UNL     1      44.269 -20.240   4.342  1.00  0.00     0.030 A 
HETATM   25  N   UNL     1      44.146 -17.984   5.458  1.00  0.00    -0.364 N 
HETATM   26  C   UNL     1      43.934 -20.911   3.161  1.00  0.00     0.002 A 
HETATM   27  C   UNL     1      43.303 -20.247   2.111  1.00  0.00     0.001 A 
HETATM   28  H   UNL     1      44.587 -18.213   6.337  1.00  0.00     0.165 HD
HETATM   29  C   UNL     1      43.652 -16.751   5.120  1.00  0.00     0.101 A 
ENDBRANCH   6  20
TORSDOF 3
ENDMDL
MODEL 2
REMARK VINA RESULT:      -9.4      2.186      2.478
REMARK  3 active torsions:
REMARK  status: ('A' for Active; 'I' for Inactive)
REMARK    1  A    between atoms: C_4  and  N_5 
REMARK       I    between atoms: N_5  and  C_6 
REMARK       I    between atoms: C_6  and  N_7 
REMARK    2  A    between atoms: C_10  and  C_11 
REMARK    3  A    between atoms: C_24  and  O_25 
ROOT
HETATM    1  N   UNL     1      41.282 -12.789  -0.695  1.00  0.00    -0.306 N 
HETATM    2  C   UNL     1      40.474 -13.281   0.301  1.00  0.00     0.323 C 
HETATM    3  N   UNL     1      41.073 -14.285   1.073  1.00  0.00    -0.330 N 
HETATM    4  C   UNL     1      40.213 -14.830   2.118  1.00  0.00     0.155 C 
HETATM    5  C   UNL     1      40.898 -15.851   2.973  1.00  0.00     0.001 C 
HETATM    6  C   UNL     1      42.189 -16.202   2.864  1.00  0.00    -0.046 C 
HETATM    7  C   UNL     1      43.070 -15.575   1.821  1.00  0.00     0.059 C 
HETATM    8  C   UNL     1      42.510 -14.228   1.367  1.00  0.00     0.132 C 
HETATM    9  O   UNL     1      39.325 -12.897   0.510  1.00  0.00    -0.247 OA
HETATM   10  H   UNL     1      41.865 -13.468  -1.166  1.00  0.00     0.171 HD
ENDROOT
BRANCH   1  11
HETATM   11  C   UNL     1      41.128 -11.566  -1.378  1.00  0.00     0.070 A 
HETATM   12  C   UNL     1      41.491 -10.343  -0.804  1.00  0.00     0.039 A 
HETATM   13  C   UNL     1      41.402  -9.154  -1.540  1.00  0.00    -0.060 A 
HETATM   14  C   UNL     1      41.834  -7.850  -0.940  1.00  0.00     0.048 C 
HETATM   15  C   UNL     1      40.943  -9.204  -2.860  1.00  0.00     0.009 A 
HETATM   16  C   UNL     1      40.572 -10.421  -3.440  1.00  0.00     0.039 A 
HETATM   17  C   UNL     1      40.659 -11.605  -2.704  1.00  0.00     0.095 A 
BRANCH  17  18
HETATM   18  O   UNL     1      40.333 -12.851  -3.192  1.00  0.00    -0.354 OA
HETATM   19  C   UNL     1      38.949 -13.183  -3.171  1.00  0.00     0.210 C 
ENDBRANCH  17  18
ENDBRANCH   1  11
BRANCH   6  20
HETATM   20  C   UNL     1      42.848 -17.094   3.761  1.00  0.00    -0.002 A 
HETATM   21  C   UNL     1      43.260 -18.435   3.495  1.00  0.00     0.003 A 
HETATM   22  C   UNL     1      43.843 -18.922   4.667  1.00  0.00     0.043 A 
HETATM   23  C   UNL     1      43.182 -19.293   2.376  1.00  0.00     0.014 A 
HETATM   24  C   UNL     1      44.354 -20.221   4.773  1.00  0.00     0.030 A 
HETATM   25  N   UNL     1      43.788 -17.909   5.598  1.00  0.00    -0.364 N 
HETATM   26  C   UNL     1      44.264 -21.049   3.649  1.00  0.00     0.002 A 
HETATM   27  C   UNL     1      43.687 -20.594   2.466  1.00  0.00     0.001 A 
HETATM   28  H   UNL     1      44.141 -17.981   6.541  1.00  0.00     0.165 HD
HETATM   29  C   UNL     1      43.177 -16.803   5.065  1.00  0.00     0.101 A 
ENDBRANCH   6  20
TORSDOF 3
ENDMDL
MODEL 3
REMARK VINA RESULT:      -9.3      1.968      2.990
REMARK  3 active torsions:
REMARK  status: ('A' for Active; 'I' for Inactive)
REMARK    1  A    between atoms: C_4  and  N_5 
REMARK       I    between atoms: N_5  and  C_6 
REMARK       I    between atoms: C_6  and  N_7 
REMARK    2  A    between atoms: C_10  and  C_11 
REMARK    3  A    between atoms: C_24  and  O_25 
ROOT
HETATM    1  N   UNL     1      41.339 -12.328  -0.640  1.00  0.00    -0.306 N 
HETATM    2  C   UNL     1      40.506 -13.244  -0.046  1.00  0.00     0.323 C 
HETATM    3  N   UNL     1      41.175 -14.195   0.735  1.00  0.00    -0.330 N 
HETATM    4  C   UNL     1      40.300 -15.188   1.351  1.00  0.00     0.155 C 
HETATM    5  C   UNL     1      41.030 -16.150   2.235  1.00  0.00     0.001 C 
HETATM    6  C   UNL     1      42.342 -16.093   2.515  1.00  0.00    -0.046 C 
HETATM    7  C   UNL     1      43.208 -15.019   1.920  1.00  0.00     0.059 C 
HETATM    8  C   UNL     1      42.372 -13.814   1.495  1.00  0.00     0.132 C 
HETATM    9  O   UNL     1      39.284 -13.255  -0.180  1.00  0.00    -0.247 OA
HETATM   10  H   UNL     1      42.221 -12.688  -0.979  1.00  0.00     0.171 HD
ENDROOT
BRANCH   1  11
HETATM   11  C   UNL     1      40.974 -11.070  -1.161  1.00  0.00     0.070 A 
HETATM   12  C   UNL     1      40.259 -10.940  -2.357  1.00  0.00     0.039 A 
HETATM   13  C   UNL     1      39.841  -9.682  -2.806  1.00  0.00    -0.060 A 
HETATM   14  C   UNL     1      39.036  -9.547  -4.064  1.00  0.00     0.048 C 
HETATM   15  C   UNL     1      40.147  -8.550  -2.043  1.00  0.00     0.009 A 
HETATM   16  C   UNL     1      40.866  -8.670  -0.849  1.00  0.00     0.039 A 
HETATM   17  C   UNL     1      41.285  -9.926  -0.404  1.00  0.00     0.095 A 
BRANCH  17  18
HETATM   18  O   UNL     1      41.982 -10.146   0.763  1.00  0.00    -0.354 OA
HETATM   19  C   UNL     1      41.221 -10.069   1.964  1.00  0.00     0.210 C 
ENDBRANCH  17  18
ENDBRANCH   1  11
BRANCH   6  20
HETATM   20  C   UNL     1      42.993 -16.953   3.448  1.00  0.00    -0.002 A 
HETATM   21  C   UNL     1      43.309 -18.335   3.272  1.00  0.00     0.003 A 
HETATM   22  C   UNL     1      43.924 -18.765   4.450  1.00  0.00     0.043 A 
HETATM   23  C   UNL     1      43.119 -19.270   2.232  1.00  0.00     0.014 A 
HETATM   24  C   UNL     1      44.361 -20.082   4.636  1.00  0.00     0.030 A 
HETATM   25  N   UNL     1      43.980 -17.680   5.297  1.00  0.00    -0.364 N 
HETATM   26  C   UNL     1      44.161 -20.988   3.589  1.00  0.00     0.002 A 
HETATM   27  C   UNL     1      43.549 -20.590   2.402  1.00  0.00     0.001 A 
HETATM   28  H   UNL     1      44.378 -17.701   6.224  1.00  0.00     0.165 HD
HETATM   29  C   UNL     1      43.409 -16.582   4.706  1.00  0.00     0.101 A 
ENDBRANCH   6  20
TORSDOF 3
ENDMDL
MODEL 4
REMARK VINA RESULT:      -8.3      2.340      9.291
REMARK  3 active torsions:
REMARK  status: ('A' for Active; 'I' for Inactive)
REMARK    1  A    between atoms: C_4  and  N_5 
REMARK       I    between atoms: N_5  and  C_6 
REMARK       I    between atoms: C_6  and  N_7 
REMARK    2  A    between atoms: C_10  and  C_11 
REMARK    3  A    between atoms: C_24  and  O_25 
ROOT
HETATM    1  N   UNL     1      42.520 -15.819   3.057  1.00  0.00    -0.306 N 
HETATM    2  C   UNL     1      41.264 -15.352   3.356  1.00  0.00     0.323 C 
HETATM    3  N   UNL     1      40.894 -14.214   2.628  1.00  0.00    -0.330 N 
HETATM    4  C   UNL     1      39.570 -13.696   2.956  1.00  0.00     0.155 C 
HETATM    5  C   UNL     1      39.170 -12.523   2.117  1.00  0.00     0.001 C 
HETATM    6  C   UNL     1      39.898 -12.016   1.108  1.00  0.00    -0.046 C 
HETATM    7  C   UNL     1      41.229 -12.612   0.747  1.00  0.00     0.059 C 
HETATM    8  C   UNL     1      41.335 -14.055   1.237  1.00  0.00     0.132 C 
HETATM    9  O   UNL     1      40.517 -15.863   4.189  1.00  0.00    -0.247 OA
HETATM   10  H   UNL     1      43.225 -15.114   2.886  1.00  0.00     0.171 HD
ENDROOT
BRANCH   1  11
HETATM   11  C   UNL     1      43.026 -17.108   3.325  1.00  0.00     0.070 A 
HETATM   12  C   UNL     1      42.976 -18.137   2.378  1.00  0.00     0.039 A 
HETATM   13  C   UNL     1      43.560 -19.381   2.645  1.00  0.00    -0.060 A 
HETATM   14  C   UNL     1      43.548 -20.469   1.614  1.00  0.00     0.048 C 
HETATM   15  C   UNL     1      44.197 -19.585   3.875  1.00  0.00     0.009 A 
HETATM   16  C   UNL     1      44.246 -18.563   4.828  1.00  0.00     0.039 A 
HETATM   17  C   UNL     1      43.660 -17.324   4.562  1.00  0.00     0.095 A 
BRANCH  17  18
HETATM   18  O   UNL     1      43.670 -16.255   5.429  1.00  0.00    -0.354 OA
HETATM   19  C   UNL     1      44.580 -16.351   6.521  1.00  0.00     0.210 C 
ENDBRANCH  17  18
ENDBRANCH   1  11
BRANCH   6  20
HETATM   20  C   UNL     1      39.447 -10.970   0.251  1.00  0.00    -0.002 A 
HETATM   21  C   UNL     1      38.541 -11.086  -0.848  1.00  0.00     0.003 A 
HETATM   22  C   UNL     1      38.409  -9.811  -1.402  1.00  0.00     0.043 A 
HETATM   23  C   UNL     1      37.832 -12.153  -1.439  1.00  0.00     0.014 A 
HETATM   24  C   UNL     1      37.599  -9.551  -2.514  1.00  0.00     0.030 A 
HETATM   25  N   UNL     1      39.200  -8.962  -0.659  1.00  0.00    -0.364 N 
HETATM   26  C   UNL     1      36.905 -10.627  -3.079  1.00  0.00     0.002 A 
HETATM   27  C   UNL     1      37.018 -11.911  -2.551  1.00  0.00     0.001 A 
HETATM   28  H   UNL     1      39.296  -7.972  -0.835  1.00  0.00     0.165 HD
HETATM   29  C   UNL     1      39.842  -9.654   0.335  1.00  0.00     0.101 A 
ENDBRANCH   6  20
TORSDOF 3
ENDMDL
MODEL 5
REMARK VINA RESULT:      -8.3      6.253      8.529
REMARK  3 active torsions:
REMARK  status: ('A' for Active; 'I' for Inactive)
REMARK    1  A    between atoms: C_4  and  N_5 
REMARK       I    between atoms: N_5  and  C_6 
REMARK       I    between atoms: C_6  and  N_7 
REMARK    2  A    between atoms: C_10  and  C_11 
REMARK    3  A    between atoms: C_24  and  O_25 
ROOT
HETATM    1  N   UNL     1      42.598  -9.589   7.293  1.00  0.00    -0.306 N 
HETATM    2  C   UNL     1      41.499 -10.239   6.789  1.00  0.00     0.323 C 
HETATM    3  N   UNL     1      41.806 -11.202   5.818  1.00  0.00    -0.330 N 
HETATM    4  C   UNL     1      40.641 -11.882   5.259  1.00  0.00     0.155 C 
HETATM    5  C   UNL     1      40.998 -12.952   4.276  1.00  0.00     0.001 C 
HETATM    6  C   UNL     1      42.251 -13.326   3.969  1.00  0.00    -0.046 C 
HETATM    7  C   UNL     1      43.432 -12.654   4.610  1.00  0.00     0.059 C 
HETATM    8  C   UNL     1      43.037 -11.993   5.929  1.00  0.00     0.132 C 
HETATM    9  O   UNL     1      40.341 -10.010   7.135  1.00  0.00    -0.247 OA
HETATM   10  H   UNL     1      43.330  -9.378   6.628  1.00  0.00     0.171 HD
ENDROOT
BRANCH   1  11
HETATM   11  C   UNL     1      42.668  -8.863   8.500  1.00  0.00     0.070 A 
HETATM   12  C   UNL     1      42.775  -9.497   9.743  1.00  0.00     0.039 A 
HETATM   13  C   UNL     1      42.925  -8.746  10.916  1.00  0.00    -0.060 A 
HETATM   14  C   UNL     1      43.087  -9.426  12.243  1.00  0.00     0.048 C 
HETATM   15  C   UNL     1      42.966  -7.351  10.830  1.00  0.00     0.009 A 
HETATM   16  C   UNL     1      42.854  -6.710   9.593  1.00  0.00     0.039 A 
HETATM   17  C   UNL     1      42.701  -7.459   8.424  1.00  0.00     0.095 A 
BRANCH  17  18
HETATM   18  O   UNL     1      42.598  -6.920   7.161  1.00  0.00    -0.354 OA
HETATM   19  C   UNL     1      41.370  -6.264   6.865  1.00  0.00     0.210 C 
ENDBRANCH  17  18
ENDBRANCH   1  11
BRANCH   6  20
HETATM   20  C   UNL     1      42.565 -14.423   3.114  1.00  0.00    -0.002 A 
HETATM   21  C   UNL     1      42.937 -15.745   3.509  1.00  0.00     0.003 A 
HETATM   22  C   UNL     1      43.168 -16.470   2.337  1.00  0.00     0.043 A 
HETATM   23  C   UNL     1      43.118 -16.395   4.748  1.00  0.00     0.014 A 
HETATM   24  C   UNL     1      43.564 -17.812   2.345  1.00  0.00     0.030 A 
HETATM   25  N   UNL     1      42.936 -15.616   1.281  1.00  0.00    -0.364 N 
HETATM   26  C   UNL     1      43.734 -18.432   3.588  1.00  0.00     0.002 A 
HETATM   27  C   UNL     1      43.515 -17.735   4.774  1.00  0.00     0.001 A 
HETATM   28  H   UNL     1      43.025 -15.876   0.309  1.00  0.00     0.165 HD
HETATM   29  C   UNL     1      42.583 -14.373   1.738  1.00  0.00     0.101 A 
ENDBRANCH   6  20
TORSDOF 3
ENDMDL
MODEL 6
REMARK VINA RESULT:      -8.2      2.173      9.167
REMARK  3 active torsions:
REMARK  status: ('A' for Active; 'I' for Inactive)
REMARK    1  A    between atoms: C_4  and  N_5 
REMARK       I    between atoms: N_5  and  C_6 
REMARK       I    between atoms: C_6  and  N_7 
REMARK    2  A    between atoms: C_10  and  C_11 
REMARK    3  A    between atoms: C_24  and  O_25 
ROOT
HETATM    1  N   UNL     1      42.446 -16.145   2.539  1.00  0.00    -0.306 N 
HETATM    2  C   UNL     1      42.416 -14.804   2.243  1.00  0.00     0.323 C 
HETATM    3  N   UNL     1      41.538 -14.473   1.203  1.00  0.00    -0.330 N 
HETATM    4  C   UNL     1      41.517 -13.053   0.866  1.00  0.00     0.155 C 
HETATM    5  C   UNL     1      40.522 -12.714  -0.199  1.00  0.00     0.001 C 
HETATM    6  C   UNL     1      39.669 -13.587  -0.760  1.00  0.00    -0.046 C 
HETATM    7  C   UNL     1      39.667 -15.031  -0.345  1.00  0.00     0.059 C 
HETATM    8  C   UNL     1      40.276 -15.204   1.044  1.00  0.00     0.132 C 
HETATM    9  O   UNL     1      43.094 -13.955   2.819  1.00  0.00    -0.247 OA
HETATM   10  H   UNL     1      42.386 -16.773   1.748  1.00  0.00     0.171 HD
ENDROOT
BRANCH   1  11
HETATM   11  C   UNL     1      42.919 -16.736   3.728  1.00  0.00     0.070 A 
HETATM   12  C   UNL     1      42.759 -16.124   4.976  1.00  0.00     0.039 A 
HETATM   13  C   UNL     1      43.167 -16.774   6.147  1.00  0.00    -0.060 A 
HETATM   14  C   UNL     1      42.954 -16.139   7.489  1.00  0.00     0.048 C 
HETATM   15  C   UNL     1      43.740 -18.047   6.055  1.00  0.00     0.009 A 
HETATM   16  C   UNL     1      43.908 -18.663   4.811  1.00  0.00     0.039 A 
HETATM   17  C   UNL     1      43.504 -18.012   3.644  1.00  0.00     0.095 A 
BRANCH  17  18
HETATM   18  O   UNL     1      43.614 -18.543   2.378  1.00  0.00    -0.354 OA
HETATM   19  C   UNL     1      43.591 -19.964   2.297  1.00  0.00     0.210 C 
ENDBRANCH  17  18
ENDBRANCH   1  11
BRANCH   6  20
HETATM   20  C   UNL     1      38.654 -13.219  -1.692  1.00  0.00    -0.002 A 
HETATM   21  C   UNL     1      37.814 -12.065  -1.641  1.00  0.00     0.003 A 
HETATM   22  C   UNL     1      36.965 -12.130  -2.747  1.00  0.00     0.043 A 
HETATM   23  C   UNL     1      37.679 -10.976  -0.753  1.00  0.00     0.014 A 
HETATM   24  C   UNL     1      35.992 -11.159  -3.012  1.00  0.00     0.030 A 
HETATM   25  N   UNL     1      37.289 -13.277  -3.439  1.00  0.00    -0.364 N 
HETATM   26  C   UNL     1      35.880 -10.090  -2.116  1.00  0.00     0.002 A 
HETATM   27  C   UNL     1      36.711  -9.997  -1.001  1.00  0.00     0.001 A 
HETATM   28  H   UNL     1      36.834 -13.578  -4.288  1.00  0.00     0.165 HD
HETATM   29  C   UNL     1      38.300 -13.949  -2.803  1.00  0.00     0.101 A 
ENDBRANCH   6  20
TORSDOF 3
ENDMDL
MODEL 7
REMARK VINA RESULT:      -8.2      7.439      9.638
REMARK  3 active torsions:
REMARK  status: ('A' for Active; 'I' for Inactive)
REMARK    1  A    between atoms: C_4  and  N_5 
REMARK       I    between atoms: N_5  and  C_6 
REMARK       I    between atoms: C_6  and  N_7 
REMARK    2  A    between atoms: C_10  and  C_11 
REMARK    3  A    between atoms: C_24  and  O_25 
ROOT
HETATM    1  N   UNL     1      42.595  -9.725   9.449  1.00  0.00    -0.306 N 
HETATM    2  C   UNL     1      43.751 -10.232   8.908  1.00  0.00     0.323 C 
HETATM    3  N   UNL     1      43.540 -11.068   7.804  1.00  0.00    -0.330 N 
HETATM    4  C   UNL     1      44.762 -11.630   7.236  1.00  0.00     0.155 C 
HETATM    5  C   UNL     1      44.517 -12.464   6.017  1.00  0.00     0.001 C 
HETATM    6  C   UNL     1      43.320 -12.640   5.435  1.00  0.00    -0.046 C 
HETATM    7  C   UNL     1      42.088 -11.994   6.002  1.00  0.00     0.059 C 
HETATM    8  C   UNL     1      42.449 -10.786   6.864  1.00  0.00     0.132 C 
HETATM    9  O   UNL     1      44.878  -9.994   9.339  1.00  0.00    -0.247 OA
HETATM   10  H   UNL     1      41.805 -10.356   9.474  1.00  0.00     0.171 HD
ENDROOT
BRANCH   1  11
HETATM   11  C   UNL     1      42.481  -8.602  10.294  1.00  0.00     0.070 A 
HETATM   12  C   UNL     1      42.809  -8.659  11.653  1.00  0.00     0.039 A 
HETATM   13  C   UNL     1      42.763  -7.507  12.447  1.00  0.00    -0.060 A 
HETATM   14  C   UNL     1      43.159  -7.558  13.893  1.00  0.00     0.048 C 
HETATM   15  C   UNL     1      42.383  -6.293  11.865  1.00  0.00     0.009 A 
HETATM   16  C   UNL     1      42.048  -6.229  10.509  1.00  0.00     0.039 A 
HETATM   17  C   UNL     1      42.091  -7.380   9.718  1.00  0.00     0.095 A 
BRANCH  17  18
HETATM   18  O   UNL     1      41.795  -7.413   8.374  1.00  0.00    -0.354 OA
HETATM   19  C   UNL     1      41.974  -6.189   7.669  1.00  0.00     0.210 C 
ENDBRANCH  17  18
ENDBRANCH   1  11
BRANCH   6  20
HETATM   20  C   UNL     1      43.128 -13.347   4.211  1.00  0.00    -0.002 A 
HETATM   21  C   UNL     1      43.104 -14.763   4.028  1.00  0.00     0.003 A 
HETATM   22  C   UNL     1      42.908 -14.994   2.665  1.00  0.00     0.043 A 
HETATM   23  C   UNL     1      43.245 -15.876   4.885  1.00  0.00     0.014 A 
HETATM   24  C   UNL     1      42.842 -16.281   2.119  1.00  0.00     0.030 A 
HETATM   25  N   UNL     1      42.812 -13.763   2.056  1.00  0.00    -0.364 N 
HETATM   26  C   UNL     1      42.984 -17.366   2.991  1.00  0.00     0.002 A 
HETATM   27  C   UNL     1      43.183 -17.169   4.356  1.00  0.00     0.001 A 
HETATM   28  H   UNL     1      42.666 -13.626   1.066  1.00  0.00     0.165 HD
HETATM   29  C   UNL     1      42.956 -12.759   2.978  1.00  0.00     0.101 A 
ENDBRANCH   6  20
TORSDOF 3
ENDMDL
MODEL 8
REMARK VINA RESULT:      -8.1      5.090      9.451
REMARK  3 active torsions:
REMARK  status: ('A' for Active; 'I' for Inactive)
REMARK    1  A    between atoms: C_4  and  N_5 
REMARK       I    between atoms: N_5  and  C_6 
REMARK       I    between atoms: C_6  and  N_7 
REMARK    2  A    between atoms: C_10  and  C_11 
REMARK    3  A    between atoms: C_24  and  O_25 
ROOT
HETATM    1  N   UNL     1      43.042 -16.164   4.966  1.00  0.00    -0.306 N 
HETATM    2  C   UNL     1      41.801 -15.683   5.302  1.00  0.00     0.323 C 
HETATM    3  N   UNL     1      41.769 -14.299   5.520  1.00  0.00    -0.330 N 
HETATM    4  C   UNL     1      40.459 -13.782   5.900  1.00  0.00     0.155 C 
HETATM    5  C   UNL     1      40.435 -12.294   6.059  1.00  0.00     0.001 C 
HETATM    6  C   UNL     1      41.474 -11.478   5.815  1.00  0.00    -0.046 C 
HETATM    7  C   UNL     1      42.794 -12.032   5.359  1.00  0.00     0.059 C 
HETATM    8  C   UNL     1      42.620 -13.409   4.721  1.00  0.00     0.132 C 
HETATM    9  O   UNL     1      40.796 -16.383   5.416  1.00  0.00    -0.247 OA
HETATM   10  H   UNL     1      43.825 -15.739   5.446  1.00  0.00     0.171 HD
ENDROOT
BRANCH   1  11
HETATM   11  C   UNL     1      43.329 -17.395   4.342  1.00  0.00     0.070 A 
HETATM   12  C   UNL     1      43.815 -18.495   5.056  1.00  0.00     0.039 A 
HETATM   13  C   UNL     1      44.012 -19.728   4.422  1.00  0.00    -0.060 A 
HETATM   14  C   UNL     1      44.489 -20.919   5.197  1.00  0.00     0.048 C 
HETATM   15  C   UNL     1      43.717 -19.847   3.060  1.00  0.00     0.009 A 
HETATM   16  C   UNL     1      43.237 -18.751   2.337  1.00  0.00     0.039 A 
HETATM   17  C   UNL     1      43.043 -17.521   2.970  1.00  0.00     0.095 A 
BRANCH  17  18
HETATM   18  O   UNL     1      42.561 -16.392   2.348  1.00  0.00    -0.354 OA
HETATM   19  C   UNL     1      43.481 -15.707   1.505  1.00  0.00     0.210 C 
ENDBRANCH  17  18
ENDBRANCH   1  11
BRANCH   6  20
HETATM   20  C   UNL     1      41.395 -10.055   5.866  1.00  0.00    -0.002 A 
HETATM   21  C   UNL     1      41.963  -9.195   6.855  1.00  0.00     0.003 A 
HETATM   22  C   UNL     1      41.615  -7.889   6.506  1.00  0.00     0.043 A 
HETATM   23  C   UNL     1      42.727  -9.398   8.024  1.00  0.00     0.014 A 
HETATM   24  C   UNL     1      41.997  -6.777   7.266  1.00  0.00     0.030 A 
HETATM   25  N   UNL     1      40.872  -7.963   5.348  1.00  0.00    -0.364 N 
HETATM   26  C   UNL     1      42.755  -7.007   8.419  1.00  0.00     0.002 A 
HETATM   27  C   UNL     1      43.116  -8.298   8.795  1.00  0.00     0.001 A 
HETATM   28  H   UNL     1      40.487  -7.163   4.866  1.00  0.00     0.165 HD
HETATM   29  C   UNL     1      40.722  -9.268   4.959  1.00  0.00     0.101 A 
ENDBRANCH   6  20
TORSDOF 3
ENDMDL
MODEL 9
REMARK VINA RESULT:      -8.1      3.233      9.240
REMARK  3 active torsions:
REMARK  status: ('A' for Active; 'I' for Inactive)
REMARK    1  A    between atoms: C_4  and  N_5 
REMARK       I    between atoms: N_5  and  C_6 
REMARK       I    between atoms: C_6  and  N_7 
REMARK    2  A    between atoms: C_10  and  C_11 
REMARK    3  A    between atoms: C_24  and  O_25 
ROOT
HETATM    1  N   UNL     1      42.756 -16.056   3.902  1.00  0.00    -0.306 N 
HETATM    2  C   UNL     1      41.478 -15.570   3.775  1.00  0.00     0.323 C 
HETATM    3  N   UNL     1      41.418 -14.232   3.365  1.00  0.00    -0.330 N 
HETATM    4  C   UNL     1      40.064 -13.700   3.251  1.00  0.00     0.155 C 
HETATM    5  C   UNL     1      40.024 -12.292   2.746  1.00  0.00     0.001 C 
HETATM    6  C   UNL     1      41.097 -11.583   2.359  1.00  0.00    -0.046 C 
HETATM    7  C   UNL     1      42.475 -12.180   2.424  1.00  0.00     0.059 C 
HETATM    8  C   UNL     1      42.412 -13.706   2.422  1.00  0.00     0.132 C 
HETATM    9  O   UNL     1      40.464 -16.227   4.003  1.00  0.00    -0.247 OA
HETATM   10  H   UNL     1      43.438 -15.411   4.280  1.00  0.00     0.171 HD
ENDROOT
BRANCH   1  11
HETATM   11  C   UNL     1      43.145 -17.410   3.930  1.00  0.00     0.070 A 
HETATM   12  C   UNL     1      43.158 -18.204   2.778  1.00  0.00     0.039 A 
HETATM   13  C   UNL     1      43.626 -19.523   2.825  1.00  0.00    -0.060 A 
HETATM   14  C   UNL     1      43.684 -20.358   1.581  1.00  0.00     0.048 C 
HETATM   15  C   UNL     1      44.082 -20.041   4.042  1.00  0.00     0.009 A 
HETATM   16  C   UNL     1      44.067 -19.256   5.199  1.00  0.00     0.039 A 
HETATM   17  C   UNL     1      43.596 -17.942   5.152  1.00  0.00     0.095 A 
BRANCH  17  18
HETATM   18  O   UNL     1      43.557 -17.090   6.232  1.00  0.00    -0.354 OA
HETATM   19  C   UNL     1      44.785 -16.450   6.563  1.00  0.00     0.210 C 
ENDBRANCH  17  18
ENDBRANCH   1  11
BRANCH   6  20
HETATM   20  C   UNL     1      41.023 -10.284   1.776  1.00  0.00    -0.002 A 
HETATM   21  C   UNL     1      41.088  -9.957   0.387  1.00  0.00     0.003 A 
HETATM   22  C   UNL     1      40.993  -8.567   0.291  1.00  0.00     0.043 A 
HETATM   23  C   UNL     1      41.236 -10.705  -0.801  1.00  0.00     0.014 A 
HETATM   24  C   UNL     1      41.033  -7.890  -0.934  1.00  0.00     0.030 A 
HETATM   25  N   UNL     1      40.868  -8.080   1.573  1.00  0.00    -0.364 N 
HETATM   26  C   UNL     1      41.179  -8.656  -2.096  1.00  0.00     0.002 A 
HETATM   27  C   UNL     1      41.279 -10.044  -2.033  1.00  0.00     0.001 A 
HETATM   28  H   UNL     1      40.778  -7.102   1.805  1.00  0.00     0.165 HD
HETATM   29  C   UNL     1      40.898  -9.108   2.480  1.00  0.00     0.101 A 
ENDBRANCH   6  20
TORSDOF 3
ENDMDL
MODEL 10
REMARK VINA RESULT:      -8.1      5.076      9.366
REMARK  3 active torsions:
REMARK  status: ('A' for Active; 'I' for Inactive)
REMARK    1  A    between atoms: C_4  and  N_5 
REMARK       I    between atoms: N_5  and  C_6 
REMARK       I    between atoms: C_6  and  N_7 
REMARK    2  A    between atoms: C_10  and  C_11 
REMARK    3  A    between atoms: C_24  and  O_25 
ROOT
HETATM    1  N   UNL     1      42.613 -15.916   4.054  1.00  0.00    -0.306 N 
HETATM    2  C   UNL     1      43.034 -14.818   3.345  1.00  0.00     0.323 C 
HETATM    3  N   UNL     1      42.685 -13.595   3.934  1.00  0.00    -0.330 N 
HETATM    4  C   UNL     1      43.108 -12.422   3.177  1.00  0.00     0.155 C 
HETATM    5  C   UNL     1      42.785 -11.130   3.860  1.00  0.00     0.001 C 
HETATM    6  C   UNL     1      42.228 -11.023   5.077  1.00  0.00    -0.046 C 
HETATM    7  C   UNL     1      41.864 -12.249   5.865  1.00  0.00     0.059 C 
HETATM    8  C   UNL     1      42.666 -13.461   5.396  1.00  0.00     0.132 C 
HETATM    9  O   UNL     1      43.655 -14.876   2.285  1.00  0.00    -0.247 OA
HETATM   10  H   UNL     1      41.702 -15.839   4.487  1.00  0.00     0.171 HD
ENDROOT
BRANCH   1  11
HETATM   11  C   UNL     1      43.104 -17.232   3.939  1.00  0.00     0.070 A 
HETATM   12  C   UNL     1      42.805 -18.044   2.839  1.00  0.00     0.039 A 
HETATM   13  C   UNL     1      43.374 -19.317   2.715  1.00  0.00    -0.060 A 
HETATM   14  C   UNL     1      43.091 -20.168   1.514  1.00  0.00     0.048 C 
HETATM   15  C   UNL     1      44.248 -19.771   3.709  1.00  0.00     0.009 A 
HETATM   16  C   UNL     1      44.547 -18.969   4.815  1.00  0.00     0.039 A 
HETATM   17  C   UNL     1      43.976 -17.701   4.938  1.00  0.00     0.095 A 
BRANCH  17  18
HETATM   18  O   UNL     1      44.221 -16.834   5.980  1.00  0.00    -0.354 OA
HETATM   19  C   UNL     1      43.588 -17.154   7.214  1.00  0.00     0.210 C 
ENDBRANCH  17  18
ENDBRANCH   1  11
BRANCH   6  20
HETATM   20  C   UNL     1      42.032  -9.783   5.754  1.00  0.00    -0.002 A 
HETATM   21  C   UNL     1      42.741  -9.305   6.899  1.00  0.00     0.003 A 
HETATM   22  C   UNL     1      42.198  -8.060   7.222  1.00  0.00     0.043 A 
HETATM   23  C   UNL     1      43.781  -9.815   7.705  1.00  0.00     0.014 A 
HETATM   24  C   UNL     1      42.648  -7.298   8.307  1.00  0.00     0.030 A 
HETATM   25  N   UNL     1      41.207  -7.799   6.302  1.00  0.00    -0.364 N 
HETATM   26  C   UNL     1      43.681  -7.827   9.089  1.00  0.00     0.002 A 
HETATM   27  C   UNL     1      44.242  -9.068   8.794  1.00  0.00     0.001 A 
HETATM   28  H   UNL     1      40.644  -6.961   6.293  1.00  0.00     0.165 HD
HETATM   29  C   UNL     1      41.089  -8.839   5.417  1.00  0.00     0.101 A 
ENDBRANCH   6  20
TORSDOF 3
ENDMDL
