MODEL 1
REMARK VINA RESULT:     -10.1      0.000      0.000
REMARK  5 active torsions:
REMARK  status: ('A' for Active; 'I' for Inactive)
REMARK    1  A    between atoms: C_4  and  C_5 
REMARK    2  A    between atoms: C_5  and  C_6 
REMARK    3  A    between atoms: C_12  and  S_13 
REMARK    4  A    between atoms: S_13  and  C_14 
REMARK    5  A    between atoms: C_14  and  C_15 
ROOT
HETATM    1  C   UNL     1      39.738 -13.237   1.624  1.00  0.00     0.283 C 
HETATM    2  O   UNL     1      40.790 -12.958   2.536  1.00  0.00    -0.303 OA
HETATM    3  C   UNL     1      40.417 -13.288   3.815  1.00  0.00     0.201 A 
HETATM    4  C   UNL     1      39.621 -12.410   4.530  1.00  0.00     0.144 A 
HETATM    5  N   UNL     1      39.397 -12.661   5.833  1.00  0.00    -0.142 NA
HETATM    6  N   UNL     1      39.953 -13.782   6.385  1.00  0.00    -0.122 NA
HETATM    7  C   UNL     1      40.714 -14.606   5.627  1.00  0.00     0.212 A 
HETATM    8  N   UNL     1      40.993 -14.393   4.330  1.00  0.00    -0.195 NA
HETATM    9  C   UNL     1      39.014 -11.234   3.915  1.00  0.00     0.020 A 
HETATM   10  C   UNL     1      38.488 -11.313   2.603  1.00  0.00     0.023 A 
HETATM   11  N   UNL     1      38.457 -12.528   1.886  1.00  0.00    -0.259 NA
HETATM   12  C   UNL     1      38.936 -10.013   4.611  1.00  0.00     0.016 A 
HETATM   13  C   UNL     1      38.357  -8.888   4.024  1.00  0.00     0.001 A 
HETATM   14  C   UNL     1      37.830  -8.972   2.740  1.00  0.00     0.002 A 
HETATM   15  C   UNL     1      37.883 -10.179   2.041  1.00  0.00     0.024 A 
HETATM   16  H   UNL     1      38.009 -12.382   0.975  1.00  0.00     0.130 HD
ENDROOT
BRANCH   7  17
HETATM   17  S   UNL     1      41.413 -16.058   6.372  1.00  0.00    -0.084 SA
BRANCH  17  18
HETATM   18  C   UNL     1      43.074 -16.004   5.631  1.00  0.00     0.121 C 
BRANCH  18  19
HETATM   19  C   UNL     1      43.292 -17.146   4.666  1.00  0.00    -0.048 A 
HETATM   20  C   UNL     1      43.930 -18.322   5.090  1.00  0.00     0.009 A 
HETATM   21  C   UNL     1      44.126 -19.381   4.200  1.00  0.00     0.024 A 
HETATM   22  C   UNL     1      43.692 -19.269   2.883  1.00  0.00     0.034 A 
HETATM   23 CL   UNL     1      43.931 -20.576   1.788  1.00  0.00    -0.084 Cl
HETATM   24  C   UNL     1      43.066 -18.104   2.443  1.00  0.00     0.024 A 
HETATM   25  C   UNL     1      42.869 -17.044   3.331  1.00  0.00     0.009 A 
ENDBRANCH  18  19
ENDBRANCH  17  18
ENDBRANCH   7  17
BRANCH   1  26
HETATM   26  C   UNL     1      40.170 -12.878   0.176  1.00  0.00     0.203 C 
HETATM   27  O   UNL     1      41.194 -12.220  -0.043  1.00  0.00    -0.288 OA
BRANCH  26  28
HETATM   28  C   UNL     1      39.336 -13.303  -0.981  1.00  0.00     0.014 A 
HETATM   29  C   UNL     1      39.590 -14.564  -1.541  1.00  0.00     0.015 A 
HETATM   30  C   UNL     1      38.837 -15.018  -2.624  1.00  0.00     0.001 A 
HETATM   31  C   UNL     1      37.833 -14.212  -3.159  1.00  0.00     0.000 A 
HETATM   32  C   UNL     1      37.587 -12.951  -2.616  1.00  0.00     0.001 A 
HETATM   33  C   UNL     1      38.338 -12.491  -1.531  1.00  0.00     0.015 A 
ENDBRANCH  26  28
ENDBRANCH   1  26
TORSDOF 5
ENDMDL
MODEL 2
REMARK VINA RESULT:      -9.7      4.713      7.272
REMARK  5 active torsions:
REMARK  status: ('A' for Active; 'I' for Inactive)
REMARK    1  A    between atoms: C_4  and  C_5 
REMARK    2  A    between atoms: C_5  and  C_6 
REMARK    3  A    between atoms: C_12  and  S_13 
REMARK    4  A    between atoms: S_13  and  C_14 
REMARK    5  A    between atoms: C_14  and  C_15 
ROOT
HETATM    1  C   UNL     1      41.401 -14.395   2.026  1.00  0.00     0.283 C 
HETATM    2  O   UNL     1      40.876 -14.455   3.344  1.00  0.00    -0.303 OA
HETATM    3  C   UNL     1      41.782 -13.953   4.245  1.00  0.00     0.201 A 
HETATM    4  C   UNL     1      42.825 -14.759   4.669  1.00  0.00     0.144 A 
HETATM    5  N   UNL     1      43.609 -14.321   5.671  1.00  0.00    -0.142 NA
HETATM    6  N   UNL     1      43.349 -13.093   6.212  1.00  0.00    -0.122 NA
HETATM    7  C   UNL     1      42.318 -12.349   5.743  1.00  0.00     0.212 A 
HETATM    8  N   UNL     1      41.488 -12.745   4.764  1.00  0.00    -0.195 NA
HETATM    9  C   UNL     1      43.102 -16.056   4.059  1.00  0.00     0.020 A 
HETATM   10  C   UNL     1      42.979 -16.220   2.659  1.00  0.00     0.023 A 
HETATM   11  N   UNL     1      42.670 -15.139   1.806  1.00  0.00    -0.259 NA
HETATM   12  C   UNL     1      43.499 -17.154   4.844  1.00  0.00     0.016 A 
HETATM   13  C   UNL     1      43.764 -18.394   4.264  1.00  0.00     0.001 A 
HETATM   14  C   UNL     1      43.654 -18.549   2.886  1.00  0.00     0.002 A 
HETATM   15  C   UNL     1      43.279 -17.467   2.089  1.00  0.00     0.024 A 
HETATM   16  H   UNL     1      42.662 -15.457   0.831  1.00  0.00     0.130 HD
ENDROOT
BRANCH   7  17
HETATM   17  S   UNL     1      42.014 -10.754   6.461  1.00  0.00    -0.084 SA
BRANCH  17  18
HETATM   18  C   UNL     1      43.673 -10.401   7.119  1.00  0.00     0.121 C 
BRANCH  18  19
HETATM   19  C   UNL     1      43.612  -9.857   8.527  1.00  0.00    -0.048 A 
HETATM   20  C   UNL     1      42.424  -9.289   9.018  1.00  0.00     0.009 A 
HETATM   21  C   UNL     1      42.364  -8.793  10.321  1.00  0.00     0.024 A 
HETATM   22  C   UNL     1      43.489  -8.854  11.139  1.00  0.00     0.034 A 
HETATM   23 CL   UNL     1      43.412  -8.244  12.747  1.00  0.00    -0.084 Cl
HETATM   24  C   UNL     1      44.677  -9.404  10.664  1.00  0.00     0.024 A 
HETATM   25  C   UNL     1      44.740  -9.902   9.360  1.00  0.00     0.009 A 
ENDBRANCH  18  19
ENDBRANCH  17  18
ENDBRANCH   7  17
BRANCH   1  26
HETATM   26  C   UNL     1      40.367 -14.948   1.007  1.00  0.00     0.203 C 
HETATM   27  O   UNL     1      39.715 -15.971   1.248  1.00  0.00    -0.288 OA
BRANCH  26  28
HETATM   28  C   UNL     1      40.162 -14.264  -0.298  1.00  0.00     0.014 A 
HETATM   29  C   UNL     1      39.399 -14.927  -1.271  1.00  0.00     0.015 A 
HETATM   30  C   UNL     1      39.168 -14.332  -2.512  1.00  0.00     0.001 A 
HETATM   31  C   UNL     1      39.706 -13.077  -2.791  1.00  0.00     0.000 A 
HETATM   32  C   UNL     1      40.479 -12.420  -1.833  1.00  0.00     0.001 A 
HETATM   33  C   UNL     1      40.713 -13.011  -0.588  1.00  0.00     0.015 A 
ENDBRANCH  26  28
ENDBRANCH   1  26
TORSDOF 5
ENDMDL
MODEL 3
REMARK VINA RESULT:      -9.2      5.327      8.151
REMARK  5 active torsions:
REMARK  status: ('A' for Active; 'I' for Inactive)
REMARK    1  A    between atoms: C_4  and  C_5 
REMARK    2  A    between atoms: C_5  and  C_6 
REMARK    3  A    between atoms: C_12  and  S_13 
REMARK    4  A    between atoms: S_13  and  C_14 
REMARK    5  A    between atoms: C_14  and  C_15 
ROOT
HETATM    1  C   UNL     1      41.024 -14.505   5.314  1.00  0.00     0.283 C 
HETATM    2  O   UNL     1      42.349 -14.043   5.096  1.00  0.00    -0.303 OA
HETATM    3  C   UNL     1      42.413 -12.680   5.241  1.00  0.00     0.201 A 
HETATM    4  C   UNL     1      42.003 -11.873   4.193  1.00  0.00     0.144 A 
HETATM    5  N   UNL     1      42.222 -10.548   4.279  1.00  0.00    -0.142 NA
HETATM    6  N   UNL     1      42.824 -10.059   5.406  1.00  0.00    -0.122 NA
HETATM    7  C   UNL     1      43.190 -10.903   6.400  1.00  0.00     0.212 A 
HETATM    8  N   UNL     1      43.021 -12.235   6.358  1.00  0.00    -0.195 NA
HETATM    9  C   UNL     1      41.338 -12.412   3.011  1.00  0.00     0.020 A 
HETATM   10  C   UNL     1      40.385 -13.449   3.147  1.00  0.00     0.023 A 
HETATM   11  N   UNL     1      39.989 -13.936   4.410  1.00  0.00    -0.259 NA
HETATM   12  C   UNL     1      41.625 -11.910   1.728  1.00  0.00     0.016 A 
HETATM   13  C   UNL     1      40.991 -12.424   0.598  1.00  0.00     0.001 A 
HETATM   14  C   UNL     1      40.046 -13.435   0.735  1.00  0.00     0.002 A 
HETATM   15  C   UNL     1      39.735 -13.933   2.001  1.00  0.00     0.024 A 
HETATM   16  H   UNL     1      39.268 -14.657   4.295  1.00  0.00     0.130 HD
ENDROOT
BRANCH   7  17
HETATM   17  S   UNL     1      43.960 -10.235   7.854  1.00  0.00    -0.084 SA
BRANCH  17  18
HETATM   18  C   UNL     1      42.745  -8.945   8.269  1.00  0.00     0.121 C 
BRANCH  18  19
HETATM   19  C   UNL     1      42.849  -8.525   9.716  1.00  0.00    -0.048 A 
HETATM   20  C   UNL     1      43.464  -9.365  10.657  1.00  0.00     0.009 A 
HETATM   21  C   UNL     1      43.568  -8.975  11.994  1.00  0.00     0.024 A 
HETATM   22  C   UNL     1      43.053  -7.747  12.400  1.00  0.00     0.034 A 
HETATM   23 CL   UNL     1      43.184  -7.265  14.047  1.00  0.00    -0.084 Cl
HETATM   24  C   UNL     1      42.430  -6.906  11.480  1.00  0.00     0.024 A 
HETATM   25  C   UNL     1      42.326  -7.294  10.142  1.00  0.00     0.009 A 
ENDBRANCH  18  19
ENDBRANCH  17  18
ENDBRANCH   7  17
BRANCH   1  26
HETATM   26  C   UNL     1      40.959 -16.050   5.166  1.00  0.00     0.203 C 
HETATM   27  O   UNL     1      40.046 -16.705   5.681  1.00  0.00    -0.288 OA
BRANCH  26  28
HETATM   28  C   UNL     1      42.020 -16.775   4.415  1.00  0.00     0.014 A 
HETATM   29  C   UNL     1      41.910 -16.828   3.017  1.00  0.00     0.015 A 
HETATM   30  C   UNL     1      42.878 -17.489   2.259  1.00  0.00     0.001 A 
HETATM   31  C   UNL     1      43.953 -18.108   2.894  1.00  0.00     0.000 A 
HETATM   32  C   UNL     1      44.059 -18.072   4.285  1.00  0.00     0.001 A 
HETATM   33  C   UNL     1      43.093 -17.410   5.048  1.00  0.00     0.015 A 
ENDBRANCH  26  28
ENDBRANCH   1  26
TORSDOF 5
ENDMDL
MODEL 4
REMARK VINA RESULT:      -9.2      3.211      7.229
REMARK  5 active torsions:
REMARK  status: ('A' for Active; 'I' for Inactive)
REMARK    1  A    between atoms: C_4  and  C_5 
REMARK    2  A    between atoms: C_5  and  C_6 
REMARK    3  A    between atoms: C_12  and  S_13 
REMARK    4  A    between atoms: S_13  and  C_14 
REMARK    5  A    between atoms: C_14  and  C_15 
ROOT
HETATM    1  C   UNL     1      41.841 -14.417   4.430  1.00  0.00     0.283 C 
HETATM    2  O   UNL     1      40.673 -13.802   4.954  1.00  0.00    -0.303 OA
HETATM    3  C   UNL     1      40.450 -12.594   4.342  1.00  0.00     0.201 A 
HETATM    4  C   UNL     1      41.169 -11.487   4.760  1.00  0.00     0.144 A 
HETATM    5  N   UNL     1      40.829 -10.280   4.271  1.00  0.00    -0.142 NA
HETATM    6  N   UNL     1      39.801 -10.206   3.373  1.00  0.00    -0.122 NA
HETATM    7  C   UNL     1      39.145 -11.330   2.998  1.00  0.00     0.212 A 
HETATM    8  N   UNL     1      39.423 -12.557   3.471  1.00  0.00    -0.195 NA
HETATM    9  C   UNL     1      42.281 -11.591   5.698  1.00  0.00     0.020 A 
HETATM   10  C   UNL     1      43.186 -12.676   5.606  1.00  0.00     0.023 A 
HETATM   11  N   UNL     1      43.097 -13.634   4.574  1.00  0.00    -0.259 NA
HETATM   12  C   UNL     1      42.476 -10.621   6.699  1.00  0.00     0.016 A 
HETATM   13  C   UNL     1      43.538 -10.719   7.597  1.00  0.00     0.001 A 
HETATM   14  C   UNL     1      44.433 -11.779   7.497  1.00  0.00     0.002 A 
HETATM   15  C   UNL     1      44.266 -12.741   6.499  1.00  0.00     0.024 A 
HETATM   16  H   UNL     1      43.861 -14.313   4.663  1.00  0.00     0.130 HD
ENDROOT
BRANCH   7  17
HETATM   17  S   UNL     1      37.821 -11.201   1.823  1.00  0.00    -0.084 SA
BRANCH  17  18
HETATM   18  C   UNL     1      38.786 -10.830   0.325  1.00  0.00     0.121 C 
BRANCH  18  19
HETATM   19  C   UNL     1      38.602 -11.891  -0.734  1.00  0.00    -0.048 A 
HETATM   20  C   UNL     1      37.562 -11.786  -1.672  1.00  0.00     0.009 A 
HETATM   21  C   UNL     1      37.396 -12.762  -2.657  1.00  0.00     0.024 A 
HETATM   22  C   UNL     1      38.262 -13.851  -2.707  1.00  0.00     0.034 A 
HETATM   23 CL   UNL     1      38.057 -15.052  -3.923  1.00  0.00    -0.084 Cl
HETATM   24  C   UNL     1      39.292 -13.975  -1.777  1.00  0.00     0.024 A 
HETATM   25  C   UNL     1      39.461 -13.000  -0.792  1.00  0.00     0.009 A 
ENDBRANCH  18  19
ENDBRANCH  17  18
ENDBRANCH   7  17
BRANCH   1  26
HETATM   26  C   UNL     1      42.081 -15.791   5.114  1.00  0.00     0.203 C 
HETATM   27  O   UNL     1      41.708 -16.004   6.273  1.00  0.00    -0.288 OA
BRANCH  26  28
HETATM   28  C   UNL     1      42.793 -16.875   4.385  1.00  0.00     0.014 A 
HETATM   29  C   UNL     1      42.430 -17.114   3.051  1.00  0.00     0.015 A 
HETATM   30  C   UNL     1      43.067 -18.114   2.315  1.00  0.00     0.001 A 
HETATM   31  C   UNL     1      44.062 -18.887   2.910  1.00  0.00     0.000 A 
HETATM   32  C   UNL     1      44.416 -18.665   4.242  1.00  0.00     0.001 A 
HETATM   33  C   UNL     1      43.782 -17.664   4.983  1.00  0.00     0.015 A 
ENDBRANCH  26  28
ENDBRANCH   1  26
TORSDOF 5
ENDMDL
MODEL 5
REMARK VINA RESULT:      -9.2      4.097      8.666
REMARK  5 active torsions:
REMARK  status: ('A' for Active; 'I' for Inactive)
REMARK    1  A    between atoms: C_4  and  C_5 
REMARK    2  A    between atoms: C_5  and  C_6 
REMARK    3  A    between atoms: C_12  and  S_13 
REMARK    4  A    between atoms: S_13  and  C_14 
REMARK    5  A    between atoms: C_14  and  C_15 
ROOT
HETATM    1  C   UNL     1      43.020 -12.261   6.265  1.00  0.00     0.283 C 
HETATM    2  O   UNL     1      43.056 -12.242   4.845  1.00  0.00    -0.303 OA
HETATM    3  C   UNL     1      41.913 -12.799   4.329  1.00  0.00     0.201 A 
HETATM    4  C   UNL     1      41.807 -14.178   4.266  1.00  0.00     0.144 A 
HETATM    5  N   UNL     1      40.760 -14.712   3.610  1.00  0.00    -0.142 NA
HETATM    6  N   UNL     1      39.841 -13.868   3.052  1.00  0.00    -0.122 NA
HETATM    7  C   UNL     1      39.999 -12.527   3.159  1.00  0.00     0.212 A 
HETATM    8  N   UNL     1      41.036 -11.937   3.778  1.00  0.00    -0.195 NA
HETATM    9  C   UNL     1      42.784 -15.062   4.893  1.00  0.00     0.020 A 
HETATM   10  C   UNL     1      43.325 -14.735   6.159  1.00  0.00     0.023 A 
HETATM   11  N   UNL     1      42.889 -13.607   6.885  1.00  0.00    -0.259 NA
HETATM   12  C   UNL     1      43.197 -16.249   4.258  1.00  0.00     0.016 A 
HETATM   13  C   UNL     1      44.131 -17.094   4.855  1.00  0.00     0.001 A 
HETATM   14  C   UNL     1      44.652 -16.777   6.105  1.00  0.00     0.002 A 
HETATM   15  C   UNL     1      44.241 -15.613   6.757  1.00  0.00     0.024 A 
HETATM   16  H   UNL     1      43.376 -13.565   7.788  1.00  0.00     0.130 HD
ENDROOT
BRANCH   7  17
HETATM   17  S   UNL     1      38.783 -11.458   2.431  1.00  0.00    -0.084 SA
BRANCH  17  18
HETATM   18  C   UNL     1      39.626 -11.067   0.866  1.00  0.00     0.121 C 
BRANCH  18  19
HETATM   19  C   UNL     1      39.273 -12.056  -0.220  1.00  0.00    -0.048 A 
HETATM   20  C   UNL     1      40.101 -13.161  -0.472  1.00  0.00     0.009 A 
HETATM   21  C   UNL     1      39.772 -14.079  -1.471  1.00  0.00     0.024 A 
HETATM   22  C   UNL     1      38.618 -13.896  -2.228  1.00  0.00     0.034 A 
HETATM   23 CL   UNL     1      38.212 -15.031  -3.457  1.00  0.00    -0.084 Cl
HETATM   24  C   UNL     1      37.791 -12.799  -1.998  1.00  0.00     0.024 A 
HETATM   25  C   UNL     1      38.118 -11.880  -0.999  1.00  0.00     0.009 A 
ENDBRANCH  18  19
ENDBRANCH  17  18
ENDBRANCH   7  17
BRANCH   1  26
HETATM   26  C   UNL     1      44.308 -11.616   6.846  1.00  0.00     0.203 C 
HETATM   27  O   UNL     1      45.422 -11.871   6.374  1.00  0.00    -0.288 OA
BRANCH  26  28
HETATM   28  C   UNL     1      44.222 -10.689   8.008  1.00  0.00     0.014 A 
HETATM   29  C   UNL     1      45.374 -10.513   8.789  1.00  0.00     0.015 A 
HETATM   30  C   UNL     1      45.356  -9.653   9.888  1.00  0.00     0.001 A 
HETATM   31  C   UNL     1      44.184  -8.973  10.218  1.00  0.00     0.000 A 
HETATM   32  C   UNL     1      43.031  -9.158   9.454  1.00  0.00     0.001 A 
HETATM   33  C   UNL     1      43.045 -10.017   8.352  1.00  0.00     0.015 A 
ENDBRANCH  26  28
ENDBRANCH   1  26
TORSDOF 5
ENDMDL
MODEL 6
REMARK VINA RESULT:      -9.1      5.883      8.134
REMARK  5 active torsions:
REMARK  status: ('A' for Active; 'I' for Inactive)
REMARK    1  A    between atoms: C_4  and  C_5 
REMARK    2  A    between atoms: C_5  and  C_6 
REMARK    3  A    between atoms: C_12  and  S_13 
REMARK    4  A    between atoms: S_13  and  C_14 
REMARK    5  A    between atoms: C_14  and  C_15 
ROOT
HETATM    1  C   UNL     1      43.163 -13.933   6.571  1.00  0.00     0.283 C 
HETATM    2  O   UNL     1      43.879 -12.845   6.005  1.00  0.00    -0.303 OA
HETATM    3  C   UNL     1      43.568 -11.676   6.655  1.00  0.00     0.201 A 
HETATM    4  C   UNL     1      42.394 -11.019   6.329  1.00  0.00     0.144 A 
HETATM    5  N   UNL     1      42.178  -9.796   6.848  1.00  0.00    -0.142 NA
HETATM    6  N   UNL     1      43.121  -9.268   7.685  1.00  0.00    -0.122 NA
HETATM    7  C   UNL     1      44.244  -9.969   7.972  1.00  0.00     0.212 A 
HETATM    8  N   UNL     1      44.525 -11.181   7.464  1.00  0.00    -0.195 NA
HETATM    9  C   UNL     1      41.388 -11.612   5.454  1.00  0.00     0.020 A 
HETATM   10  C   UNL     1      41.089 -12.992   5.554  1.00  0.00     0.023 A 
HETATM   11  N   UNL     1      41.681 -13.813   6.537  1.00  0.00    -0.259 NA
HETATM   12  C   UNL     1      40.698 -10.829   4.510  1.00  0.00     0.016 A 
HETATM   13  C   UNL     1      39.737 -11.394   3.673  1.00  0.00     0.001 A 
HETATM   14  C   UNL     1      39.436 -12.748   3.781  1.00  0.00     0.002 A 
HETATM   15  C   UNL     1      40.097 -13.536   4.724  1.00  0.00     0.024 A 
HETATM   16  H   UNL     1      41.308 -14.766   6.463  1.00  0.00     0.130 HD
ENDROOT
BRANCH   7  17
HETATM   17  S   UNL     1      45.443  -9.258   9.071  1.00  0.00    -0.084 SA
BRANCH  17  18
HETATM   18  C   UNL     1      45.055 -10.194  10.582  1.00  0.00     0.121 C 
BRANCH  18  19
HETATM   19  C   UNL     1      43.862  -9.616  11.306  1.00  0.00    -0.048 A 
HETATM   20  C   UNL     1      43.050 -10.437  12.106  1.00  0.00     0.009 A 
HETATM   21  C   UNL     1      41.951  -9.903  12.781  1.00  0.00     0.024 A 
HETATM   22  C   UNL     1      41.652  -8.549  12.657  1.00  0.00     0.034 A 
HETATM   23 CL   UNL     1      40.299  -7.891  13.493  1.00  0.00    -0.084 Cl
HETATM   24  C   UNL     1      42.441  -7.723  11.859  1.00  0.00     0.024 A 
HETATM   25  C   UNL     1      43.541  -8.255  11.183  1.00  0.00     0.009 A 
ENDBRANCH  18  19
ENDBRANCH  17  18
ENDBRANCH   7  17
BRANCH   1  26
HETATM   26  C   UNL     1      43.529 -15.256   5.844  1.00  0.00     0.203 C 
HETATM   27  O   UNL     1      44.252 -16.103   6.382  1.00  0.00    -0.288 OA
BRANCH  26  28
HETATM   28  C   UNL     1      43.032 -15.516   4.466  1.00  0.00     0.014 A 
HETATM   29  C   UNL     1      43.331 -14.569   3.475  1.00  0.00     0.015 A 
HETATM   30  C   UNL     1      42.896 -14.761   2.163  1.00  0.00     0.001 A 
HETATM   31  C   UNL     1      42.153 -15.894   1.837  1.00  0.00     0.000 A 
HETATM   32  C   UNL     1      41.839 -16.831   2.822  1.00  0.00     0.001 A 
HETATM   33  C   UNL     1      42.273 -16.644   4.137  1.00  0.00     0.015 A 
ENDBRANCH  26  28
ENDBRANCH   1  26
TORSDOF 5
ENDMDL
MODEL 7
REMARK VINA RESULT:      -9.0      4.330      8.753
REMARK  5 active torsions:
REMARK  status: ('A' for Active; 'I' for Inactive)
REMARK    1  A    between atoms: C_4  and  C_5 
REMARK    2  A    between atoms: C_5  and  C_6 
REMARK    3  A    between atoms: C_12  and  S_13 
REMARK    4  A    between atoms: S_13  and  C_14 
REMARK    5  A    between atoms: C_14  and  C_15 
ROOT
HETATM    1  C   UNL     1      40.131 -13.510   4.242  1.00  0.00     0.283 C 
HETATM    2  O   UNL     1      40.977 -12.865   3.301  1.00  0.00    -0.303 OA
HETATM    3  C   UNL     1      40.624 -13.211   2.021  1.00  0.00     0.201 A 
HETATM    4  C   UNL     1      41.052 -14.424   1.510  1.00  0.00     0.144 A 
HETATM    5  N   UNL     1      40.843 -14.682   0.206  1.00  0.00    -0.142 NA
HETATM    6  N   UNL     1      40.202 -13.740  -0.550  1.00  0.00    -0.122 NA
HETATM    7  C   UNL     1      39.799 -12.577   0.015  1.00  0.00     0.212 A 
HETATM    8  N   UNL     1      40.003 -12.254   1.303  1.00  0.00    -0.195 NA
HETATM    9  C   UNL     1      41.710 -15.428   2.341  1.00  0.00     0.020 A 
HETATM   10  C   UNL     1      41.260 -15.657   3.663  1.00  0.00     0.023 A 
HETATM   11  N   UNL     1      40.131 -14.996   4.191  1.00  0.00    -0.259 NA
HETATM   12  C   UNL     1      42.788 -16.183   1.844  1.00  0.00     0.016 A 
HETATM   13  C   UNL     1      43.418 -17.142   2.637  1.00  0.00     0.001 A 
HETATM   14  C   UNL     1      42.967 -17.374   3.931  1.00  0.00     0.002 A 
HETATM   15  C   UNL     1      41.887 -16.647   4.435  1.00  0.00     0.024 A 
HETATM   16  H   UNL     1      39.951 -15.324   5.146  1.00  0.00     0.130 HD
ENDROOT
BRANCH   7  17
HETATM   17  S   UNL     1      38.961 -11.379  -0.993  1.00  0.00    -0.084 SA
BRANCH  17  18
HETATM   18  C   UNL     1      40.082 -11.357  -2.426  1.00  0.00     0.121 C 
BRANCH  18  19
HETATM   19  C   UNL     1      40.908 -10.093  -2.469  1.00  0.00    -0.048 A 
HETATM   20  C   UNL     1      40.838  -9.236  -3.580  1.00  0.00     0.009 A 
HETATM   21  C   UNL     1      41.596  -8.064  -3.618  1.00  0.00     0.024 A 
HETATM   22  C   UNL     1      42.432  -7.744  -2.552  1.00  0.00     0.034 A 
HETATM   23 CL   UNL     1      43.364  -6.297  -2.599  1.00  0.00    -0.084 Cl
HETATM   24  C   UNL     1      42.521  -8.589  -1.447  1.00  0.00     0.024 A 
HETATM   25  C   UNL     1      41.763  -9.761  -1.406  1.00  0.00     0.009 A 
ENDBRANCH  18  19
ENDBRANCH  17  18
ENDBRANCH   7  17
BRANCH   1  26
HETATM   26  C   UNL     1      40.523 -13.103   5.688  1.00  0.00     0.203 C 
HETATM   27  O   UNL     1      39.679 -13.055   6.591  1.00  0.00    -0.288 OA
BRANCH  26  28
HETATM   28  C   UNL     1      41.929 -12.736   6.008  1.00  0.00     0.014 A 
HETATM   29  C   UNL     1      42.257 -11.372   6.039  1.00  0.00     0.015 A 
HETATM   30  C   UNL     1      43.559 -10.967   6.338  1.00  0.00     0.001 A 
HETATM   31  C   UNL     1      44.541 -11.922   6.596  1.00  0.00     0.000 A 
HETATM   32  C   UNL     1      44.224 -13.280   6.551  1.00  0.00     0.001 A 
HETATM   33  C   UNL     1      42.922 -13.691   6.253  1.00  0.00     0.015 A 
ENDBRANCH  26  28
ENDBRANCH   1  26
TORSDOF 5
ENDMDL
MODEL 8
REMARK VINA RESULT:      -9.0      5.193      8.223
REMARK  5 active torsions:
REMARK  status: ('A' for Active; 'I' for Inactive)
REMARK    1  A    between atoms: C_4  and  C_5 
REMARK    2  A    between atoms: C_5  and  C_6 
REMARK    3  A    between atoms: C_12  and  S_13 
REMARK    4  A    between atoms: S_13  and  C_14 
REMARK    5  A    between atoms: C_14  and  C_15 
ROOT
HETATM    1  C   UNL     1      44.007  -9.709   7.871  1.00  0.00     0.283 C 
HETATM    2  O   UNL     1      43.287 -10.931   7.944  1.00  0.00    -0.303 OA
HETATM    3  C   UNL     1      42.601 -11.154   6.776  1.00  0.00     0.201 A 
HETATM    4  C   UNL     1      41.396 -10.505   6.569  1.00  0.00     0.144 A 
HETATM    5  N   UNL     1      40.654 -10.853   5.502  1.00  0.00    -0.142 NA
HETATM    6  N   UNL     1      41.133 -11.820   4.663  1.00  0.00    -0.122 NA
HETATM    7  C   UNL     1      42.326 -12.410   4.917  1.00  0.00     0.212 A 
HETATM    8  N   UNL     1      43.097 -12.122   5.979  1.00  0.00    -0.195 NA
HETATM    9  C   UNL     1      40.916  -9.455   7.462  1.00  0.00     0.020 A 
HETATM   10  C   UNL     1      41.824  -8.509   7.994  1.00  0.00     0.023 A 
HETATM   11  N   UNL     1      43.186  -8.494   7.625  1.00  0.00    -0.259 NA
HETATM   12  C   UNL     1      39.554  -9.363   7.802  1.00  0.00     0.016 A 
HETATM   13  C   UNL     1      39.093  -8.361   8.655  1.00  0.00     0.001 A 
HETATM   14  C   UNL     1      39.985  -7.425   9.167  1.00  0.00     0.002 A 
HETATM   15  C   UNL     1      41.337  -7.490   8.827  1.00  0.00     0.024 A 
HETATM   16  H   UNL     1      43.664  -7.715   8.091  1.00  0.00     0.130 HD
ENDROOT
BRANCH   7  17
HETATM   17  S   UNL     1      42.923 -13.655   3.802  1.00  0.00    -0.084 SA
BRANCH  17  18
HETATM   18  C   UNL     1      43.045 -15.056   4.956  1.00  0.00     0.121 C 
BRANCH  18  19
HETATM   19  C   UNL     1      43.240 -16.365   4.228  1.00  0.00    -0.048 A 
HETATM   20  C   UNL     1      42.595 -16.599   3.002  1.00  0.00     0.009 A 
HETATM   21  C   UNL     1      42.780 -17.805   2.324  1.00  0.00     0.024 A 
HETATM   22  C   UNL     1      43.604 -18.787   2.868  1.00  0.00     0.034 A 
HETATM   23 CL   UNL     1      43.834 -20.273   2.029  1.00  0.00    -0.084 Cl
HETATM   24  C   UNL     1      44.243 -18.575   4.088  1.00  0.00     0.024 A 
HETATM   25  C   UNL     1      44.060 -17.369   4.767  1.00  0.00     0.009 A 
ENDBRANCH  18  19
ENDBRANCH  17  18
ENDBRANCH   7  17
BRANCH   1  26
HETATM   26  C   UNL     1      44.794  -9.468   9.188  1.00  0.00     0.203 C 
HETATM   27  O   UNL     1      46.011  -9.244   9.176  1.00  0.00    -0.288 OA
BRANCH  26  28
HETATM   28  C   UNL     1      44.095  -9.529  10.500  1.00  0.00     0.014 A 
HETATM   29  C   UNL     1      43.832  -8.317  11.158  1.00  0.00     0.015 A 
HETATM   30  C   UNL     1      43.175  -8.311  12.388  1.00  0.00     0.001 A 
HETATM   31  C   UNL     1      42.785  -9.515  12.973  1.00  0.00     0.000 A 
HETATM   32  C   UNL     1      43.058 -10.724  12.331  1.00  0.00     0.001 A 
HETATM   33  C   UNL     1      43.715 -10.735  11.098  1.00  0.00     0.015 A 
ENDBRANCH  26  28
ENDBRANCH   1  26
TORSDOF 5
ENDMDL
MODEL 9
REMARK VINA RESULT:      -9.0      4.360      7.592
REMARK  5 active torsions:
REMARK  status: ('A' for Active; 'I' for Inactive)
REMARK    1  A    between atoms: C_4  and  C_5 
REMARK    2  A    between atoms: C_5  and  C_6 
REMARK    3  A    between atoms: C_12  and  S_13 
REMARK    4  A    between atoms: S_13  and  C_14 
REMARK    5  A    between atoms: C_14  and  C_15 
ROOT
HETATM    1  C   UNL     1      41.752 -14.620   3.256  1.00  0.00     0.283 C 
HETATM    2  O   UNL     1      42.001 -13.225   3.159  1.00  0.00    -0.303 OA
HETATM    3  C   UNL     1      40.914 -12.512   3.600  1.00  0.00     0.201 A 
HETATM    4  C   UNL     1      39.836 -12.336   2.751  1.00  0.00     0.144 A 
HETATM    5  N   UNL     1      38.851 -11.501   3.129  1.00  0.00    -0.142 NA
HETATM    6  N   UNL     1      38.953 -10.879   4.342  1.00  0.00    -0.122 NA
HETATM    7  C   UNL     1      40.031 -11.103   5.131  1.00  0.00     0.212 A 
HETATM    8  N   UNL     1      41.056 -11.904   4.795  1.00  0.00    -0.195 NA
HETATM    9  C   UNL     1      39.733 -13.031   1.472  1.00  0.00     0.020 A 
HETATM   10  C   UNL     1      40.142 -14.382   1.366  1.00  0.00     0.023 A 
HETATM   11  N   UNL     1      40.580 -15.118   2.487  1.00  0.00    -0.259 NA
HETATM   12  C   UNL     1      39.223 -12.379   0.334  1.00  0.00     0.016 A 
HETATM   13  C   UNL     1      39.124 -13.042  -0.889  1.00  0.00     0.001 A 
HETATM   14  C   UNL     1      39.515 -14.372  -0.988  1.00  0.00     0.002 A 
HETATM   15  C   UNL     1      40.006 -15.041   0.134  1.00  0.00     0.024 A 
HETATM   16  H   UNL     1      40.796 -16.081   2.208  1.00  0.00     0.130 HD
ENDROOT
BRANCH   7  17
HETATM   17  S   UNL     1      40.129 -10.287   6.704  1.00  0.00    -0.084 SA
BRANCH  17  18
HETATM   18  C   UNL     1      41.929 -10.040   6.802  1.00  0.00     0.121 C 
BRANCH  18  19
HETATM   19  C   UNL     1      42.360  -9.613   8.185  1.00  0.00    -0.048 A 
HETATM   20  C   UNL     1      43.722  -9.572   8.524  1.00  0.00     0.009 A 
HETATM   21  C   UNL     1      44.122  -9.170   9.800  1.00  0.00     0.024 A 
HETATM   22  C   UNL     1      43.166  -8.814  10.746  1.00  0.00     0.034 A 
HETATM   23 CL   UNL     1      43.661  -8.316  12.318  1.00  0.00    -0.084 Cl
HETATM   24  C   UNL     1      41.810  -8.860  10.430  1.00  0.00     0.024 A 
HETATM   25  C   UNL     1      41.407  -9.261   9.154  1.00  0.00     0.009 A 
ENDBRANCH  18  19
ENDBRANCH  17  18
ENDBRANCH   7  17
BRANCH   1  26
HETATM   26  C   UNL     1      42.989 -15.424   2.771  1.00  0.00     0.203 C 
HETATM   27  O   UNL     1      43.665 -15.041   1.809  1.00  0.00    -0.288 OA
BRANCH  26  28
HETATM   28  C   UNL     1      43.368 -16.695   3.446  1.00  0.00     0.014 A 
HETATM   29  C   UNL     1      43.517 -16.674   4.841  1.00  0.00     0.015 A 
HETATM   30  C   UNL     1      43.866 -17.836   5.531  1.00  0.00     0.001 A 
HETATM   31  C   UNL     1      44.078 -19.021   4.830  1.00  0.00     0.000 A 
HETATM   32  C   UNL     1      43.946 -19.045   3.441  1.00  0.00     0.001 A 
HETATM   33  C   UNL     1      43.596 -17.884   2.746  1.00  0.00     0.015 A 
ENDBRANCH  26  28
ENDBRANCH   1  26
TORSDOF 5
ENDMDL
MODEL 10
REMARK VINA RESULT:      -8.9      4.875      7.995
REMARK  5 active torsions:
REMARK  status: ('A' for Active; 'I' for Inactive)
REMARK    1  A    between atoms: C_4  and  C_5 
REMARK    2  A    between atoms: C_5  and  C_6 
REMARK    3  A    between atoms: C_12  and  S_13 
REMARK    4  A    between atoms: S_13  and  C_14 
REMARK    5  A    between atoms: C_14  and  C_15 
ROOT
HETATM    1  C   UNL     1      41.452  -9.921   7.508  1.00  0.00     0.283 C 
HETATM    2  O   UNL     1      41.985 -10.221   6.226  1.00  0.00    -0.303 OA
HETATM    3  C   UNL     1      42.465 -11.506   6.195  1.00  0.00     0.201 A 
HETATM    4  C   UNL     1      43.715 -11.769   6.729  1.00  0.00     0.144 A 
HETATM    5  N   UNL     1      44.246 -12.992   6.548  1.00  0.00    -0.142 NA
HETATM    6  N   UNL     1      43.520 -13.923   5.858  1.00  0.00    -0.122 NA
HETATM    7  C   UNL     1      42.297 -13.603   5.370  1.00  0.00     0.212 A 
HETATM    8  N   UNL     1      41.728 -12.393   5.498  1.00  0.00    -0.195 NA
HETATM    9  C   UNL     1      44.462 -10.770   7.486  1.00  0.00     0.020 A 
HETATM   10  C   UNL     1      43.786  -9.913   8.387  1.00  0.00     0.023 A 
HETATM   11  N   UNL     1      42.405 -10.042   8.643  1.00  0.00    -0.259 NA
HETATM   12  C   UNL     1      45.857 -10.647   7.340  1.00  0.00     0.016 A 
HETATM   13  C   UNL     1      46.572  -9.693   8.062  1.00  0.00     0.001 A 
HETATM   14  C   UNL     1      45.908  -8.860   8.955  1.00  0.00     0.002 A 
HETATM   15  C   UNL     1      44.528  -8.980   9.127  1.00  0.00     0.024 A 
HETATM   16  H   UNL     1      42.116  -9.354   9.347  1.00  0.00     0.130 HD
ENDROOT
BRANCH   7  17
HETATM   17  S   UNL     1      41.375 -14.838   4.488  1.00  0.00    -0.084 SA
BRANCH  17  18
HETATM   18  C   UNL     1      42.600 -15.271   3.214  1.00  0.00     0.121 C 
BRANCH  18  19
HETATM   19  C   UNL     1      42.988 -16.730   3.286  1.00  0.00    -0.048 A 
HETATM   20  C   UNL     1      43.607 -17.244   4.436  1.00  0.00     0.009 A 
HETATM   21  C   UNL     1      43.960 -18.593   4.507  1.00  0.00     0.024 A 
HETATM   22  C   UNL     1      43.703 -19.434   3.428  1.00  0.00     0.034 A 
HETATM   23 CL   UNL     1      44.136 -21.098   3.518  1.00  0.00    -0.084 Cl
HETATM   24  C   UNL     1      43.099 -18.937   2.275  1.00  0.00     0.024 A 
HETATM   25  C   UNL     1      42.745 -17.588   2.203  1.00  0.00     0.009 A 
ENDBRANCH  18  19
ENDBRANCH  17  18
ENDBRANCH   7  17
BRANCH   1  26
HETATM   26  C   UNL     1      40.894  -8.471   7.535  1.00  0.00     0.203 C 
HETATM   27  O   UNL     1      40.170  -8.046   6.627  1.00  0.00    -0.288 OA
BRANCH  26  28
HETATM   28  C   UNL     1      41.247  -7.554   8.652  1.00  0.00     0.014 A 
HETATM   29  C   UNL     1      40.603  -7.747   9.884  1.00  0.00     0.015 A 
HETATM   30  C   UNL     1      40.897  -6.921  10.970  1.00  0.00     0.001 A 
HETATM   31  C   UNL     1      41.828  -5.893  10.828  1.00  0.00     0.000 A 
HETATM   32  C   UNL     1      42.459  -5.687   9.601  1.00  0.00     0.001 A 
HETATM   33  C   UNL     1      42.169  -6.512   8.511  1.00  0.00     0.015 A 
ENDBRANCH  26  28
ENDBRANCH   1  26
TORSDOF 5
ENDMDL
