MODEL 1
REMARK VINA RESULT:      -9.3      0.000      0.000
REMARK  3 active torsions:
REMARK  status: ('A' for Active; 'I' for Inactive)
REMARK    1  A    between atoms: O_2  and  C_3 
REMARK    2  A    between atoms: C_5  and  N_6 
REMARK       I    between atoms: N_6  and  C_7 
REMARK       I    between atoms: C_7  and  N_8 
REMARK    3  A    between atoms: C_11  and  C_12 
ROOT
HETATM    1  N   UNL     1      39.064 -13.385  -0.279  1.00  0.00    -0.306 N 
HETATM    2  C   UNL     1      40.401 -13.211   0.004  1.00  0.00     0.323 C 
HETATM    3  N   UNL     1      40.946 -14.146   0.895  1.00  0.00    -0.330 N 
HETATM    4  C   UNL     1      40.147 -15.162   1.576  1.00  0.00     0.155 C 
HETATM    5  C   UNL     1      40.942 -16.091   2.435  1.00  0.00     0.001 C 
HETATM    6  C   UNL     1      42.274 -16.045   2.603  1.00  0.00    -0.046 C 
HETATM    7  C   UNL     1      43.082 -15.006   1.875  1.00  0.00     0.059 C 
HETATM    8  C   UNL     1      42.230 -13.793   1.503  1.00  0.00     0.132 C 
HETATM    9  O   UNL     1      41.081 -12.292  -0.449  1.00  0.00    -0.247 OA
HETATM   10  H   UNL     1      38.565 -14.113   0.207  1.00  0.00     0.171 HD
ENDROOT
BRANCH   1  11
HETATM   11  C   UNL     1      38.224 -12.563  -1.066  1.00  0.00     0.077 A 
HETATM   12  C   UNL     1      37.894 -11.238  -0.767  1.00  0.00     0.069 A 
HETATM   13  C   UNL     1      37.031 -10.519  -1.605  1.00  0.00     0.070 A 
HETATM   14  C   UNL     1      36.490 -11.134  -2.739  1.00  0.00     0.040 A 
HETATM   15  C   UNL     1      36.818 -12.449  -3.053  1.00  0.00     0.047 A 
HETATM   16  C   UNL     1      37.684 -13.146  -2.220  1.00  0.00     0.143 A 
HETATM   17  F   UNL     1      37.992 -14.418  -2.522  1.00  0.00    -0.204 F 
BRANCH  13  18
HETATM   18  O   UNL     1      36.635  -9.221  -1.424  1.00  0.00    -0.356 OA
HETATM   19  C   UNL     1      35.688  -8.704  -2.351  1.00  0.00     0.210 C 
ENDBRANCH  13  18
ENDBRANCH   1  11
BRANCH   6  20
HETATM   20  C   UNL     1      43.008 -16.917   3.472  1.00  0.00    -0.002 A 
HETATM   21  C   UNL     1      43.305 -18.309   3.287  1.00  0.00     0.003 A 
HETATM   22  C   UNL     1      44.052 -18.720   4.394  1.00  0.00     0.043 A 
HETATM   23  C   UNL     1      43.007 -19.270   2.295  1.00  0.00     0.014 A 
HETATM   24  C   UNL     1      44.528 -20.029   4.547  1.00  0.00     0.030 A 
HETATM   25  N   UNL     1      44.189 -17.629   5.220  1.00  0.00    -0.364 N 
HETATM   26  C   UNL     1      44.231 -20.952   3.541  1.00  0.00     0.002 A 
HETATM   27  C   UNL     1      43.478 -20.582   2.430  1.00  0.00     0.001 A 
HETATM   28  H   UNL     1      44.681 -17.638   6.102  1.00  0.00     0.165 HD
HETATM   29  C   UNL     1      43.562 -16.538   4.677  1.00  0.00     0.101 A 
ENDBRANCH   6  20
TORSDOF 3
ENDMDL
MODEL 2
REMARK VINA RESULT:      -9.0      2.070      2.246
REMARK  3 active torsions:
REMARK  status: ('A' for Active; 'I' for Inactive)
REMARK    1  A    between atoms: O_2  and  C_3 
REMARK    2  A    between atoms: C_5  and  N_6 
REMARK       I    between atoms: N_6  and  C_7 
REMARK       I    between atoms: C_7  and  N_8 
REMARK    3  A    between atoms: C_11  and  C_12 
ROOT
HETATM    1  N   UNL     1      40.932 -12.914  -0.602  1.00  0.00    -0.306 N 
HETATM    2  C   UNL     1      41.383 -12.624   0.667  1.00  0.00     0.323 C 
HETATM    3  N   UNL     1      41.791 -13.734   1.420  1.00  0.00    -0.330 N 
HETATM    4  C   UNL     1      41.645 -15.112   0.957  1.00  0.00     0.155 C 
HETATM    5  C   UNL     1      42.200 -16.134   1.895  1.00  0.00     0.001 C 
HETATM    6  C   UNL     1      42.793 -15.869   3.071  1.00  0.00    -0.046 C 
HETATM    7  C   UNL     1      42.954 -14.442   3.519  1.00  0.00     0.059 C 
HETATM    8  C   UNL     1      41.919 -13.528   2.864  1.00  0.00     0.132 C 
HETATM    9  O   UNL     1      41.402 -11.490   1.143  1.00  0.00    -0.247 OA
HETATM   10  H   UNL     1      40.869 -13.881  -0.876  1.00  0.00     0.171 HD
ENDROOT
BRANCH   1  11
HETATM   11  C   UNL     1      40.382 -12.026  -1.557  1.00  0.00     0.077 A 
HETATM   12  C   UNL     1      41.110 -11.068  -2.270  1.00  0.00     0.069 A 
HETATM   13  C   UNL     1      40.460 -10.221  -3.178  1.00  0.00     0.070 A 
HETATM   14  C   UNL     1      39.077 -10.328  -3.363  1.00  0.00     0.040 A 
HETATM   15  C   UNL     1      38.344 -11.283  -2.667  1.00  0.00     0.047 A 
HETATM   16  C   UNL     1      39.002 -12.124  -1.778  1.00  0.00     0.143 A 
HETATM   17  F   UNL     1      38.290 -13.040  -1.101  1.00  0.00    -0.204 F 
BRANCH  13  18
HETATM   18  O   UNL     1      41.056  -9.250  -3.935  1.00  0.00    -0.356 OA
HETATM   19  C   UNL     1      41.693  -8.189  -3.233  1.00  0.00     0.210 C 
ENDBRANCH  13  18
ENDBRANCH   1  11
BRANCH   6  20
HETATM   20  C   UNL     1      43.274 -16.871   3.975  1.00  0.00    -0.002 A 
HETATM   21  C   UNL     1      43.473 -18.270   3.726  1.00  0.00     0.003 A 
HETATM   22  C   UNL     1      43.966 -18.831   4.907  1.00  0.00     0.043 A 
HETATM   23  C   UNL     1      43.273 -19.125   2.619  1.00  0.00     0.014 A 
HETATM   24  C   UNL     1      44.284 -20.190   5.027  1.00  0.00     0.030 A 
HETATM   25  N   UNL     1      44.048 -17.819   5.835  1.00  0.00    -0.364 N 
HETATM   26  C   UNL     1      44.092 -21.006   3.910  1.00  0.00     0.002 A 
HETATM   27  C   UNL     1      43.591 -20.484   2.721  1.00  0.00     0.001 A 
HETATM   28  H   UNL     1      44.369 -17.940   6.785  1.00  0.00     0.165 HD
HETATM   29  C   UNL     1      43.632 -16.635   5.287  1.00  0.00     0.101 A 
ENDBRANCH   6  20
TORSDOF 3
ENDMDL
MODEL 3
REMARK VINA RESULT:      -8.8      6.291      8.734
REMARK  3 active torsions:
REMARK  status: ('A' for Active; 'I' for Inactive)
REMARK    1  A    between atoms: O_2  and  C_3 
REMARK    2  A    between atoms: C_5  and  N_6 
REMARK       I    between atoms: N_6  and  C_7 
REMARK       I    between atoms: C_7  and  N_8 
REMARK    3  A    between atoms: C_11  and  C_12 
ROOT
HETATM    1  N   UNL     1      43.715 -11.918   7.773  1.00  0.00    -0.306 N 
HETATM    2  C   UNL     1      43.243 -11.950   6.480  1.00  0.00     0.323 C 
HETATM    3  N   UNL     1      43.316 -13.201   5.851  1.00  0.00    -0.330 N 
HETATM    4  C   UNL     1      43.952 -14.366   6.460  1.00  0.00     0.155 C 
HETATM    5  C   UNL     1      43.864 -15.610   5.638  1.00  0.00     0.001 C 
HETATM    6  C   UNL     1      43.265 -15.709   4.440  1.00  0.00    -0.046 C 
HETATM    7  C   UNL     1      42.595 -14.503   3.840  1.00  0.00     0.059 C 
HETATM    8  C   UNL     1      43.180 -13.204   4.393  1.00  0.00     0.132 C 
HETATM    9  O   UNL     1      42.816 -10.962   5.884  1.00  0.00    -0.247 OA
HETATM   10  H   UNL     1      44.128 -12.756   8.151  1.00  0.00     0.171 HD
ENDROOT
BRANCH   1  11
HETATM   11  C   UNL     1      43.849 -10.797   8.627  1.00  0.00     0.077 A 
HETATM   12  C   UNL     1      42.785 -10.127   9.239  1.00  0.00     0.069 A 
HETATM   13  C   UNL     1      43.028  -9.010  10.049  1.00  0.00     0.070 A 
HETATM   14  C   UNL     1      44.338  -8.558  10.238  1.00  0.00     0.040 A 
HETATM   15  C   UNL     1      45.406  -9.223   9.643  1.00  0.00     0.047 A 
HETATM   16  C   UNL     1      45.153 -10.335   8.851  1.00  0.00     0.143 A 
HETATM   17  F   UNL     1      46.185 -10.970   8.272  1.00  0.00    -0.204 F 
BRANCH  13  18
HETATM   18  O   UNL     1      42.078  -8.273  10.703  1.00  0.00    -0.356 OA
HETATM   19  C   UNL     1      42.233  -8.127  12.109  1.00  0.00     0.210 C 
ENDBRANCH  13  18
ENDBRANCH   1  11
BRANCH   6  20
HETATM   20  C   UNL     1      43.236 -16.903   3.649  1.00  0.00    -0.002 A 
HETATM   21  C   UNL     1      43.535 -18.246   4.058  1.00  0.00     0.003 A 
HETATM   22  C   UNL     1      43.356 -19.065   2.940  1.00  0.00     0.043 A 
HETATM   23  C   UNL     1      43.951 -18.853   5.264  1.00  0.00     0.014 A 
HETATM   24  C   UNL     1      43.553 -20.452   2.974  1.00  0.00     0.030 A 
HETATM   25  N   UNL     1      42.980 -18.252   1.896  1.00  0.00    -0.364 N 
HETATM   26  C   UNL     1      43.949 -21.025   4.185  1.00  0.00     0.002 A 
HETATM   27  C   UNL     1      44.149 -20.238   5.316  1.00  0.00     0.001 A 
HETATM   28  H   UNL     1      42.789 -18.577   0.959  1.00  0.00     0.165 HD
HETATM   29  C   UNL     1      42.907 -16.949   2.310  1.00  0.00     0.101 A 
ENDBRANCH   6  20
TORSDOF 3
ENDMDL
MODEL 4
REMARK VINA RESULT:      -8.3      7.811      9.866
REMARK  3 active torsions:
REMARK  status: ('A' for Active; 'I' for Inactive)
REMARK    1  A    between atoms: O_2  and  C_3 
REMARK    2  A    between atoms: C_5  and  N_6 
REMARK       I    between atoms: N_6  and  C_7 
REMARK       I    between atoms: C_7  and  N_8 
REMARK    3  A    between atoms: C_11  and  C_12 
ROOT
HETATM    1  N   UNL     1      42.639  -9.901   8.764  1.00  0.00    -0.306 N 
HETATM    2  C   UNL     1      43.629 -10.036   7.816  1.00  0.00     0.323 C 
HETATM    3  N   UNL     1      43.345 -10.943   6.785  1.00  0.00    -0.330 N 
HETATM    4  C   UNL     1      42.147 -11.781   6.765  1.00  0.00     0.155 C 
HETATM    5  C   UNL     1      42.018 -12.630   5.543  1.00  0.00     0.001 C 
HETATM    6  C   UNL     1      42.890 -12.664   4.523  1.00  0.00    -0.046 C 
HETATM    7  C   UNL     1      44.105 -11.777   4.552  1.00  0.00     0.059 C 
HETATM    8  C   UNL     1      44.484 -11.392   5.982  1.00  0.00     0.132 C 
HETATM    9  O   UNL     1      44.706  -9.445   7.864  1.00  0.00    -0.247 OA
HETATM   10  H   UNL     1      41.826 -10.491   8.692  1.00  0.00     0.171 HD
ENDROOT
BRANCH   1  11
HETATM   11  C   UNL     1      42.668  -9.134   9.953  1.00  0.00     0.077 A 
HETATM   12  C   UNL     1      42.314  -7.785  10.043  1.00  0.00     0.069 A 
HETATM   13  C   UNL     1      42.402  -7.113  11.269  1.00  0.00     0.070 A 
HETATM   14  C   UNL     1      42.855  -7.792  12.406  1.00  0.00     0.040 A 
HETATM   15  C   UNL     1      43.201  -9.138  12.331  1.00  0.00     0.047 A 
HETATM   16  C   UNL     1      43.098  -9.795  11.112  1.00  0.00     0.143 A 
HETATM   17  F   UNL     1      43.440 -11.092  11.041  1.00  0.00    -0.204 F 
BRANCH  13  18
HETATM   18  O   UNL     1      42.084  -5.799  11.488  1.00  0.00    -0.356 OA
HETATM   19  C   UNL     1      42.205  -5.323  12.824  1.00  0.00     0.210 C 
ENDBRANCH  13  18
ENDBRANCH   1  11
BRANCH   6  20
HETATM   20  C   UNL     1      42.767 -13.525   3.384  1.00  0.00    -0.002 A 
HETATM   21  C   UNL     1      42.986 -14.941   3.314  1.00  0.00     0.003 A 
HETATM   22  C   UNL     1      42.732 -15.332   1.997  1.00  0.00     0.043 A 
HETATM   23  C   UNL     1      43.387 -15.936   4.235  1.00  0.00     0.014 A 
HETATM   24  C   UNL     1      42.839 -16.660   1.564  1.00  0.00     0.030 A 
HETATM   25  N   UNL     1      42.388 -14.199   1.296  1.00  0.00    -0.364 N 
HETATM   26  C   UNL     1      43.221 -17.622   2.501  1.00  0.00     0.002 A 
HETATM   27  C   UNL     1      43.495 -17.268   3.819  1.00  0.00     0.001 A 
HETATM   28  H   UNL     1      42.156 -14.184   0.313  1.00  0.00     0.165 HD
HETATM   29  C   UNL     1      42.408 -13.105   2.120  1.00  0.00     0.101 A 
ENDBRANCH   6  20
TORSDOF 3
ENDMDL
MODEL 5
REMARK VINA RESULT:      -8.3      1.307      2.060
REMARK  3 active torsions:
REMARK  status: ('A' for Active; 'I' for Inactive)
REMARK    1  A    between atoms: O_2  and  C_3 
REMARK    2  A    between atoms: C_5  and  N_6 
REMARK       I    between atoms: N_6  and  C_7 
REMARK       I    between atoms: C_7  and  N_8 
REMARK    3  A    between atoms: C_11  and  C_12 
ROOT
HETATM    1  N   UNL     1      38.733 -12.829  -0.189  1.00  0.00    -0.306 N 
HETATM    2  C   UNL     1      40.075 -12.725   0.107  1.00  0.00     0.323 C 
HETATM    3  N   UNL     1      40.611 -13.806   0.821  1.00  0.00    -0.330 N 
HETATM    4  C   UNL     1      39.801 -14.912   1.327  1.00  0.00     0.155 C 
HETATM    5  C   UNL     1      40.588 -15.984   2.007  1.00  0.00     0.001 C 
HETATM    6  C   UNL     1      41.921 -15.986   2.169  1.00  0.00    -0.046 C 
HETATM    7  C   UNL     1      42.740 -14.850   1.620  1.00  0.00     0.059 C 
HETATM    8  C   UNL     1      41.905 -13.579   1.468  1.00  0.00     0.132 C 
HETATM    9  O   UNL     1      40.766 -11.752  -0.190  1.00  0.00    -0.247 OA
HETATM   10  H   UNL     1      38.226 -13.622   0.171  1.00  0.00     0.171 HD
ENDROOT
BRANCH   1  11
HETATM   11  C   UNL     1      37.901 -11.873  -0.817  1.00  0.00     0.077 A 
HETATM   12  C   UNL     1      37.238 -10.834  -0.157  1.00  0.00     0.069 A 
HETATM   13  C   UNL     1      36.416  -9.954  -0.874  1.00  0.00     0.070 A 
HETATM   14  C   UNL     1      36.249 -10.123  -2.252  1.00  0.00     0.040 A 
HETATM   15  C   UNL     1      36.911 -11.148  -2.922  1.00  0.00     0.047 A 
HETATM   16  C   UNL     1      37.732 -12.006  -2.201  1.00  0.00     0.143 A 
HETATM   17  F   UNL     1      38.363 -12.999  -2.849  1.00  0.00    -0.204 F 
BRANCH  13  18
HETATM   18  O   UNL     1      35.719  -8.900  -0.347  1.00  0.00    -0.356 OA
HETATM   19  C   UNL     1      34.662  -9.214   0.552  1.00  0.00     0.210 C 
ENDBRANCH  13  18
ENDBRANCH   1  11
BRANCH   6  20
HETATM   20  C   UNL     1      42.647 -17.004   2.869  1.00  0.00    -0.002 A 
HETATM   21  C   UNL     1      42.797 -17.172   4.286  1.00  0.00     0.003 A 
HETATM   22  C   UNL     1      43.582 -18.311   4.484  1.00  0.00     0.043 A 
HETATM   23  C   UNL     1      42.356 -16.464   5.427  1.00  0.00     0.014 A 
HETATM   24  C   UNL     1      43.928 -18.784   5.757  1.00  0.00     0.030 A 
HETATM   25  N   UNL     1      43.905 -18.804   3.241  1.00  0.00    -0.364 N 
HETATM   26  C   UNL     1      43.463 -18.072   6.865  1.00  0.00     0.002 A 
HETATM   27  C   UNL     1      42.689 -16.926   6.706  1.00  0.00     0.001 A 
HETATM   28  H   UNL     1      44.473 -19.623   3.081  1.00  0.00     0.165 HD
HETATM   29  C   UNL     1      43.349 -18.024   2.261  1.00  0.00     0.101 A 
ENDBRANCH   6  20
TORSDOF 3
ENDMDL
MODEL 6
REMARK VINA RESULT:      -8.2      6.227     10.342
REMARK  3 active torsions:
REMARK  status: ('A' for Active; 'I' for Inactive)
REMARK    1  A    between atoms: O_2  and  C_3 
REMARK    2  A    between atoms: C_5  and  N_6 
REMARK       I    between atoms: N_6  and  C_7 
REMARK       I    between atoms: C_7  and  N_8 
REMARK    3  A    between atoms: C_11  and  C_12 
ROOT
HETATM    1  N   UNL     1      43.429 -16.725   5.295  1.00  0.00    -0.306 N 
HETATM    2  C   UNL     1      42.261 -15.996   5.252  1.00  0.00     0.323 C 
HETATM    3  N   UNL     1      42.384 -14.655   5.642  1.00  0.00    -0.330 N 
HETATM    4  C   UNL     1      43.621 -14.085   6.170  1.00  0.00     0.155 C 
HETATM    5  C   UNL     1      43.544 -12.623   6.465  1.00  0.00     0.001 C 
HETATM    6  C   UNL     1      42.462 -11.849   6.281  1.00  0.00    -0.046 C 
HETATM    7  C   UNL     1      41.205 -12.449   5.714  1.00  0.00     0.059 C 
HETATM    8  C   UNL     1      41.139 -13.955   5.965  1.00  0.00     0.132 C 
HETATM    9  O   UNL     1      41.171 -16.469   4.935  1.00  0.00    -0.247 OA
HETATM   10  H   UNL     1      44.258 -16.278   5.652  1.00  0.00     0.171 HD
ENDROOT
BRANCH   1  11
HETATM   11  C   UNL     1      43.605 -18.107   5.044  1.00  0.00     0.077 A 
HETATM   12  C   UNL     1      43.814 -18.670   3.782  1.00  0.00     0.069 A 
HETATM   13  C   UNL     1      43.952 -20.057   3.643  1.00  0.00     0.070 A 
HETATM   14  C   UNL     1      43.871 -20.883   4.770  1.00  0.00     0.040 A 
HETATM   15  C   UNL     1      43.674 -20.333   6.033  1.00  0.00     0.047 A 
HETATM   16  C   UNL     1      43.549 -18.955   6.158  1.00  0.00     0.143 A 
HETATM   17  F   UNL     1      43.350 -18.429   7.378  1.00  0.00    -0.204 F 
BRANCH  13  18
HETATM   18  O   UNL     1      44.162 -20.728   2.468  1.00  0.00    -0.356 OA
HETATM   19  C   UNL     1      43.294 -20.415   1.385  1.00  0.00     0.210 C 
ENDBRANCH  13  18
ENDBRANCH   1  11
BRANCH   6  20
HETATM   20  C   UNL     1      42.399 -10.458   6.618  1.00  0.00    -0.002 A 
HETATM   21  C   UNL     1      42.989  -9.789   7.743  1.00  0.00     0.003 A 
HETATM   22  C   UNL     1      42.660  -8.436   7.635  1.00  0.00     0.043 A 
HETATM   23  C   UNL     1      43.763 -10.197   8.853  1.00  0.00     0.014 A 
HETATM   24  C   UNL     1      43.079  -7.475   8.564  1.00  0.00     0.030 A 
HETATM   25  N   UNL     1      41.892  -8.293   6.503  1.00  0.00    -0.364 N 
HETATM   26  C   UNL     1      43.857  -7.906   9.642  1.00  0.00     0.002 A 
HETATM   27  C   UNL     1      44.194  -9.249   9.788  1.00  0.00     0.001 A 
HETATM   28  H   UNL     1      41.506  -7.417   6.181  1.00  0.00     0.165 HD
HETATM   29  C   UNL     1      41.726  -9.504   5.884  1.00  0.00     0.101 A 
ENDBRANCH   6  20
TORSDOF 3
ENDMDL
MODEL 7
REMARK VINA RESULT:      -8.1      2.138      2.570
REMARK  3 active torsions:
REMARK  status: ('A' for Active; 'I' for Inactive)
REMARK    1  A    between atoms: O_2  and  C_3 
REMARK    2  A    between atoms: C_5  and  N_6 
REMARK       I    between atoms: N_6  and  C_7 
REMARK       I    between atoms: C_7  and  N_8 
REMARK    3  A    between atoms: C_11  and  C_12 
ROOT
HETATM    1  N   UNL     1      39.736 -11.819  -0.866  1.00  0.00    -0.306 N 
HETATM    2  C   UNL     1      39.431 -13.144  -0.648  1.00  0.00     0.323 C 
HETATM    3  N   UNL     1      40.073 -13.728   0.454  1.00  0.00    -0.330 N 
HETATM    4  C   UNL     1      41.083 -13.035   1.251  1.00  0.00     0.155 C 
HETATM    5  C   UNL     1      41.591 -13.823   2.413  1.00  0.00     0.001 C 
HETATM    6  C   UNL     1      41.193 -15.062   2.746  1.00  0.00    -0.046 C 
HETATM    7  C   UNL     1      40.135 -15.750   1.926  1.00  0.00     0.059 C 
HETATM    8  C   UNL     1      40.075 -15.191   0.505  1.00  0.00     0.132 C 
HETATM    9  O   UNL     1      38.684 -13.801  -1.370  1.00  0.00    -0.247 OA
HETATM   10  H   UNL     1      40.427 -11.385  -0.275  1.00  0.00     0.171 HD
ENDROOT
BRANCH   1  11
HETATM   11  C   UNL     1      39.317 -10.991  -1.934  1.00  0.00     0.077 A 
HETATM   12  C   UNL     1      37.985 -10.765  -2.295  1.00  0.00     0.069 A 
HETATM   13  C   UNL     1      37.681  -9.943  -3.389  1.00  0.00     0.070 A 
HETATM   14  C   UNL     1      38.714  -9.356  -4.128  1.00  0.00     0.040 A 
HETATM   15  C   UNL     1      40.043  -9.565  -3.773  1.00  0.00     0.047 A 
HETATM   16  C   UNL     1      40.330 -10.373  -2.679  1.00  0.00     0.143 A 
HETATM   17  F   UNL     1      41.614 -10.580  -2.344  1.00  0.00    -0.204 F 
BRANCH  13  18
HETATM   18  O   UNL     1      36.424  -9.642  -3.840  1.00  0.00    -0.356 OA
HETATM   19  C   UNL     1      36.337  -8.813  -4.993  1.00  0.00     0.210 C 
ENDBRANCH  13  18
ENDBRANCH   1  11
BRANCH   6  20
HETATM   20  C   UNL     1      41.732 -15.817   3.838  1.00  0.00    -0.002 A 
HETATM   21  C   UNL     1      42.652 -16.917   3.788  1.00  0.00     0.003 A 
HETATM   22  C   UNL     1      42.890 -17.314   5.106  1.00  0.00     0.043 A 
HETATM   23  C   UNL     1      43.302 -17.628   2.754  1.00  0.00     0.014 A 
HETATM   24  C   UNL     1      43.753 -18.365   5.440  1.00  0.00     0.030 A 
HETATM   25  N   UNL     1      42.136 -16.499   5.919  1.00  0.00    -0.364 N 
HETATM   26  C   UNL     1      44.394 -19.039   4.397  1.00  0.00     0.002 A 
HETATM   27  C   UNL     1      44.171 -18.679   3.070  1.00  0.00     0.001 A 
HETATM   28  H   UNL     1      42.108 -16.565   6.926  1.00  0.00     0.165 HD
HETATM   29  C   UNL     1      41.433 -15.595   5.166  1.00  0.00     0.101 A 
ENDBRANCH   6  20
TORSDOF 3
ENDMDL
MODEL 8
REMARK VINA RESULT:      -8.0      7.221      8.952
REMARK  3 active torsions:
REMARK  status: ('A' for Active; 'I' for Inactive)
REMARK    1  A    between atoms: O_2  and  C_3 
REMARK    2  A    between atoms: C_5  and  N_6 
REMARK       I    between atoms: N_6  and  C_7 
REMARK       I    between atoms: C_7  and  N_8 
REMARK    3  A    between atoms: C_11  and  C_12 
ROOT
HETATM    1  N   UNL     1      42.089 -10.057   8.072  1.00  0.00    -0.306 N 
HETATM    2  C   UNL     1      41.388 -10.181   6.893  1.00  0.00     0.323 C 
HETATM    3  N   UNL     1      41.816 -11.219   6.054  1.00  0.00    -0.330 N 
HETATM    4  C   UNL     1      42.991 -12.041   6.334  1.00  0.00     0.155 C 
HETATM    5  C   UNL     1      43.229 -13.126   5.336  1.00  0.00     0.001 C 
HETATM    6  C   UNL     1      42.465 -13.374   4.259  1.00  0.00    -0.046 C 
HETATM    7  C   UNL     1      41.247 -12.531   4.001  1.00  0.00     0.059 C 
HETATM    8  C   UNL     1      41.364 -11.158   4.662  1.00  0.00     0.132 C 
HETATM    9  O   UNL     1      40.473  -9.429   6.560  1.00  0.00    -0.247 OA
HETATM   10  H   UNL     1      42.880 -10.662   8.222  1.00  0.00     0.171 HD
ENDROOT
BRANCH   1  11
HETATM   11  C   UNL     1      41.948  -9.065   9.072  1.00  0.00     0.077 A 
HETATM   12  C   UNL     1      41.160  -9.194  10.220  1.00  0.00     0.069 A 
HETATM   13  C   UNL     1      41.072  -8.137  11.136  1.00  0.00     0.070 A 
HETATM   14  C   UNL     1      41.766  -6.946  10.897  1.00  0.00     0.040 A 
HETATM   15  C   UNL     1      42.561  -6.810   9.763  1.00  0.00     0.047 A 
HETATM   16  C   UNL     1      42.649  -7.869   8.868  1.00  0.00     0.143 A 
HETATM   17  F   UNL     1      43.410  -7.731   7.770  1.00  0.00    -0.204 F 
BRANCH  13  18
HETATM   18  O   UNL     1      40.341  -8.139  12.294  1.00  0.00    -0.356 OA
HETATM   19  C   UNL     1      39.957  -9.409  12.808  1.00  0.00     0.210 C 
ENDBRANCH  13  18
ENDBRANCH   1  11
BRANCH   6  20
HETATM   20  C   UNL     1      42.743 -14.392   3.290  1.00  0.00    -0.002 A 
HETATM   21  C   UNL     1      43.066 -15.771   3.519  1.00  0.00     0.003 A 
HETATM   22  C   UNL     1      43.240 -16.365   2.266  1.00  0.00     0.043 A 
HETATM   23  C   UNL     1      43.239 -16.579   4.665  1.00  0.00     0.014 A 
HETATM   24  C   UNL     1      43.558 -17.720   2.105  1.00  0.00     0.030 A 
HETATM   25  N   UNL     1      43.047 -15.385   1.320  1.00  0.00    -0.364 N 
HETATM   26  C   UNL     1      43.707 -18.496   3.257  1.00  0.00     0.002 A 
HETATM   27  C   UNL     1      43.553 -17.936   4.522  1.00  0.00     0.001 A 
HETATM   28  H   UNL     1      43.118 -15.531   0.324  1.00  0.00     0.165 HD
HETATM   29  C   UNL     1      42.749 -14.193   1.925  1.00  0.00     0.101 A 
ENDBRANCH   6  20
TORSDOF 3
ENDMDL
MODEL 9
REMARK VINA RESULT:      -8.0      3.262      9.731
REMARK  3 active torsions:
REMARK  status: ('A' for Active; 'I' for Inactive)
REMARK    1  A    between atoms: O_2  and  C_3 
REMARK    2  A    between atoms: C_5  and  N_6 
REMARK       I    between atoms: N_6  and  C_7 
REMARK       I    between atoms: C_7  and  N_8 
REMARK    3  A    between atoms: C_11  and  C_12 
ROOT
HETATM    1  N   UNL     1      41.808 -15.942   2.627  1.00  0.00    -0.306 N 
HETATM    2  C   UNL     1      41.727 -14.567   2.623  1.00  0.00     0.323 C 
HETATM    3  N   UNL     1      41.062 -14.014   1.520  1.00  0.00    -0.330 N 
HETATM    4  C   UNL     1      40.590 -14.809   0.389  1.00  0.00     0.155 C 
HETATM    5  C   UNL     1      39.857 -14.023  -0.647  1.00  0.00     0.001 C 
HETATM    6  C   UNL     1      39.621 -12.702  -0.598  1.00  0.00    -0.046 C 
HETATM    7  C   UNL     1      40.095 -11.904   0.586  1.00  0.00     0.059 C 
HETATM    8  C   UNL     1      41.272 -12.584   1.285  1.00  0.00     0.132 C 
HETATM    9  O   UNL     1      42.223 -13.851   3.492  1.00  0.00    -0.247 OA
HETATM   10  H   UNL     1      41.450 -16.443   1.829  1.00  0.00     0.171 HD
ENDROOT
BRANCH   1  11
HETATM   11  C   UNL     1      42.482 -16.775   3.551  1.00  0.00     0.077 A 
HETATM   12  C   UNL     1      42.460 -16.610   4.939  1.00  0.00     0.069 A 
HETATM   13  C   UNL     1      43.185 -17.481   5.764  1.00  0.00     0.070 A 
HETATM   14  C   UNL     1      43.942 -18.511   5.196  1.00  0.00     0.040 A 
HETATM   15  C   UNL     1      43.964 -18.691   3.816  1.00  0.00     0.047 A 
HETATM   16  C   UNL     1      43.232 -17.828   3.011  1.00  0.00     0.143 A 
HETATM   17  F   UNL     1      43.262 -17.999   1.679  1.00  0.00    -0.204 F 
BRANCH  13  18
HETATM   18  O   UNL     1      43.243 -17.428   7.131  1.00  0.00    -0.356 OA
HETATM   19  C   UNL     1      43.142 -16.141   7.728  1.00  0.00     0.210 C 
ENDBRANCH  13  18
ENDBRANCH   1  11
BRANCH   6  20
HETATM   20  C   UNL     1      38.957 -11.962  -1.630  1.00  0.00    -0.002 A 
HETATM   21  C   UNL     1      39.491 -10.918  -2.458  1.00  0.00     0.003 A 
HETATM   22  C   UNL     1      38.468 -10.514  -3.320  1.00  0.00     0.043 A 
HETATM   23  C   UNL     1      40.739 -10.262  -2.557  1.00  0.00     0.014 A 
HETATM   24  C   UNL     1      38.637  -9.509  -4.282  1.00  0.00     0.030 A 
HETATM   25  N   UNL     1      37.359 -11.270  -3.019  1.00  0.00    -0.364 N 
HETATM   26  C   UNL     1      39.887  -8.891  -4.366  1.00  0.00     0.002 A 
HETATM   27  C   UNL     1      40.926  -9.259  -3.515  1.00  0.00     0.001 A 
HETATM   28  H   UNL     1      36.467 -11.187  -3.484  1.00  0.00     0.165 HD
HETATM   29  C   UNL     1      37.641 -12.144  -2.002  1.00  0.00     0.101 A 
ENDBRANCH   6  20
TORSDOF 3
ENDMDL
MODEL 10
REMARK VINA RESULT:      -7.9      7.966     10.689
REMARK  3 active torsions:
REMARK  status: ('A' for Active; 'I' for Inactive)
REMARK    1  A    between atoms: O_2  and  C_3 
REMARK    2  A    between atoms: C_5  and  N_6 
REMARK       I    between atoms: N_6  and  C_7 
REMARK       I    between atoms: C_7  and  N_8 
REMARK    3  A    between atoms: C_11  and  C_12 
ROOT
HETATM    1  N   UNL     1      42.868 -12.956   5.254  1.00  0.00    -0.306 N 
HETATM    2  C   UNL     1      43.755 -12.729   6.283  1.00  0.00     0.323 C 
HETATM    3  N   UNL     1      43.476 -11.605   7.072  1.00  0.00    -0.330 N 
HETATM    4  C   UNL     1      42.400 -10.663   6.770  1.00  0.00     0.155 C 
HETATM    5  C   UNL     1      42.244  -9.571   7.776  1.00  0.00     0.001 C 
HETATM    6  C   UNL     1      42.994  -9.417   8.880  1.00  0.00    -0.046 C 
HETATM    7  C   UNL     1      44.082 -10.410   9.185  1.00  0.00     0.059 C 
HETATM    8  C   UNL     1      44.565 -11.119   7.921  1.00  0.00     0.132 C 
HETATM    9  O   UNL     1      44.747 -13.425   6.495  1.00  0.00    -0.247 OA
HETATM   10  H   UNL     1      42.133 -12.283   5.101  1.00  0.00     0.171 HD
ENDROOT
BRANCH   1  11
HETATM   11  C   UNL     1      42.931 -13.950   4.249  1.00  0.00     0.077 A 
HETATM   12  C   UNL     1      42.774 -15.321   4.471  1.00  0.00     0.069 A 
HETATM   13  C   UNL     1      42.880 -16.225   3.405  1.00  0.00     0.070 A 
HETATM   14  C   UNL     1      43.153 -15.753   2.116  1.00  0.00     0.040 A 
HETATM   15  C   UNL     1      43.302 -14.390   1.881  1.00  0.00     0.047 A 
HETATM   16  C   UNL     1      43.184 -13.504   2.945  1.00  0.00     0.143 A 
HETATM   17  F   UNL     1      43.336 -12.190   2.716  1.00  0.00    -0.204 F 
BRANCH  13  18
HETATM   18  O   UNL     1      42.744 -17.584   3.490  1.00  0.00    -0.356 OA
HETATM   19  C   UNL     1      43.783 -18.370   2.918  1.00  0.00     0.210 C 
ENDBRANCH  13  18
ENDBRANCH   1  11
BRANCH   6  20
HETATM   20  C   UNL     1      42.856  -8.331   9.805  1.00  0.00    -0.002 A 
HETATM   21  C   UNL     1      42.715  -8.393  11.231  1.00  0.00     0.003 A 
HETATM   22  C   UNL     1      42.625  -7.078  11.693  1.00  0.00     0.043 A 
HETATM   23  C   UNL     1      42.642  -9.435  12.183  1.00  0.00     0.014 A 
HETATM   24  C   UNL     1      42.487  -6.755  13.049  1.00  0.00     0.030 A 
HETATM   25  N   UNL     1      42.694  -6.255  10.592  1.00  0.00    -0.364 N 
HETATM   26  C   UNL     1      42.434  -7.807  13.967  1.00  0.00     0.002 A 
HETATM   27  C   UNL     1      42.508  -9.131  13.543  1.00  0.00     0.001 A 
HETATM   28  H   UNL     1      42.648  -5.247  10.629  1.00  0.00     0.165 HD
HETATM   29  C   UNL     1      42.831  -6.998   9.450  1.00  0.00     0.101 A 
ENDBRANCH   6  20
TORSDOF 3
ENDMDL
