MODEL 1
REMARK VINA RESULT:      -8.4      0.000      0.000
REMARK  8 active torsions:
REMARK  status: ('A' for Active; 'I' for Inactive)
REMARK    1  A    between atoms: C_2  and  C_3 
REMARK    2  A    between atoms: C_3  and  O_4 
REMARK    3  A    between atoms: O_4  and  C_5 
REMARK    4  A    between atoms: C_7  and  C_8 
REMARK    5  A    between atoms: N_9  and  C_10 
REMARK    6  A    between atoms: C_10  and  C_11 
REMARK    7  A    between atoms: C_24  and  C_25 
REMARK    8  A    between atoms: C_26  and  O_27 
ROOT
HETATM    1  C   UNL     1      43.207 -12.546   3.979  1.00  0.00     0.159 C 
HETATM    2  N   UNL     1      43.311 -12.321   5.444  1.00  0.00    -0.329 N 
HETATM    3  C   UNL     1      42.876 -11.042   5.828  1.00  0.00     0.273 C 
HETATM    4  O   UNL     1      43.028 -10.463   6.887  1.00  0.00    -0.266 OA
HETATM    5  C   UNL     1      42.245 -10.548   4.662  1.00  0.00     0.129 A 
HETATM    6  C   UNL     1      42.386 -11.377   3.589  1.00  0.00     0.034 A 
HETATM    7  N   UNL     1      41.504  -9.498   4.288  1.00  0.00    -0.272 N 
HETATM    8  H   UNL     1      41.207  -8.694   4.836  1.00  0.00     0.189 HD
HETATM    9  N   UNL     1      41.096  -9.616   2.998  1.00  0.00    -0.173 NA
HETATM   10  C   UNL     1      41.654 -10.774   2.551  1.00  0.00     0.101 A 
ENDROOT
BRANCH   1  11
HETATM   11  C   UNL     1      42.505 -13.816   3.579  1.00  0.00    -0.028 A 
HETATM   12  C   UNL     1      43.141 -14.853   2.874  1.00  0.00     0.046 A 
HETATM   13  C   UNL     1      42.465 -16.034   2.552  1.00  0.00     0.069 A 
HETATM   14  C   UNL     1      41.128 -16.182   2.923  1.00  0.00     0.037 A 
HETATM   15  C   UNL     1      40.472 -15.156   3.601  1.00  0.00     0.003 A 
HETATM   16  C   UNL     1      41.152 -13.981   3.921  1.00  0.00     0.010 A 
BRANCH  13  17
HETATM   17  O   UNL     1      43.213 -16.955   1.870  1.00  0.00    -0.348 OA
BRANCH  17  18
HETATM   18  C   UNL     1      43.716 -18.059   2.622  1.00  0.00     0.202 C 
BRANCH  18  19
HETATM   19  C   UNL     1      43.028 -19.295   2.126  1.00  0.00    -0.011 C 
HETATM   20  C   UNL     1      43.643 -20.455   1.861  1.00  0.00     0.009 C 
ENDBRANCH  18  19
ENDBRANCH  17  18
ENDBRANCH  13  17
ENDBRANCH   1  11
BRANCH   2  21
HETATM   21  C   UNL     1      44.198 -13.112   6.270  1.00  0.00     0.165 C 
BRANCH  21  22
HETATM   22  C   UNL     1      43.687 -14.511   6.500  1.00  0.00    -0.037 A 
HETATM   23  C   UNL     1      44.458 -15.627   6.157  1.00  0.00     0.028 A 
HETATM   24  C   UNL     1      43.929 -16.891   6.369  1.00  0.00     0.116 A 
HETATM   25  N   UNL     1      42.709 -17.119   6.899  1.00  0.00    -0.273 NA
HETATM   26  C   UNL     1      41.976 -16.031   7.214  1.00  0.00     0.116 A 
HETATM   27  C   UNL     1      42.416 -14.727   7.039  1.00  0.00     0.028 A 
ENDBRANCH  21  22
ENDBRANCH   2  21
BRANCH  10  28
HETATM   28  C   UNL     1      41.389 -11.245   1.189  1.00  0.00     0.028 A 
HETATM   29  C   UNL     1      41.633 -10.424   0.073  1.00  0.00     0.078 A 
HETATM   30  C   UNL     1      41.316 -10.839  -1.218  1.00  0.00     0.037 A 
HETATM   31  C   UNL     1      40.767 -12.103  -1.422  1.00  0.00     0.003 A 
HETATM   32  C   UNL     1      40.547 -12.948  -0.336  1.00  0.00     0.001 A 
HETATM   33  C   UNL     1      40.861 -12.525   0.960  1.00  0.00     0.017 A 
BRANCH  29  34
HETATM   34  O   UNL     1      42.194  -9.176   0.186  1.00  0.00    -0.360 OA
HETATM   35  H   UNL     1      43.129  -9.324   0.456  1.00  0.00     0.217 HD
ENDBRANCH  29  34
ENDBRANCH  10  28
TORSDOF 8
ENDMDL
MODEL 2
REMARK VINA RESULT:      -8.2      2.025      6.484
REMARK  8 active torsions:
REMARK  status: ('A' for Active; 'I' for Inactive)
REMARK    1  A    between atoms: C_2  and  C_3 
REMARK    2  A    between atoms: C_3  and  O_4 
REMARK    3  A    between atoms: O_4  and  C_5 
REMARK    4  A    between atoms: C_7  and  C_8 
REMARK    5  A    between atoms: N_9  and  C_10 
REMARK    6  A    between atoms: C_10  and  C_11 
REMARK    7  A    between atoms: C_24  and  C_25 
REMARK    8  A    between atoms: C_26  and  O_27 
ROOT
HETATM    1  C   UNL     1      41.618 -15.721   5.398  1.00  0.00     0.159 C 
HETATM    2  N   UNL     1      41.778 -14.474   6.191  1.00  0.00    -0.329 N 
HETATM    3  C   UNL     1      42.980 -14.443   6.914  1.00  0.00     0.273 C 
HETATM    4  O   UNL     1      43.319 -13.696   7.812  1.00  0.00    -0.266 OA
HETATM    5  C   UNL     1      43.711 -15.531   6.382  1.00  0.00     0.129 A 
HETATM    6  C   UNL     1      42.987 -16.276   5.498  1.00  0.00     0.034 A 
HETATM    7  N   UNL     1      44.942 -16.051   6.461  1.00  0.00    -0.272 N 
HETATM    8  H   UNL     1      45.734 -15.745   7.021  1.00  0.00     0.189 HD
HETATM    9  N   UNL     1      45.089 -17.104   5.615  1.00  0.00    -0.173 NA
HETATM   10  C   UNL     1      43.873 -17.261   5.024  1.00  0.00     0.101 A 
ENDROOT
BRANCH   1  11
HETATM   11  C   UNL     1      41.259 -15.513   3.951  1.00  0.00    -0.028 A 
HETATM   12  C   UNL     1      41.853 -14.524   3.149  1.00  0.00     0.046 A 
HETATM   13  C   UNL     1      41.519 -14.386   1.798  1.00  0.00     0.069 A 
HETATM   14  C   UNL     1      40.565 -15.236   1.237  1.00  0.00     0.037 A 
HETATM   15  C   UNL     1      39.947 -16.208   2.021  1.00  0.00     0.003 A 
HETATM   16  C   UNL     1      40.285 -16.342   3.367  1.00  0.00     0.010 A 
BRANCH  13  17
HETATM   17  O   UNL     1      42.182 -13.384   1.143  1.00  0.00    -0.348 OA
BRANCH  17  18
HETATM   18  C   UNL     1      41.817 -12.045   1.478  1.00  0.00     0.202 C 
BRANCH  18  19
HETATM   19  C   UNL     1      40.938 -11.528   0.378  1.00  0.00    -0.011 C 
HETATM   20  C   UNL     1      40.917 -12.009  -0.872  1.00  0.00     0.009 C 
ENDBRANCH  18  19
ENDBRANCH  17  18
ENDBRANCH  13  17
ENDBRANCH   1  11
BRANCH   2  21
HETATM   21  C   UNL     1      40.639 -13.658   6.555  1.00  0.00     0.165 C 
BRANCH  21  22
HETATM   22  C   UNL     1      40.502 -12.430   5.691  1.00  0.00    -0.037 A 
HETATM   23  C   UNL     1      39.418 -12.278   4.820  1.00  0.00     0.028 A 
HETATM   24  C   UNL     1      39.353 -11.139   4.031  1.00  0.00     0.116 A 
HETATM   25  N   UNL     1      40.274 -10.153   4.055  1.00  0.00    -0.273 NA
HETATM   26  C   UNL     1      41.317 -10.322   4.894  1.00  0.00     0.116 A 
HETATM   27  C   UNL     1      41.472 -11.425   5.721  1.00  0.00     0.028 A 
ENDBRANCH  21  22
ENDBRANCH   2  21
BRANCH  10  28
HETATM   28  C   UNL     1      43.672 -18.296   4.007  1.00  0.00     0.028 A 
HETATM   29  C   UNL     1      43.874 -19.656   4.302  1.00  0.00     0.078 A 
HETATM   30  C   UNL     1      43.755 -20.637   3.320  1.00  0.00     0.037 A 
HETATM   31  C   UNL     1      43.406 -20.277   2.021  1.00  0.00     0.003 A 
HETATM   32  C   UNL     1      43.167 -18.939   1.713  1.00  0.00     0.001 A 
HETATM   33  C   UNL     1      43.293 -17.955   2.700  1.00  0.00     0.017 A 
BRANCH  29  34
HETATM   34  O   UNL     1      44.197 -20.096   5.560  1.00  0.00    -0.360 OA
HETATM   35  H   UNL     1      43.363 -20.453   5.944  1.00  0.00     0.217 HD
ENDBRANCH  29  34
ENDBRANCH  10  28
TORSDOF 8
ENDMDL
MODEL 3
REMARK VINA RESULT:      -8.0      6.376      9.328
REMARK  8 active torsions:
REMARK  status: ('A' for Active; 'I' for Inactive)
REMARK    1  A    between atoms: C_2  and  C_3 
REMARK    2  A    between atoms: C_3  and  O_4 
REMARK    3  A    between atoms: O_4  and  C_5 
REMARK    4  A    between atoms: C_7  and  C_8 
REMARK    5  A    between atoms: N_9  and  C_10 
REMARK    6  A    between atoms: C_10  and  C_11 
REMARK    7  A    between atoms: C_24  and  C_25 
REMARK    8  A    between atoms: C_26  and  O_27 
ROOT
HETATM    1  C   UNL     1      40.844  -8.658  11.196  1.00  0.00     0.159 C 
HETATM    2  N   UNL     1      40.932  -9.413  12.474  1.00  0.00    -0.329 N 
HETATM    3  C   UNL     1      39.930 -10.389  12.595  1.00  0.00     0.273 C 
HETATM    4  O   UNL     1      39.582 -11.017  13.578  1.00  0.00    -0.266 OA
HETATM    5  C   UNL     1      39.373 -10.450  11.297  1.00  0.00     0.129 A 
HETATM    6  C   UNL     1      39.875  -9.500  10.457  1.00  0.00     0.034 A 
HETATM    7  N   UNL     1      38.498 -11.196  10.611  1.00  0.00    -0.272 N 
HETATM    8  H   UNL     1      37.943 -11.987  10.927  1.00  0.00     0.189 HD
HETATM    9  N   UNL     1      38.428 -10.807   9.312  1.00  0.00    -0.173 NA
HETATM   10  C   UNL     1      39.270  -9.742   9.211  1.00  0.00     0.101 A 
ENDROOT
BRANCH   1  11
HETATM   11  C   UNL     1      42.131  -8.566  10.422  1.00  0.00    -0.028 A 
HETATM   12  C   UNL     1      42.942  -9.682  10.151  1.00  0.00     0.046 A 
HETATM   13  C   UNL     1      44.114  -9.562   9.396  1.00  0.00     0.069 A 
HETATM   14  C   UNL     1      44.495  -8.309   8.915  1.00  0.00     0.037 A 
HETATM   15  C   UNL     1      43.718  -7.187   9.194  1.00  0.00     0.003 A 
HETATM   16  C   UNL     1      42.550  -7.313   9.945  1.00  0.00     0.010 A 
BRANCH  13  17
HETATM   17  O   UNL     1      44.797 -10.733   9.208  1.00  0.00    -0.348 OA
BRANCH  17  18
HETATM   18  C   UNL     1      45.727 -10.769   8.126  1.00  0.00     0.202 C 
BRANCH  18  19
HETATM   19  C   UNL     1      45.070 -11.493   6.989  1.00  0.00    -0.011 C 
HETATM   20  C   UNL     1      44.068 -12.373   7.123  1.00  0.00     0.009 C 
ENDBRANCH  18  19
ENDBRANCH  17  18
ENDBRANCH  13  17
ENDBRANCH   1  11
BRANCH   2  21
HETATM   21  C   UNL     1      41.625  -8.874  13.624  1.00  0.00     0.165 C 
BRANCH  21  22
HETATM   22  C   UNL     1      41.342  -7.410  13.843  1.00  0.00    -0.037 A 
HETATM   23  C   UNL     1      42.321  -6.441  13.602  1.00  0.00     0.028 A 
HETATM   24  C   UNL     1      42.015  -5.110  13.842  1.00  0.00     0.116 A 
HETATM   25  N   UNL     1      40.816  -4.682  14.292  1.00  0.00    -0.273 NA
HETATM   26  C   UNL     1      39.887  -5.632  14.529  1.00  0.00     0.116 A 
HETATM   27  C   UNL     1      40.098  -6.987  14.321  1.00  0.00     0.028 A 
ENDBRANCH  21  22
ENDBRANCH   2  21
BRANCH  10  28
HETATM   28  C   UNL     1      39.479  -9.083   7.919  1.00  0.00     0.028 A 
HETATM   29  C   UNL     1      40.024  -9.780   6.826  1.00  0.00     0.078 A 
HETATM   30  C   UNL     1      40.292  -9.140   5.618  1.00  0.00     0.037 A 
HETATM   31  C   UNL     1      39.995  -7.787   5.472  1.00  0.00     0.003 A 
HETATM   32  C   UNL     1      39.423  -7.083   6.529  1.00  0.00     0.001 A 
HETATM   33  C   UNL     1      39.161  -7.728   7.744  1.00  0.00     0.017 A 
BRANCH  29  34
HETATM   34  O   UNL     1      40.321 -11.118   6.880  1.00  0.00    -0.360 OA
HETATM   35  H   UNL     1      40.716 -11.343   6.007  1.00  0.00     0.217 HD
ENDBRANCH  29  34
ENDBRANCH  10  28
TORSDOF 8
ENDMDL
MODEL 4
REMARK VINA RESULT:      -7.9      2.177      6.182
REMARK  8 active torsions:
REMARK  status: ('A' for Active; 'I' for Inactive)
REMARK    1  A    between atoms: C_2  and  C_3 
REMARK    2  A    between atoms: C_3  and  O_4 
REMARK    3  A    between atoms: O_4  and  C_5 
REMARK    4  A    between atoms: C_7  and  C_8 
REMARK    5  A    between atoms: N_9  and  C_10 
REMARK    6  A    between atoms: C_10  and  C_11 
REMARK    7  A    between atoms: C_24  and  C_25 
REMARK    8  A    between atoms: C_26  and  O_27 
ROOT
HETATM    1  C   UNL     1      39.876 -13.777   2.918  1.00  0.00     0.159 C 
HETATM    2  N   UNL     1      39.427 -12.725   1.968  1.00  0.00    -0.329 N 
HETATM    3  C   UNL     1      39.171 -11.499   2.602  1.00  0.00     0.273 C 
HETATM    4  O   UNL     1      38.593 -10.517   2.174  1.00  0.00    -0.266 OA
HETATM    5  C   UNL     1      39.709 -11.680   3.898  1.00  0.00     0.129 A 
HETATM    6  C   UNL     1      40.143 -12.953   4.119  1.00  0.00     0.034 A 
HETATM    7  N   UNL     1      39.955 -10.955   4.995  1.00  0.00    -0.272 N 
HETATM    8  H   UNL     1      39.761  -9.972   5.173  1.00  0.00     0.189 HD
HETATM    9  N   UNL     1      40.592 -11.692   5.942  1.00  0.00    -0.173 NA
HETATM   10  C   UNL     1      40.698 -12.940   5.412  1.00  0.00     0.101 A 
ENDROOT
BRANCH   1  11
HETATM   11  C   UNL     1      41.129 -14.506   2.513  1.00  0.00    -0.028 A 
HETATM   12  C   UNL     1      41.256 -15.904   2.580  1.00  0.00     0.046 A 
HETATM   13  C   UNL     1      42.425 -16.549   2.160  1.00  0.00     0.069 A 
HETATM   14  C   UNL     1      43.492 -15.789   1.679  1.00  0.00     0.037 A 
HETATM   15  C   UNL     1      43.394 -14.400   1.627  1.00  0.00     0.003 A 
HETATM   16  C   UNL     1      42.227 -13.764   2.045  1.00  0.00     0.010 A 
BRANCH  13  17
HETATM   17  O   UNL     1      42.402 -17.911   2.279  1.00  0.00    -0.348 OA
BRANCH  17  18
HETATM   18  C   UNL     1      43.586 -18.534   2.775  1.00  0.00     0.202 C 
BRANCH  18  19
HETATM   19  C   UNL     1      43.726 -18.153   4.219  1.00  0.00    -0.011 C 
HETATM   20  C   UNL     1      43.952 -19.018   5.217  1.00  0.00     0.009 C 
ENDBRANCH  18  19
ENDBRANCH  17  18
ENDBRANCH  13  17
ENDBRANCH   1  11
BRANCH   2  21
HETATM   21  C   UNL     1      38.857 -13.060   0.682  1.00  0.00     0.165 C 
BRANCH  21  22
HETATM   22  C   UNL     1      39.773 -12.725  -0.467  1.00  0.00    -0.037 A 
HETATM   23  C   UNL     1      40.489 -11.524  -0.494  1.00  0.00     0.028 A 
HETATM   24  C   UNL     1      41.299 -11.256  -1.587  1.00  0.00     0.116 A 
HETATM   25  N   UNL     1      41.451 -12.092  -2.635  1.00  0.00    -0.273 NA
HETATM   26  C   UNL     1      40.745 -13.242  -2.597  1.00  0.00     0.116 A 
HETATM   27  C   UNL     1      39.908 -13.598  -1.551  1.00  0.00     0.028 A 
ENDBRANCH  21  22
ENDBRANCH   2  21
BRANCH  10  28
HETATM   28  C   UNL     1      41.380 -14.005   6.154  1.00  0.00     0.028 A 
HETATM   29  C   UNL     1      42.583 -13.758   6.839  1.00  0.00     0.078 A 
HETATM   30  C   UNL     1      43.273 -14.782   7.485  1.00  0.00     0.037 A 
HETATM   31  C   UNL     1      42.756 -16.075   7.479  1.00  0.00     0.003 A 
HETATM   32  C   UNL     1      41.548 -16.337   6.835  1.00  0.00     0.001 A 
HETATM   33  C   UNL     1      40.861 -15.307   6.182  1.00  0.00     0.017 A 
BRANCH  29  34
HETATM   34  O   UNL     1      43.146 -12.510   6.913  1.00  0.00    -0.360 OA
HETATM   35  H   UNL     1      42.496 -11.895   6.502  1.00  0.00     0.217 HD
ENDBRANCH  29  34
ENDBRANCH  10  28
TORSDOF 8
ENDMDL
MODEL 5
REMARK VINA RESULT:      -7.9      1.733      2.411
REMARK  8 active torsions:
REMARK  status: ('A' for Active; 'I' for Inactive)
REMARK    1  A    between atoms: C_2  and  C_3 
REMARK    2  A    between atoms: C_3  and  O_4 
REMARK    3  A    between atoms: O_4  and  C_5 
REMARK    4  A    between atoms: C_7  and  C_8 
REMARK    5  A    between atoms: N_9  and  C_10 
REMARK    6  A    between atoms: C_10  and  C_11 
REMARK    7  A    between atoms: C_24  and  C_25 
REMARK    8  A    between atoms: C_26  and  O_27 
ROOT
HETATM    1  C   UNL     1      42.221 -12.119   2.228  1.00  0.00     0.159 C 
HETATM    2  N   UNL     1      42.300 -11.579   3.611  1.00  0.00    -0.329 N 
HETATM    3  C   UNL     1      41.654 -10.340   3.745  1.00  0.00     0.273 C 
HETATM    4  O   UNL     1      41.713  -9.535   4.656  1.00  0.00    -0.266 OA
HETATM    5  C   UNL     1      40.934 -10.212   2.534  1.00  0.00     0.129 A 
HETATM    6  C   UNL     1      41.205 -11.211   1.646  1.00  0.00     0.034 A 
HETATM    7  N   UNL     1      40.019  -9.402   1.989  1.00  0.00    -0.272 N 
HETATM    8  H   UNL     1      39.592  -8.563   2.374  1.00  0.00     0.189 HD
HETATM    9  N   UNL     1      39.624  -9.853   0.769  1.00  0.00    -0.173 NA
HETATM   10  C   UNL     1      40.369 -10.969   0.542  1.00  0.00     0.101 A 
ENDROOT
BRANCH   1  11
HETATM   11  C   UNL     1      41.746 -13.543   2.127  1.00  0.00    -0.028 A 
HETATM   12  C   UNL     1      42.612 -14.624   1.887  1.00  0.00     0.046 A 
HETATM   13  C   UNL     1      42.137 -15.939   1.837  1.00  0.00     0.069 A 
HETATM   14  C   UNL     1      40.775 -16.183   2.013  1.00  0.00     0.037 A 
HETATM   15  C   UNL     1      39.896 -15.123   2.229  1.00  0.00     0.003 A 
HETATM   16  C   UNL     1      40.376 -13.815   2.279  1.00  0.00     0.010 A 
BRANCH  13  17
HETATM   17  O   UNL     1      43.096 -16.886   1.601  1.00  0.00    -0.348 OA
BRANCH  17  18
HETATM   18  C   UNL     1      43.376 -17.797   2.663  1.00  0.00     0.202 C 
BRANCH  18  19
HETATM   19  C   UNL     1      42.902 -19.153   2.232  1.00  0.00    -0.011 C 
HETATM   20  C   UNL     1      43.706 -20.178   1.920  1.00  0.00     0.009 C 
ENDBRANCH  18  19
ENDBRANCH  17  18
ENDBRANCH  13  17
ENDBRANCH   1  11
BRANCH   2  21
HETATM   21  C   UNL     1      43.319 -12.020   4.538  1.00  0.00     0.165 C 
BRANCH  21  22
HETATM   22  C   UNL     1      42.852 -13.146   5.425  1.00  0.00    -0.037 A 
HETATM   23  C   UNL     1      41.490 -13.370   5.652  1.00  0.00     0.028 A 
HETATM   24  C   UNL     1      41.117 -14.406   6.495  1.00  0.00     0.116 A 
HETATM   25  N   UNL     1      41.992 -15.226   7.114  1.00  0.00    -0.273 NA
HETATM   26  C   UNL     1      43.302 -14.988   6.892  1.00  0.00     0.116 A 
HETATM   27  C   UNL     1      43.774 -13.978   6.067  1.00  0.00     0.028 A 
ENDBRANCH  21  22
ENDBRANCH   2  21
BRANCH  10  28
HETATM   28  C   UNL     1      40.176 -11.751  -0.682  1.00  0.00     0.028 A 
HETATM   29  C   UNL     1      38.998 -12.490  -0.896  1.00  0.00     0.078 A 
HETATM   30  C   UNL     1      38.840 -13.293  -2.024  1.00  0.00     0.037 A 
HETATM   31  C   UNL     1      39.853 -13.354  -2.977  1.00  0.00     0.003 A 
HETATM   32  C   UNL     1      41.015 -12.604  -2.803  1.00  0.00     0.001 A 
HETATM   33  C   UNL     1      41.174 -11.804  -1.667  1.00  0.00     0.017 A 
BRANCH  29  34
HETATM   34  O   UNL     1      37.944 -12.465  -0.018  1.00  0.00    -0.360 OA
HETATM   35  H   UNL     1      37.246 -11.920  -0.449  1.00  0.00     0.217 HD
ENDBRANCH  29  34
ENDBRANCH  10  28
TORSDOF 8
ENDMDL
MODEL 6
REMARK VINA RESULT:      -7.9      2.355      4.935
REMARK  8 active torsions:
REMARK  status: ('A' for Active; 'I' for Inactive)
REMARK    1  A    between atoms: C_2  and  C_3 
REMARK    2  A    between atoms: C_3  and  O_4 
REMARK    3  A    between atoms: O_4  and  C_5 
REMARK    4  A    between atoms: C_7  and  C_8 
REMARK    5  A    between atoms: N_9  and  C_10 
REMARK    6  A    between atoms: C_10  and  C_11 
REMARK    7  A    between atoms: C_24  and  C_25 
REMARK    8  A    between atoms: C_26  and  O_27 
ROOT
HETATM    1  C   UNL     1      40.151 -14.101   3.629  1.00  0.00     0.159 C 
HETATM    2  N   UNL     1      40.840 -15.416   3.709  1.00  0.00    -0.329 N 
HETATM    3  C   UNL     1      41.282 -15.873   2.457  1.00  0.00     0.273 C 
HETATM    4  O   UNL     1      41.674 -16.979   2.136  1.00  0.00    -0.266 OA
HETATM    5  C   UNL     1      41.124 -14.743   1.621  1.00  0.00     0.129 A 
HETATM    6  C   UNL     1      40.505 -13.701   2.247  1.00  0.00     0.034 A 
HETATM    7  N   UNL     1      41.431 -14.362   0.376  1.00  0.00    -0.272 N 
HETATM    8  H   UNL     1      41.895 -14.888  -0.360  1.00  0.00     0.189 HD
HETATM    9  N   UNL     1      41.079 -13.069   0.154  1.00  0.00    -0.173 NA
HETATM   10  C   UNL     1      40.488 -12.655   1.307  1.00  0.00     0.101 A 
ENDROOT
BRANCH   1  11
HETATM   11  C   UNL     1      40.645 -13.064   4.601  1.00  0.00    -0.028 A 
HETATM   12  C   UNL     1      42.004 -12.732   4.742  1.00  0.00     0.046 A 
HETATM   13  C   UNL     1      42.421 -11.736   5.630  1.00  0.00     0.069 A 
HETATM   14  C   UNL     1      41.472 -11.067   6.405  1.00  0.00     0.037 A 
HETATM   15  C   UNL     1      40.123 -11.398   6.298  1.00  0.00     0.003 A 
HETATM   16  C   UNL     1      39.713 -12.391   5.409  1.00  0.00     0.010 A 
BRANCH  13  17
HETATM   17  O   UNL     1      43.771 -11.519   5.656  1.00  0.00    -0.348 OA
BRANCH  17  18
HETATM   18  C   UNL     1      44.493 -12.080   6.752  1.00  0.00     0.202 C 
BRANCH  18  19
HETATM   19  C   UNL     1      45.679 -11.201   7.011  1.00  0.00    -0.011 C 
HETATM   20  C   UNL     1      45.853 -10.459   8.113  1.00  0.00     0.009 C 
ENDBRANCH  18  19
ENDBRANCH  17  18
ENDBRANCH  13  17
ENDBRANCH   1  11
BRANCH   2  21
HETATM   21  C   UNL     1      40.631 -16.312   4.825  1.00  0.00     0.165 C 
BRANCH  21  22
HETATM   22  C   UNL     1      41.826 -16.395   5.740  1.00  0.00    -0.037 A 
HETATM   23  C   UNL     1      42.917 -17.213   5.430  1.00  0.00     0.028 A 
HETATM   24  C   UNL     1      43.981 -17.269   6.318  1.00  0.00     0.116 A 
HETATM   25  N   UNL     1      44.036 -16.571   7.472  1.00  0.00    -0.273 NA
HETATM   26  C   UNL     1      42.970 -15.795   7.759  1.00  0.00     0.116 A 
HETATM   27  C   UNL     1      41.860 -15.674   6.937  1.00  0.00     0.028 A 
ENDBRANCH  21  22
ENDBRANCH   2  21
BRANCH  10  28
HETATM   28  C   UNL     1      40.014 -11.275   1.443  1.00  0.00     0.028 A 
HETATM   29  C   UNL     1      40.917 -10.206   1.583  1.00  0.00     0.078 A 
HETATM   30  C   UNL     1      40.472  -8.901   1.784  1.00  0.00     0.037 A 
HETATM   31  C   UNL     1      39.105  -8.636   1.827  1.00  0.00     0.003 A 
HETATM   32  C   UNL     1      38.192  -9.674   1.657  1.00  0.00     0.001 A 
HETATM   33  C   UNL     1      38.642 -10.984   1.460  1.00  0.00     0.017 A 
BRANCH  29  34
HETATM   34  O   UNL     1      42.277 -10.378   1.529  1.00  0.00    -0.360 OA
HETATM   35  H   UNL     1      42.580  -9.895   0.726  1.00  0.00     0.217 HD
ENDBRANCH  29  34
ENDBRANCH  10  28
TORSDOF 8
ENDMDL
MODEL 7
REMARK VINA RESULT:      -7.8      2.311      6.444
REMARK  8 active torsions:
REMARK  status: ('A' for Active; 'I' for Inactive)
REMARK    1  A    between atoms: C_2  and  C_3 
REMARK    2  A    between atoms: C_3  and  O_4 
REMARK    3  A    between atoms: O_4  and  C_5 
REMARK    4  A    between atoms: C_7  and  C_8 
REMARK    5  A    between atoms: N_9  and  C_10 
REMARK    6  A    between atoms: C_10  and  C_11 
REMARK    7  A    between atoms: C_24  and  C_25 
REMARK    8  A    between atoms: C_26  and  O_27 
ROOT
HETATM    1  C   UNL     1      40.549 -14.057   4.760  1.00  0.00     0.159 C 
HETATM    2  N   UNL     1      40.290 -12.643   5.136  1.00  0.00    -0.329 N 
HETATM    3  C   UNL     1      41.269 -12.125   5.999  1.00  0.00     0.273 C 
HETATM    4  O   UNL     1      41.251 -11.104   6.660  1.00  0.00    -0.266 OA
HETATM    5  C   UNL     1      42.290 -13.104   5.961  1.00  0.00     0.129 A 
HETATM    6  C   UNL     1      41.937 -14.213   5.251  1.00  0.00     0.034 A 
HETATM    7  N   UNL     1      43.544 -13.266   6.399  1.00  0.00    -0.272 N 
HETATM    8  H   UNL     1      44.117 -12.637   6.956  1.00  0.00     0.189 HD
HETATM    9  N   UNL     1      44.072 -14.439   5.962  1.00  0.00    -0.173 NA
HETATM   10  C   UNL     1      43.074 -15.042   5.260  1.00  0.00     0.101 A 
ENDROOT
BRANCH   1  11
HETATM   11  C   UNL     1      40.497 -14.342   3.283  1.00  0.00    -0.028 A 
HETATM   12  C   UNL     1      40.978 -13.446   2.313  1.00  0.00     0.046 A 
HETATM   13  C   UNL     1      40.946 -13.762   0.951  1.00  0.00     0.069 A 
HETATM   14  C   UNL     1      40.412 -14.984   0.543  1.00  0.00     0.037 A 
HETATM   15  C   UNL     1      39.907 -15.877   1.488  1.00  0.00     0.003 A 
HETATM   16  C   UNL     1      39.944 -15.557   2.844  1.00  0.00     0.010 A 
BRANCH  13  17
HETATM   17  O   UNL     1      41.454 -12.796   0.126  1.00  0.00    -0.348 OA
BRANCH  17  18
HETATM   18  C   UNL     1      40.511 -12.034  -0.628  1.00  0.00     0.202 C 
BRANCH  18  19
HETATM   19  C   UNL     1      40.838 -12.220  -2.080  1.00  0.00    -0.011 C 
HETATM   20  C   UNL     1      40.515 -13.301  -2.802  1.00  0.00     0.009 C 
ENDBRANCH  18  19
ENDBRANCH  17  18
ENDBRANCH  13  17
ENDBRANCH   1  11
BRANCH   2  21
HETATM   21  C   UNL     1      38.969 -12.063   5.036  1.00  0.00     0.165 C 
BRANCH  21  22
HETATM   22  C   UNL     1      38.974 -10.712   4.367  1.00  0.00    -0.037 A 
HETATM   23  C   UNL     1      38.384  -9.601   4.978  1.00  0.00     0.028 A 
HETATM   24  C   UNL     1      38.396  -8.387   4.307  1.00  0.00     0.116 A 
HETATM   25  N   UNL     1      38.955  -8.204   3.092  1.00  0.00    -0.273 NA
HETATM   26  C   UNL     1      39.510  -9.289   2.513  1.00  0.00     0.116 A 
HETATM   27  C   UNL     1      39.546 -10.544   3.103  1.00  0.00     0.028 A 
ENDBRANCH  21  22
ENDBRANCH   2  21
BRANCH  10  28
HETATM   28  C   UNL     1      43.305 -16.329   4.600  1.00  0.00     0.028 A 
HETATM   29  C   UNL     1      43.645 -17.476   5.340  1.00  0.00     0.078 A 
HETATM   30  C   UNL     1      43.936 -18.685   4.712  1.00  0.00     0.037 A 
HETATM   31  C   UNL     1      43.869 -18.777   3.324  1.00  0.00     0.003 A 
HETATM   32  C   UNL     1      43.501 -17.663   2.572  1.00  0.00     0.001 A 
HETATM   33  C   UNL     1      43.215 -16.449   3.206  1.00  0.00     0.017 A 
BRANCH  29  34
HETATM   34  O   UNL     1      43.709 -17.476   6.711  1.00  0.00    -0.360 OA
HETATM   35  H   UNL     1      44.306 -18.220   6.954  1.00  0.00     0.217 HD
ENDBRANCH  29  34
ENDBRANCH  10  28
TORSDOF 8
ENDMDL
MODEL 8
REMARK VINA RESULT:      -7.7      2.594      7.318
REMARK  8 active torsions:
REMARK  status: ('A' for Active; 'I' for Inactive)
REMARK    1  A    between atoms: C_2  and  C_3 
REMARK    2  A    between atoms: C_3  and  O_4 
REMARK    3  A    between atoms: O_4  and  C_5 
REMARK    4  A    between atoms: C_7  and  C_8 
REMARK    5  A    between atoms: N_9  and  C_10 
REMARK    6  A    between atoms: C_10  and  C_11 
REMARK    7  A    between atoms: C_24  and  C_25 
REMARK    8  A    between atoms: C_26  and  O_27 
ROOT
HETATM    1  C   UNL     1      41.993 -12.980   1.838  1.00  0.00     0.159 C 
HETATM    2  N   UNL     1      40.936 -12.278   1.063  1.00  0.00    -0.329 N 
HETATM    3  C   UNL     1      40.006 -13.163   0.494  1.00  0.00     0.273 C 
HETATM    4  O   UNL     1      39.166 -12.951  -0.361  1.00  0.00    -0.266 OA
HETATM    5  C   UNL     1      40.301 -14.396   1.120  1.00  0.00     0.129 A 
HETATM    6  C   UNL     1      41.410 -14.339   1.912  1.00  0.00     0.034 A 
HETATM    7  N   UNL     1      39.793 -15.632   1.197  1.00  0.00    -0.272 N 
HETATM    8  H   UNL     1      38.972 -16.019   0.737  1.00  0.00     0.189 HD
HETATM    9  N   UNL     1      40.501 -16.404   2.061  1.00  0.00    -0.173 NA
HETATM   10  C   UNL     1      41.518 -15.613   2.498  1.00  0.00     0.101 A 
ENDROOT
BRANCH   1  11
HETATM   11  C   UNL     1      42.220 -12.449   3.228  1.00  0.00    -0.028 A 
HETATM   12  C   UNL     1      43.485 -12.057   3.700  1.00  0.00     0.046 A 
HETATM   13  C   UNL     1      43.650 -11.533   4.987  1.00  0.00     0.069 A 
HETATM   14  C   UNL     1      42.542 -11.411   5.825  1.00  0.00     0.037 A 
HETATM   15  C   UNL     1      41.283 -11.816   5.384  1.00  0.00     0.003 A 
HETATM   16  C   UNL     1      41.124 -12.336   4.100  1.00  0.00     0.010 A 
BRANCH  13  17
HETATM   17  O   UNL     1      44.936 -11.191   5.305  1.00  0.00    -0.348 OA
BRANCH  17  18
HETATM   18  C   UNL     1      45.453 -11.703   6.533  1.00  0.00     0.202 C 
BRANCH  18  19
HETATM   19  C   UNL     1      45.990 -10.543   7.317  1.00  0.00    -0.011 C 
HETATM   20  C   UNL     1      45.328  -9.912   8.296  1.00  0.00     0.009 C 
ENDBRANCH  18  19
ENDBRANCH  17  18
ENDBRANCH  13  17
ENDBRANCH   1  11
BRANCH   2  21
HETATM   21  C   UNL     1      41.134 -10.938   0.555  1.00  0.00     0.165 C 
BRANCH  21  22
HETATM   22  C   UNL     1      40.283  -9.915   1.263  1.00  0.00    -0.037 A 
HETATM   23  C   UNL     1      40.778  -9.196   2.356  1.00  0.00     0.028 A 
HETATM   24  C   UNL     1      39.945  -8.283   2.985  1.00  0.00     0.116 A 
HETATM   25  N   UNL     1      38.675  -8.035   2.602  1.00  0.00    -0.273 NA
HETATM   26  C   UNL     1      38.211  -8.746   1.553  1.00  0.00     0.116 A 
HETATM   27  C   UNL     1      38.966  -9.680   0.860  1.00  0.00     0.028 A 
ENDBRANCH  21  22
ENDBRANCH   2  21
BRANCH  10  28
HETATM   28  C   UNL     1      42.473 -16.114   3.490  1.00  0.00     0.028 A 
HETATM   29  C   UNL     1      43.181 -17.311   3.279  1.00  0.00     0.078 A 
HETATM   30  C   UNL     1      44.036 -17.829   4.249  1.00  0.00     0.037 A 
HETATM   31  C   UNL     1      44.218 -17.144   5.448  1.00  0.00     0.003 A 
HETATM   32  C   UNL     1      43.554 -15.938   5.665  1.00  0.00     0.001 A 
HETATM   33  C   UNL     1      42.691 -15.423   4.691  1.00  0.00     0.017 A 
BRANCH  29  34
HETATM   34  O   UNL     1      43.076 -18.033   2.117  1.00  0.00    -0.360 OA
HETATM   35  H   UNL     1      43.966 -18.425   1.961  1.00  0.00     0.217 HD
ENDBRANCH  29  34
ENDBRANCH  10  28
TORSDOF 8
ENDMDL
MODEL 9
REMARK VINA RESULT:      -7.7      2.677      5.435
REMARK  8 active torsions:
REMARK  status: ('A' for Active; 'I' for Inactive)
REMARK    1  A    between atoms: C_2  and  C_3 
REMARK    2  A    between atoms: C_3  and  O_4 
REMARK    3  A    between atoms: O_4  and  C_5 
REMARK    4  A    between atoms: C_7  and  C_8 
REMARK    5  A    between atoms: N_9  and  C_10 
REMARK    6  A    between atoms: C_10  and  C_11 
REMARK    7  A    between atoms: C_24  and  C_25 
REMARK    8  A    between atoms: C_26  and  O_27 
ROOT
HETATM    1  C   UNL     1      42.206 -14.599   3.632  1.00  0.00     0.159 C 
HETATM    2  N   UNL     1      42.726 -15.928   4.048  1.00  0.00    -0.329 N 
HETATM    3  C   UNL     1      42.369 -16.261   5.364  1.00  0.00     0.273 C 
HETATM    4  O   UNL     1      42.801 -17.147   6.078  1.00  0.00    -0.266 OA
HETATM    5  C   UNL     1      41.404 -15.283   5.700  1.00  0.00     0.129 A 
HETATM    6  C   UNL     1      41.258 -14.327   4.737  1.00  0.00     0.034 A 
HETATM    7  N   UNL     1      40.543 -15.017   6.689  1.00  0.00    -0.272 N 
HETATM    8  H   UNL     1      40.386 -15.523   7.557  1.00  0.00     0.189 HD
HETATM    9  N   UNL     1      39.780 -13.931   6.402  1.00  0.00    -0.173 NA
HETATM   10  C   UNL     1      40.229 -13.486   5.197  1.00  0.00     0.101 A 
ENDROOT
BRANCH   1  11
HETATM   11  C   UNL     1      41.471 -14.586   2.319  1.00  0.00    -0.028 A 
HETATM   12  C   UNL     1      41.615 -13.558   1.371  1.00  0.00     0.046 A 
HETATM   13  C   UNL     1      40.943 -13.600   0.145  1.00  0.00     0.069 A 
HETATM   14  C   UNL     1      40.101 -14.674  -0.139  1.00  0.00     0.037 A 
HETATM   15  C   UNL     1      39.926 -15.692   0.797  1.00  0.00     0.003 A 
HETATM   16  C   UNL     1      40.600 -15.646   2.017  1.00  0.00     0.010 A 
BRANCH  13  17
HETATM   17  O   UNL     1      41.184 -12.533  -0.677  1.00  0.00    -0.348 OA
BRANCH  17  18
HETATM   18  C   UNL     1      40.499 -12.518  -1.929  1.00  0.00     0.202 C 
BRANCH  18  19
HETATM   19  C   UNL     1      39.456 -11.444  -1.861  1.00  0.00    -0.011 C 
HETATM   20  C   UNL     1      39.107 -10.653  -2.885  1.00  0.00     0.009 C 
ENDBRANCH  18  19
ENDBRANCH  17  18
ENDBRANCH  13  17
ENDBRANCH   1  11
BRANCH   2  21
HETATM   21  C   UNL     1      43.848 -16.545   3.375  1.00  0.00     0.165 C 
BRANCH  21  22
HETATM   22  C   UNL     1      43.671 -18.031   3.188  1.00  0.00    -0.037 A 
HETATM   23  C   UNL     1      42.842 -18.538   2.181  1.00  0.00     0.028 A 
HETATM   24  C   UNL     1      42.697 -19.912   2.069  1.00  0.00     0.116 A 
HETATM   25  N   UNL     1      43.316 -20.804   2.871  1.00  0.00    -0.273 NA
HETATM   26  C   UNL     1      44.102 -20.296   3.843  1.00  0.00     0.116 A 
HETATM   27  C   UNL     1      44.310 -18.939   4.037  1.00  0.00     0.028 A 
ENDBRANCH  21  22
ENDBRANCH   2  21
BRANCH  10  28
HETATM   28  C   UNL     1      39.597 -12.333   4.550  1.00  0.00     0.028 A 
HETATM   29  C   UNL     1      39.472 -11.101   5.218  1.00  0.00     0.078 A 
HETATM   30  C   UNL     1      38.808 -10.024   4.635  1.00  0.00     0.037 A 
HETATM   31  C   UNL     1      38.273 -10.152   3.356  1.00  0.00     0.003 A 
HETATM   32  C   UNL     1      38.414 -11.351   2.661  1.00  0.00     0.001 A 
HETATM   33  C   UNL     1      39.076 -12.434   3.252  1.00  0.00     0.017 A 
BRANCH  29  34
HETATM   34  O   UNL     1      39.992 -10.886   6.469  1.00  0.00    -0.360 OA
HETATM   35  H   UNL     1      39.545 -10.079   6.812  1.00  0.00     0.217 HD
ENDBRANCH  29  34
ENDBRANCH  10  28
TORSDOF 8
ENDMDL
MODEL 10
REMARK VINA RESULT:      -7.6      2.630      6.430
REMARK  8 active torsions:
REMARK  status: ('A' for Active; 'I' for Inactive)
REMARK    1  A    between atoms: C_2  and  C_3 
REMARK    2  A    between atoms: C_3  and  O_4 
REMARK    3  A    between atoms: O_4  and  C_5 
REMARK    4  A    between atoms: C_7  and  C_8 
REMARK    5  A    between atoms: N_9  and  C_10 
REMARK    6  A    between atoms: C_10  and  C_11 
REMARK    7  A    between atoms: C_24  and  C_25 
REMARK    8  A    between atoms: C_26  and  O_27 
ROOT
HETATM    1  C   UNL     1      40.997 -11.779   1.739  1.00  0.00     0.159 C 
HETATM    2  N   UNL     1      40.074 -10.762   1.173  1.00  0.00    -0.329 N 
HETATM    3  C   UNL     1      39.377 -11.230   0.047  1.00  0.00     0.273 C 
HETATM    4  O   UNL     1      38.727 -10.605  -0.770  1.00  0.00    -0.266 OA
HETATM    5  C   UNL     1      39.643 -12.619   0.051  1.00  0.00     0.129 A 
HETATM    6  C   UNL     1      40.542 -12.985   1.009  1.00  0.00     0.034 A 
HETATM    7  N   UNL     1      39.249 -13.720  -0.598  1.00  0.00    -0.272 N 
HETATM    8  H   UNL     1      38.589 -13.811  -1.366  1.00  0.00     0.189 HD
HETATM    9  N   UNL     1      39.821 -14.835  -0.073  1.00  0.00    -0.173 NA
HETATM   10  C   UNL     1      40.640 -14.385   0.916  1.00  0.00     0.101 A 
ENDROOT
BRANCH   1  11
HETATM   11  C   UNL     1      40.865 -12.003   3.221  1.00  0.00    -0.028 A 
HETATM   12  C   UNL     1      41.922 -11.795   4.124  1.00  0.00     0.046 A 
HETATM   13  C   UNL     1      41.750 -11.979   5.500  1.00  0.00     0.069 A 
HETATM   14  C   UNL     1      40.510 -12.392   5.987  1.00  0.00     0.037 A 
HETATM   15  C   UNL     1      39.455 -12.627   5.106  1.00  0.00     0.003 A 
HETATM   16  C   UNL     1      39.633 -12.440   3.736  1.00  0.00     0.010 A 
BRANCH  13  17
HETATM   17  O   UNL     1      42.865 -11.734   6.255  1.00  0.00    -0.348 OA
BRANCH  17  18
HETATM   18  C   UNL     1      43.941 -12.664   6.133  1.00  0.00     0.202 C 
BRANCH  18  19
HETATM   19  C   UNL     1      43.554 -13.904   6.882  1.00  0.00    -0.011 C 
HETATM   20  C   UNL     1      43.787 -15.154   6.459  1.00  0.00     0.009 C 
ENDBRANCH  18  19
ENDBRANCH  17  18
ENDBRANCH  13  17
ENDBRANCH   1  11
BRANCH   2  21
HETATM   21  C   UNL     1      40.250  -9.350   1.436  1.00  0.00     0.165 C 
BRANCH  21  22
HETATM   22  C   UNL     1      39.775  -8.949   2.809  1.00  0.00    -0.037 A 
HETATM   23  C   UNL     1      40.658  -8.409   3.750  1.00  0.00     0.028 A 
HETATM   24  C   UNL     1      40.172  -8.079   5.006  1.00  0.00     0.116 A 
HETATM   25  N   UNL     1      38.886  -8.240   5.383  1.00  0.00    -0.273 NA
HETATM   26  C   UNL     1      38.051  -8.772   4.466  1.00  0.00     0.116 A 
HETATM   27  C   UNL     1      38.442  -9.135   3.186  1.00  0.00     0.028 A 
ENDBRANCH  21  22
ENDBRANCH   2  21
BRANCH  10  28
HETATM   28  C   UNL     1      41.398 -15.332   1.738  1.00  0.00     0.028 A 
HETATM   29  C   UNL     1      40.816 -15.955   2.857  1.00  0.00     0.078 A 
HETATM   30  C   UNL     1      41.554 -16.800   3.683  1.00  0.00     0.037 A 
HETATM   31  C   UNL     1      42.891 -17.059   3.389  1.00  0.00     0.003 A 
HETATM   32  C   UNL     1      43.480 -16.481   2.267  1.00  0.00     0.001 A 
HETATM   33  C   UNL     1      42.738 -15.628   1.442  1.00  0.00     0.017 A 
BRANCH  29  34
HETATM   34  O   UNL     1      39.501 -15.771   3.200  1.00  0.00    -0.360 OA
HETATM   35  H   UNL     1      39.173 -16.651   3.495  1.00  0.00     0.217 HD
ENDBRANCH  29  34
ENDBRANCH  10  28
TORSDOF 8
ENDMDL
