MODEL 1
REMARK VINA RESULT:      -7.9      0.000      0.000
REMARK  8 active torsions:
REMARK  status: ('A' for Active; 'I' for Inactive)
REMARK    1  A    between atoms: C_2  and  O_3 
REMARK    2  A    between atoms: O_3  and  C_4 
REMARK       I    between atoms: C_4  and  N_5 
REMARK    3  A    between atoms: C_8  and  N_9 
REMARK       I    between atoms: N_9  and  C_10 
REMARK    4  A    between atoms: C_10  and  C_11 
REMARK    5  A    between atoms: C_12  and  C_13 
REMARK    6  A    between atoms: N_18  and  C_19 
REMARK    7  A    between atoms: C_19  and  C_20 
REMARK    8  A    between atoms: C_20  and  O_21 
ROOT
HETATM    1  C   UNL     1      42.587 -14.527   3.697  1.00  0.00     0.139 C 
HETATM    2  C   UNL     1      41.080 -14.678   3.405  1.00  0.00     0.145 C 
HETATM    3  N   UNL     1      40.252 -14.042   4.439  1.00  0.00    -0.335 N 
HETATM    4  C   UNL     1      40.523 -14.329   5.777  1.00  0.00     0.255 C 
HETATM    5  O   UNL     1      39.782 -14.006   6.700  1.00  0.00    -0.267 OA
HETATM    6  C   UNL     1      41.817 -15.025   6.065  1.00  0.00     0.039 A 
HETATM    7  C   UNL     1      42.830 -15.106   5.086  1.00  0.00    -0.027 A 
HETATM    8  C   UNL     1      42.033 -15.558   7.341  1.00  0.00     0.017 A 
HETATM    9  C   UNL     1      43.245 -16.181   7.643  1.00  0.00     0.001 A 
HETATM   10  C   UNL     1      44.247 -16.264   6.677  1.00  0.00     0.001 A 
HETATM   11  C   UNL     1      44.047 -15.727   5.404  1.00  0.00     0.009 A 
ENDROOT
BRANCH   1  12
HETATM   12  C   UNL     1      43.077 -13.075   3.622  1.00  0.00     0.229 C 
HETATM   13  N   UNL     1      43.098 -12.425   4.846  1.00  0.00    -0.356 N 
HETATM   14  H   UNL     1      42.946 -13.013   5.656  1.00  0.00     0.162 HD
HETATM   15  O   UNL     1      43.383 -12.526   2.569  1.00  0.00    -0.273 OA
BRANCH  13  16
HETATM   16  C   UNL     1      43.823 -11.178   5.128  1.00  0.00     0.087 C 
HETATM   17  C   UNL     1      43.050 -10.031   5.791  1.00  0.00     0.045 C 
HETATM   18  C   UNL     1      42.668 -10.356   7.228  1.00  0.00     0.130 C 
HETATM   19  N   UNL     1      43.844 -10.746   8.005  1.00  0.00    -0.328 N 
HETATM   20  C   UNL     1      43.939 -10.494   9.367  1.00  0.00     0.362 C 
HETATM   21  C   UNL     1      44.684 -11.788   7.431  1.00  0.00     0.130 C 
HETATM   22  O   UNL     1      44.779 -11.008  10.098  1.00  0.00    -0.238 OA
HETATM   23  C   UNL     1      45.061 -11.490   5.981  1.00  0.00     0.045 C 
BRANCH  20  24
HETATM   24  O   UNL     1      43.005  -9.604   9.798  1.00  0.00    -0.304 OA
BRANCH  24  25
HETATM   25  C   UNL     1      42.603  -9.713  11.170  1.00  0.00     0.176 C 
HETATM   26  C   UNL     1      43.198  -8.574  11.973  1.00  0.00     0.034 C 
ENDBRANCH  24  25
ENDBRANCH  20  24
ENDBRANCH  13  16
ENDBRANCH   1  12
BRANCH   2  27
HETATM   27  C   UNL     1      40.613 -14.465   1.976  1.00  0.00     0.006 A 
HETATM   28  S   UNL     1      40.594 -12.931   1.207  1.00  0.00    -0.104 SA
HETATM   29  C   UNL     1      39.986 -13.575  -0.249  1.00  0.00     0.050 A 
HETATM   30  C   UNL     1      39.818 -14.939  -0.178  1.00  0.00     0.008 A 
HETATM   31  C   UNL     1      40.188 -15.450   1.098  1.00  0.00     0.017 A 
ENDBRANCH   2  27
BRANCH   3  32
HETATM   32  C   UNL     1      39.367 -12.909   4.153  1.00  0.00     0.153 C 
BRANCH  32  33
HETATM   33  C   UNL     1      39.850 -11.588   4.748  1.00  0.00     0.187 C 
BRANCH  33  34
HETATM   34  O   UNL     1      38.737 -10.930   5.361  1.00  0.00    -0.394 OA
HETATM   35  C   UNL     1      39.025 -10.537   6.695  1.00  0.00     0.201 C 
ENDBRANCH  33  34
ENDBRANCH  32  33
ENDBRANCH   3  32
TORSDOF 8
ENDMDL
MODEL 2
REMARK VINA RESULT:      -7.7      2.777      6.527
REMARK  8 active torsions:
REMARK  status: ('A' for Active; 'I' for Inactive)
REMARK    1  A    between atoms: C_2  and  O_3 
REMARK    2  A    between atoms: O_3  and  C_4 
REMARK       I    between atoms: C_4  and  N_5 
REMARK    3  A    between atoms: C_8  and  N_9 
REMARK       I    between atoms: N_9  and  C_10 
REMARK    4  A    between atoms: C_10  and  C_11 
REMARK    5  A    between atoms: C_12  and  C_13 
REMARK    6  A    between atoms: N_18  and  C_19 
REMARK    7  A    between atoms: C_19  and  C_20 
REMARK    8  A    between atoms: C_20  and  O_21 
ROOT
HETATM    1  C   UNL     1      41.406 -10.882   6.121  1.00  0.00     0.139 C 
HETATM    2  C   UNL     1      41.289 -10.152   4.766  1.00  0.00     0.145 C 
HETATM    3  N   UNL     1      41.983 -10.873   3.690  1.00  0.00    -0.335 N 
HETATM    4  C   UNL     1      43.295 -11.294   3.910  1.00  0.00     0.255 C 
HETATM    5  O   UNL     1      44.021 -11.730   3.022  1.00  0.00    -0.267 OA
HETATM    6  C   UNL     1      43.790 -11.238   5.322  1.00  0.00     0.039 A 
HETATM    7  C   UNL     1      42.893 -11.067   6.398  1.00  0.00    -0.027 A 
HETATM    8  C   UNL     1      45.157 -11.405   5.570  1.00  0.00     0.017 A 
HETATM    9  C   UNL     1      45.637 -11.392   6.880  1.00  0.00     0.001 A 
HETATM   10  C   UNL     1      44.753 -11.222   7.946  1.00  0.00     0.001 A 
HETATM   11  C   UNL     1      43.387 -11.064   7.711  1.00  0.00     0.009 A 
ENDROOT
BRANCH   1  12
HETATM   12  C   UNL     1      40.677 -12.232   6.147  1.00  0.00     0.229 C 
HETATM   13  N   UNL     1      41.525 -13.328   6.168  1.00  0.00    -0.356 N 
HETATM   14  H   UNL     1      42.504 -13.120   6.322  1.00  0.00     0.162 HD
HETATM   15  O   UNL     1      39.456 -12.333   6.112  1.00  0.00    -0.273 OA
BRANCH  13  16
HETATM   16  C   UNL     1      41.129 -14.695   6.531  1.00  0.00     0.087 C 
HETATM   17  C   UNL     1      40.629 -15.620   5.414  1.00  0.00     0.045 C 
HETATM   18  C   UNL     1      41.740 -15.997   4.446  1.00  0.00     0.130 C 
HETATM   19  N   UNL     1      42.883 -16.567   5.159  1.00  0.00    -0.328 N 
HETATM   20  C   UNL     1      43.708 -17.521   4.578  1.00  0.00     0.362 C 
HETATM   21  C   UNL     1      43.398 -15.794   6.280  1.00  0.00     0.130 C 
HETATM   22  O   UNL     1      44.800 -17.845   5.031  1.00  0.00    -0.238 OA
HETATM   23  C   UNL     1      42.293 -15.388   7.255  1.00  0.00     0.045 C 
BRANCH  20  24
HETATM   24  O   UNL     1      43.164 -18.066   3.457  1.00  0.00    -0.304 OA
BRANCH  24  25
HETATM   25  C   UNL     1      43.994 -18.973   2.719  1.00  0.00     0.176 C 
HETATM   26  C   UNL     1      43.141 -20.061   2.098  1.00  0.00     0.034 C 
ENDBRANCH  24  25
ENDBRANCH  20  24
ENDBRANCH  13  16
ENDBRANCH   1  12
BRANCH   2  27
HETATM   27  C   UNL     1      39.939  -9.569   4.393  1.00  0.00     0.006 A 
HETATM   28  S   UNL     1      38.860  -8.879   5.535  1.00  0.00    -0.104 SA
HETATM   29  C   UNL     1      37.702  -8.506   4.340  1.00  0.00     0.050 A 
HETATM   30  C   UNL     1      38.124  -8.870   3.083  1.00  0.00     0.008 A 
HETATM   31  C   UNL     1      39.413  -9.472   3.113  1.00  0.00     0.017 A 
ENDBRANCH   2  27
BRANCH   3  32
HETATM   32  C   UNL     1      41.277 -11.429   2.532  1.00  0.00     0.153 C 
BRANCH  32  33
HETATM   33  C   UNL     1      40.922 -12.906   2.679  1.00  0.00     0.187 C 
BRANCH  33  34
HETATM   34  O   UNL     1      41.519 -13.630   1.598  1.00  0.00    -0.394 OA
HETATM   35  C   UNL     1      40.565 -14.414   0.897  1.00  0.00     0.201 C 
ENDBRANCH  33  34
ENDBRANCH  32  33
ENDBRANCH   3  32
TORSDOF 8
ENDMDL
MODEL 3
REMARK VINA RESULT:      -7.1      2.327      5.103
REMARK  8 active torsions:
REMARK  status: ('A' for Active; 'I' for Inactive)
REMARK    1  A    between atoms: C_2  and  O_3 
REMARK    2  A    between atoms: O_3  and  C_4 
REMARK       I    between atoms: C_4  and  N_5 
REMARK    3  A    between atoms: C_8  and  N_9 
REMARK       I    between atoms: N_9  and  C_10 
REMARK    4  A    between atoms: C_10  and  C_11 
REMARK    5  A    between atoms: C_12  and  C_13 
REMARK    6  A    between atoms: N_18  and  C_19 
REMARK    7  A    between atoms: C_19  and  C_20 
REMARK    8  A    between atoms: C_20  and  O_21 
ROOT
HETATM    1  C   UNL     1      40.810 -11.740   5.007  1.00  0.00     0.139 C 
HETATM    2  C   UNL     1      41.148 -13.201   4.642  1.00  0.00     0.145 C 
HETATM    3  N   UNL     1      41.751 -13.310   3.307  1.00  0.00    -0.335 N 
HETATM    4  C   UNL     1      41.122 -12.670   2.239  1.00  0.00     0.255 C 
HETATM    5  O   UNL     1      41.432 -12.852   1.066  1.00  0.00    -0.267 OA
HETATM    6  C   UNL     1      40.051 -11.682   2.585  1.00  0.00     0.039 A 
HETATM    7  C   UNL     1      39.904 -11.206   3.905  1.00  0.00    -0.027 A 
HETATM    8  C   UNL     1      39.219 -11.198   1.570  1.00  0.00     0.017 A 
HETATM    9  C   UNL     1      38.236 -10.251   1.863  1.00  0.00     0.001 A 
HETATM   10  C   UNL     1      38.088  -9.778   3.166  1.00  0.00     0.001 A 
HETATM   11  C   UNL     1      38.918 -10.248   4.185  1.00  0.00     0.009 A 
ENDROOT
BRANCH   1  12
HETATM   12  C   UNL     1      42.052 -10.853   5.167  1.00  0.00     0.229 C 
HETATM   13  N   UNL     1      42.138 -10.223   6.398  1.00  0.00    -0.356 N 
HETATM   14  H   UNL     1      41.475 -10.536   7.096  1.00  0.00     0.162 HD
HETATM   15  O   UNL     1      42.873 -10.685   4.272  1.00  0.00    -0.273 OA
BRANCH  13  16
HETATM   16  C   UNL     1      43.353  -9.605   6.947  1.00  0.00     0.087 C 
HETATM   17  C   UNL     1      43.185  -8.506   8.005  1.00  0.00     0.045 C 
HETATM   18  C   UNL     1      42.644  -9.055   9.317  1.00  0.00     0.130 C 
HETATM   19  N   UNL     1      43.470 -10.161   9.801  1.00  0.00    -0.328 N 
HETATM   20  C   UNL     1      43.622 -10.424  11.156  1.00  0.00     0.362 C 
HETATM   21  C   UNL     1      43.742 -11.231   8.851  1.00  0.00     0.130 C 
HETATM   22  O   UNL     1      44.095 -11.464  11.599  1.00  0.00    -0.238 OA
HETATM   23  C   UNL     1      44.268 -10.698   7.519  1.00  0.00     0.045 C 
BRANCH  20  24
HETATM   24  O   UNL     1      43.200  -9.393  11.936  1.00  0.00    -0.304 OA
BRANCH  24  25
HETATM   25  C   UNL     1      42.377  -9.736  13.058  1.00  0.00     0.176 C 
HETATM   26  C   UNL     1      40.941  -9.915  12.608  1.00  0.00     0.034 C 
ENDBRANCH  24  25
ENDBRANCH  20  24
ENDBRANCH  13  16
ENDBRANCH   1  12
BRANCH   2  27
HETATM   27  C   UNL     1      41.781 -14.069   5.715  1.00  0.00     0.006 A 
HETATM   28  S   UNL     1      41.016 -15.452   6.384  1.00  0.00    -0.104 SA
HETATM   29  C   UNL     1      42.334 -15.785   7.414  1.00  0.00     0.050 A 
HETATM   30  C   UNL     1      43.359 -14.883   7.246  1.00  0.00     0.008 A 
HETATM   31  C   UNL     1      43.044 -13.904   6.263  1.00  0.00     0.017 A 
ENDBRANCH   2  27
BRANCH   3  32
HETATM   32  C   UNL     1      43.118 -13.795   3.098  1.00  0.00     0.153 C 
BRANCH  32  33
HETATM   33  C   UNL     1      43.192 -15.120   2.342  1.00  0.00     0.187 C 
BRANCH  33  34
HETATM   34  O   UNL     1      42.494 -16.116   3.097  1.00  0.00    -0.394 OA
HETATM   35  C   UNL     1      43.386 -16.963   3.806  1.00  0.00     0.201 C 
ENDBRANCH  33  34
ENDBRANCH  32  33
ENDBRANCH   3  32
TORSDOF 8
ENDMDL
MODEL 4
REMARK VINA RESULT:      -7.0     17.205     20.334
REMARK  8 active torsions:
REMARK  status: ('A' for Active; 'I' for Inactive)
REMARK    1  A    between atoms: C_2  and  O_3 
REMARK    2  A    between atoms: O_3  and  C_4 
REMARK       I    between atoms: C_4  and  N_5 
REMARK    3  A    between atoms: C_8  and  N_9 
REMARK       I    between atoms: N_9  and  C_10 
REMARK    4  A    between atoms: C_10  and  C_11 
REMARK    5  A    between atoms: C_12  and  C_13 
REMARK    6  A    between atoms: N_18  and  C_19 
REMARK    7  A    between atoms: C_19  and  C_20 
REMARK    8  A    between atoms: C_20  and  O_21 
ROOT
HETATM    1  C   UNL     1      46.070 -29.659   2.638  1.00  0.00     0.139 C 
HETATM    2  C   UNL     1      46.914 -30.942   2.786  1.00  0.00     0.145 C 
HETATM    3  N   UNL     1      46.899 -31.756   1.563  1.00  0.00    -0.335 N 
HETATM    4  C   UNL     1      45.669 -32.043   0.971  1.00  0.00     0.255 C 
HETATM    5  O   UNL     1      45.529 -32.861   0.067  1.00  0.00    -0.267 OA
HETATM    6  C   UNL     1      44.490 -31.258   1.458  1.00  0.00     0.039 A 
HETATM    7  C   UNL     1      44.666 -30.095   2.238  1.00  0.00    -0.027 A 
HETATM    8  C   UNL     1      43.203 -31.666   1.090  1.00  0.00     0.017 A 
HETATM    9  C   UNL     1      42.091 -30.930   1.504  1.00  0.00     0.001 A 
HETATM   10  C   UNL     1      42.262 -29.781   2.276  1.00  0.00     0.001 A 
HETATM   11  C   UNL     1      43.541 -29.360   2.640  1.00  0.00     0.009 A 
ENDROOT
BRANCH   1  12
HETATM   12  C   UNL     1      46.644 -28.671   1.614  1.00  0.00     0.229 C 
HETATM   13  N   UNL     1      46.354 -28.995   0.298  1.00  0.00    -0.356 N 
HETATM   14  H   UNL     1      45.679 -29.738   0.169  1.00  0.00     0.162 HD
HETATM   15  O   UNL     1      47.330 -27.705   1.929  1.00  0.00    -0.273 OA
BRANCH  13  16
HETATM   16  C   UNL     1      46.474 -28.077  -0.843  1.00  0.00     0.087 C 
HETATM   17  C   UNL     1      47.335 -28.518  -2.034  1.00  0.00     0.045 C 
HETATM   18  C   UNL     1      46.708 -29.680  -2.791  1.00  0.00     0.130 C 
HETATM   19  N   UNL     1      45.337 -29.363  -3.193  1.00  0.00    -0.328 N 
HETATM   20  C   UNL     1      44.772 -29.888  -4.347  1.00  0.00     0.362 C 
HETATM   21  C   UNL     1      44.452 -28.874  -2.145  1.00  0.00     0.130 C 
HETATM   22  O   UNL     1      43.572 -29.851  -4.595  1.00  0.00    -0.238 OA
HETATM   23  C   UNL     1      45.072 -27.720  -1.359  1.00  0.00     0.045 C 
BRANCH  20  24
HETATM   24  O   UNL     1      45.698 -30.438  -5.177  1.00  0.00    -0.304 OA
BRANCH  24  25
HETATM   25  C   UNL     1      45.282 -31.585  -5.930  1.00  0.00     0.176 C 
HETATM   26  C   UNL     1      45.498 -32.843  -5.114  1.00  0.00     0.034 C 
ENDBRANCH  24  25
ENDBRANCH  20  24
ENDBRANCH  13  16
ENDBRANCH   1  12
BRANCH   2  27
HETATM   27  C   UNL     1      48.264 -30.825   3.471  1.00  0.00     0.006 A 
HETATM   28  S   UNL     1      48.765 -31.853   4.751  1.00  0.00    -0.104 SA
HETATM   29  C   UNL     1      50.277 -31.078   4.892  1.00  0.00     0.050 A 
HETATM   30  C   UNL     1      50.426 -30.068   3.971  1.00  0.00     0.008 A 
HETATM   31  C   UNL     1      49.272 -29.930   3.149  1.00  0.00     0.017 A 
ENDBRANCH   2  27
BRANCH   3  32
HETATM   32  C   UNL     1      48.108 -32.022   0.778  1.00  0.00     0.153 C 
BRANCH  32  33
HETATM   33  C   UNL     1      48.678 -33.423   0.982  1.00  0.00     0.187 C 
BRANCH  33  34
HETATM   34  O   UNL     1      49.908 -33.315   1.707  1.00  0.00    -0.394 OA
HETATM   35  C   UNL     1      50.859 -32.520   1.016  1.00  0.00     0.201 C 
ENDBRANCH  33  34
ENDBRANCH  32  33
ENDBRANCH   3  32
TORSDOF 8
ENDMDL
MODEL 5
REMARK VINA RESULT:      -7.0      3.139      7.427
REMARK  8 active torsions:
REMARK  status: ('A' for Active; 'I' for Inactive)
REMARK    1  A    between atoms: C_2  and  O_3 
REMARK    2  A    between atoms: O_3  and  C_4 
REMARK       I    between atoms: C_4  and  N_5 
REMARK    3  A    between atoms: C_8  and  N_9 
REMARK       I    between atoms: N_9  and  C_10 
REMARK    4  A    between atoms: C_10  and  C_11 
REMARK    5  A    between atoms: C_12  and  C_13 
REMARK    6  A    between atoms: N_18  and  C_19 
REMARK    7  A    between atoms: C_19  and  C_20 
REMARK    8  A    between atoms: C_20  and  O_21 
ROOT
HETATM    1  C   UNL     1      40.913 -10.948   5.005  1.00  0.00     0.139 C 
HETATM    2  C   UNL     1      41.468  -9.930   6.024  1.00  0.00     0.145 C 
HETATM    3  N   UNL     1      40.406  -9.344   6.852  1.00  0.00    -0.335 N 
HETATM    4  C   UNL     1      39.272  -8.835   6.218  1.00  0.00     0.255 C 
HETATM    5  O   UNL     1      38.422  -8.162   6.793  1.00  0.00    -0.267 OA
HETATM    6  C   UNL     1      39.094  -9.190   4.774  1.00  0.00     0.039 A 
HETATM    7  C   UNL     1      39.856 -10.221   4.183  1.00  0.00    -0.027 A 
HETATM    8  C   UNL     1      38.125  -8.517   4.023  1.00  0.00     0.017 A 
HETATM    9  C   UNL     1      37.918  -8.854   2.685  1.00  0.00     0.001 A 
HETATM   10  C   UNL     1      38.670  -9.871   2.097  1.00  0.00     0.001 A 
HETATM   11  C   UNL     1      39.633 -10.556   2.839  1.00  0.00     0.009 A 
ENDROOT
BRANCH   1  12
HETATM   12  C   UNL     1      40.321 -12.201   5.663  1.00  0.00     0.229 C 
HETATM   13  N   UNL     1      41.048 -13.357   5.424  1.00  0.00    -0.356 N 
HETATM   14  H   UNL     1      41.952 -13.223   4.990  1.00  0.00     0.162 HD
HETATM   15  O   UNL     1      39.277 -12.189   6.306  1.00  0.00    -0.273 OA
BRANCH  13  16
HETATM   16  C   UNL     1      40.918 -14.608   6.185  1.00  0.00     0.087 C 
HETATM   17  C   UNL     1      40.487 -15.870   5.426  1.00  0.00     0.045 C 
HETATM   18  C   UNL     1      41.559 -16.347   4.458  1.00  0.00     0.130 C 
HETATM   19  N   UNL     1      42.838 -16.531   5.144  1.00  0.00    -0.328 N 
HETATM   20  C   UNL     1      43.759 -17.487   4.736  1.00  0.00     0.362 C 
HETATM   21  C   UNL     1      43.310 -15.410   5.945  1.00  0.00     0.130 C 
HETATM   22  O   UNL     1      44.924 -17.516   5.115  1.00  0.00    -0.238 OA
HETATM   23  C   UNL     1      42.240 -14.902   6.911  1.00  0.00     0.045 C 
BRANCH  20  24
HETATM   24  O   UNL     1      43.220 -18.395   3.879  1.00  0.00    -0.304 OA
BRANCH  24  25
HETATM   25  C   UNL     1      44.073 -18.866   2.827  1.00  0.00     0.176 C 
HETATM   26  C   UNL     1      43.423 -20.042   2.125  1.00  0.00     0.034 C 
ENDBRANCH  24  25
ENDBRANCH  20  24
ENDBRANCH  13  16
ENDBRANCH   1  12
BRANCH   2  27
HETATM   27  C   UNL     1      42.743 -10.294   6.763  1.00  0.00     0.006 A 
HETATM   28  S   UNL     1      43.453  -9.299   7.967  1.00  0.00    -0.104 SA
HETATM   29  C   UNL     1      44.732 -10.395   8.236  1.00  0.00     0.050 A 
HETATM   30  C   UNL     1      44.621 -11.518   7.450  1.00  0.00     0.008 A 
HETATM   31  C   UNL     1      43.473 -11.463   6.610  1.00  0.00     0.017 A 
ENDBRANCH   2  27
BRANCH   3  32
HETATM   32  C   UNL     1      40.342  -9.538   8.304  1.00  0.00     0.153 C 
BRANCH  32  33
HETATM   33  C   UNL     1      39.078 -10.254   8.774  1.00  0.00     0.187 C 
BRANCH  33  34
HETATM   34  O   UNL     1      39.026 -10.198  10.203  1.00  0.00    -0.394 OA
HETATM   35  C   UNL     1      40.149  -9.520  10.747  1.00  0.00     0.201 C 
ENDBRANCH  33  34
ENDBRANCH  32  33
ENDBRANCH   3  32
TORSDOF 8
ENDMDL
MODEL 6
REMARK VINA RESULT:      -7.0      3.206      7.751
REMARK  8 active torsions:
REMARK  status: ('A' for Active; 'I' for Inactive)
REMARK    1  A    between atoms: C_2  and  O_3 
REMARK    2  A    between atoms: O_3  and  C_4 
REMARK       I    between atoms: C_4  and  N_5 
REMARK    3  A    between atoms: C_8  and  N_9 
REMARK       I    between atoms: N_9  and  C_10 
REMARK    4  A    between atoms: C_10  and  C_11 
REMARK    5  A    between atoms: C_12  and  C_13 
REMARK    6  A    between atoms: N_18  and  C_19 
REMARK    7  A    between atoms: C_19  and  C_20 
REMARK    8  A    between atoms: C_20  and  O_21 
ROOT
HETATM    1  C   UNL     1      40.818 -12.744   4.558  1.00  0.00     0.139 C 
HETATM    2  C   UNL     1      41.099 -11.892   5.813  1.00  0.00     0.145 C 
HETATM    3  N   UNL     1      42.529 -11.862   6.149  1.00  0.00    -0.335 N 
HETATM    4  C   UNL     1      43.224 -13.070   6.210  1.00  0.00     0.255 C 
HETATM    5  O   UNL     1      44.360 -13.173   6.662  1.00  0.00    -0.267 OA
HETATM    6  C   UNL     1      42.532 -14.271   5.643  1.00  0.00     0.039 A 
HETATM    7  C   UNL     1      41.390 -14.131   4.825  1.00  0.00    -0.027 A 
HETATM    8  C   UNL     1      43.060 -15.542   5.895  1.00  0.00     0.017 A 
HETATM    9  C   UNL     1      42.453 -16.673   5.349  1.00  0.00     0.001 A 
HETATM   10  C   UNL     1      41.324 -16.538   4.541  1.00  0.00     0.001 A 
HETATM   11  C   UNL     1      40.794 -15.275   4.275  1.00  0.00     0.009 A 
ENDROOT
BRANCH   1  12
HETATM   12  C   UNL     1      41.414 -12.150   3.275  1.00  0.00     0.229 C 
HETATM   13  N   UNL     1      40.471 -11.853   2.303  1.00  0.00    -0.356 N 
HETATM   14  H   UNL     1      39.505 -11.910   2.599  1.00  0.00     0.162 HD
HETATM   15  O   UNL     1      42.618 -11.989   3.109  1.00  0.00    -0.273 OA
BRANCH  13  16
HETATM   16  C   UNL     1      40.702 -10.983   1.141  1.00  0.00     0.087 C 
HETATM   17  C   UNL     1      41.282 -11.617  -0.130  1.00  0.00     0.045 C 
HETATM   18  C   UNL     1      40.294 -12.563  -0.796  1.00  0.00     0.130 C 
HETATM   19  N   UNL     1      39.019 -11.894  -1.051  1.00  0.00    -0.328 N 
HETATM   20  C   UNL     1      38.213 -12.237  -2.128  1.00  0.00     0.362 C 
HETATM   21  C   UNL     1      38.412 -11.205   0.080  1.00  0.00     0.130 C 
HETATM   22  O   UNL     1      37.045 -11.883  -2.245  1.00  0.00    -0.238 OA
HETATM   23  C   UNL     1      39.394 -10.264   0.776  1.00  0.00     0.045 C 
BRANCH  20  24
HETATM   24  O   UNL     1      38.868 -12.998  -3.045  1.00  0.00    -0.304 OA
BRANCH  24  25
HETATM   25  C   UNL     1      38.238 -14.230  -3.420  1.00  0.00     0.176 C 
HETATM   26  C   UNL     1      38.772 -15.362  -2.566  1.00  0.00     0.034 C 
ENDBRANCH  24  25
ENDBRANCH  20  24
ENDBRANCH  13  16
ENDBRANCH   1  12
BRANCH   2  27
HETATM   27  C   UNL     1      40.372 -10.566   5.943  1.00  0.00     0.006 A 
HETATM   28  S   UNL     1      39.729  -9.984   7.424  1.00  0.00    -0.104 SA
HETATM   29  C   UNL     1      39.148  -8.551   6.704  1.00  0.00     0.050 A 
HETATM   30  C   UNL     1      39.454  -8.488   5.365  1.00  0.00     0.008 A 
HETATM   31  C   UNL     1      40.165  -9.642   4.931  1.00  0.00     0.017 A 
ENDBRANCH   2  27
BRANCH   3  32
HETATM   32  C   UNL     1      43.317 -10.626   6.126  1.00  0.00     0.153 C 
BRANCH  32  33
HETATM   33  C   UNL     1      43.576 -10.036   7.510  1.00  0.00     0.187 C 
BRANCH  33  34
HETATM   34  O   UNL     1      44.988 -10.022   7.744  1.00  0.00    -0.394 OA
HETATM   35  C   UNL     1      45.395  -8.863   8.456  1.00  0.00     0.201 C 
ENDBRANCH  33  34
ENDBRANCH  32  33
ENDBRANCH   3  32
TORSDOF 8
ENDMDL
MODEL 7
REMARK VINA RESULT:      -7.0      3.255      7.699
REMARK  8 active torsions:
REMARK  status: ('A' for Active; 'I' for Inactive)
REMARK    1  A    between atoms: C_2  and  O_3 
REMARK    2  A    between atoms: O_3  and  C_4 
REMARK       I    between atoms: C_4  and  N_5 
REMARK    3  A    between atoms: C_8  and  N_9 
REMARK       I    between atoms: N_9  and  C_10 
REMARK    4  A    between atoms: C_10  and  C_11 
REMARK    5  A    between atoms: C_12  and  C_13 
REMARK    6  A    between atoms: N_18  and  C_19 
REMARK    7  A    between atoms: C_19  and  C_20 
REMARK    8  A    between atoms: C_20  and  O_21 
ROOT
HETATM    1  C   UNL     1      41.747  -9.121   9.236  1.00  0.00     0.139 C 
HETATM    2  C   UNL     1      40.927  -7.901   8.766  1.00  0.00     0.145 C 
HETATM    3  N   UNL     1      41.655  -6.640   8.962  1.00  0.00    -0.335 N 
HETATM    4  C   UNL     1      42.234  -6.393  10.207  1.00  0.00     0.255 C 
HETATM    5  O   UNL     1      42.695  -5.303  10.533  1.00  0.00    -0.267 OA
HETATM    6  C   UNL     1      42.322  -7.554  11.149  1.00  0.00     0.039 A 
HETATM    7  C   UNL     1      42.117  -8.874  10.693  1.00  0.00    -0.027 A 
HETATM    8  C   UNL     1      42.657  -7.320  12.487  1.00  0.00     0.017 A 
HETATM    9  C   UNL     1      42.778  -8.390  13.375  1.00  0.00     0.001 A 
HETATM   10  C   UNL     1      42.576  -9.695  12.928  1.00  0.00     0.001 A 
HETATM   11  C   UNL     1      42.250  -9.941  11.593  1.00  0.00     0.009 A 
ENDROOT
BRANCH   1  12
HETATM   12  C   UNL     1      43.005  -9.367   8.391  1.00  0.00     0.229 C 
HETATM   13  N   UNL     1      43.028 -10.604   7.766  1.00  0.00    -0.356 N 
HETATM   14  H   UNL     1      42.164 -11.129   7.804  1.00  0.00     0.162 HD
HETATM   15  O   UNL     1      43.924  -8.560   8.310  1.00  0.00    -0.273 OA
BRANCH  13  16
HETATM   16  C   UNL     1      43.915 -10.970   6.653  1.00  0.00     0.087 C 
HETATM   17  C   UNL     1      44.700 -12.284   6.761  1.00  0.00     0.045 C 
HETATM   18  C   UNL     1      43.790 -13.501   6.685  1.00  0.00     0.130 C 
HETATM   19  N   UNL     1      42.958 -13.457   5.483  1.00  0.00    -0.328 N 
HETATM   20  C   UNL     1      42.537 -14.613   4.840  1.00  0.00     0.362 C 
HETATM   21  C   UNL     1      42.216 -12.224   5.253  1.00  0.00     0.130 C 
HETATM   22  O   UNL     1      41.655 -14.636   3.989  1.00  0.00    -0.238 OA
HETATM   23  C   UNL     1      43.110 -10.989   5.345  1.00  0.00     0.045 C 
BRANCH  20  24
HETATM   24  O   UNL     1      43.221 -15.714   5.249  1.00  0.00    -0.304 OA
BRANCH  24  25
HETATM   25  C   UNL     1      43.299 -16.802   4.319  1.00  0.00     0.176 C 
HETATM   26  C   UNL     1      44.252 -17.859   4.840  1.00  0.00     0.034 C 
ENDBRANCH  24  25
ENDBRANCH  20  24
ENDBRANCH  13  16
ENDBRANCH   1  12
BRANCH   2  27
HETATM   27  C   UNL     1      40.173  -8.020   7.455  1.00  0.00     0.006 A 
HETATM   28  S   UNL     1      38.682  -7.227   7.148  1.00  0.00    -0.104 SA
HETATM   29  C   UNL     1      38.575  -7.860   5.568  1.00  0.00     0.050 A 
HETATM   30  C   UNL     1      39.661  -8.643   5.253  1.00  0.00     0.008 A 
HETATM   31  C   UNL     1      40.583  -8.726   6.334  1.00  0.00     0.017 A 
ENDBRANCH   2  27
BRANCH   3  32
HETATM   32  C   UNL     1      42.055  -5.780   7.845  1.00  0.00     0.153 C 
BRANCH  32  33
HETATM   33  C   UNL     1      41.177  -4.541   7.678  1.00  0.00     0.187 C 
BRANCH  33  34
HETATM   34  O   UNL     1      41.095  -4.225   6.284  1.00  0.00    -0.394 OA
HETATM   35  C   UNL     1      41.719  -5.214   5.480  1.00  0.00     0.201 C 
ENDBRANCH  33  34
ENDBRANCH  32  33
ENDBRANCH   3  32
TORSDOF 8
ENDMDL
MODEL 8
REMARK VINA RESULT:      -6.9     17.528     19.851
REMARK  8 active torsions:
REMARK  status: ('A' for Active; 'I' for Inactive)
REMARK    1  A    between atoms: C_2  and  O_3 
REMARK    2  A    between atoms: O_3  and  C_4 
REMARK       I    between atoms: C_4  and  N_5 
REMARK    3  A    between atoms: C_8  and  N_9 
REMARK       I    between atoms: N_9  and  C_10 
REMARK    4  A    between atoms: C_10  and  C_11 
REMARK    5  A    between atoms: C_12  and  C_13 
REMARK    6  A    between atoms: N_18  and  C_19 
REMARK    7  A    between atoms: C_19  and  C_20 
REMARK    8  A    between atoms: C_20  and  O_21 
ROOT
HETATM    1  C   UNL     1      43.419 -29.826   0.588  1.00  0.00     0.139 C 
HETATM    2  C   UNL     1      42.779 -31.142   1.077  1.00  0.00     0.145 C 
HETATM    3  N   UNL     1      43.710 -32.275   0.983  1.00  0.00    -0.335 N 
HETATM    4  C   UNL     1      44.393 -32.477  -0.217  1.00  0.00     0.255 C 
HETATM    5  O   UNL     1      45.041 -33.490  -0.462  1.00  0.00    -0.267 OA
HETATM    6  C   UNL     1      44.348 -31.358  -1.211  1.00  0.00     0.039 A 
HETATM    7  C   UNL     1      43.907 -30.072  -0.834  1.00  0.00    -0.027 A 
HETATM    8  C   UNL     1      44.794 -31.591  -2.517  1.00  0.00     0.017 A 
HETATM    9  C   UNL     1      44.793 -30.554  -3.451  1.00  0.00     0.001 A 
HETATM   10  C   UNL     1      44.358 -29.282  -3.082  1.00  0.00     0.001 A 
HETATM   11  C   UNL     1      43.919 -29.036  -1.780  1.00  0.00     0.009 A 
ENDROOT
BRANCH   1  12
HETATM   12  C   UNL     1      44.569 -29.343   1.481  1.00  0.00     0.229 C 
HETATM   13  N   UNL     1      45.818 -29.438   0.888  1.00  0.00    -0.356 N 
HETATM   14  H   UNL     1      45.817 -29.659  -0.100  1.00  0.00     0.162 HD
HETATM   15  O   UNL     1      44.403 -28.946   2.629  1.00  0.00    -0.273 OA
BRANCH  13  16
HETATM   16  C   UNL     1      47.030 -28.752   1.357  1.00  0.00     0.087 C 
HETATM   17  C   UNL     1      48.080 -29.579   2.110  1.00  0.00     0.045 C 
HETATM   18  C   UNL     1      48.772 -30.585   1.202  1.00  0.00     0.130 C 
HETATM   19  N   UNL     1      49.336 -29.924   0.025  1.00  0.00    -0.328 N 
HETATM   20  C   UNL     1      50.480 -30.398  -0.604  1.00  0.00     0.362 C 
HETATM   21  C   UNL     1      48.435 -29.063  -0.728  1.00  0.00     0.130 C 
HETATM   22  O   UNL     1      50.847 -30.033  -1.715  1.00  0.00    -0.238 OA
HETATM   23  C   UNL     1      47.715 -28.058   0.169  1.00  0.00     0.045 C 
BRANCH  20  24
HETATM   24  O   UNL     1      51.155 -31.301   0.156  1.00  0.00    -0.304 OA
BRANCH  24  25
HETATM   25  C   UNL     1      51.437 -32.567  -0.456  1.00  0.00     0.176 C 
HETATM   26  C   UNL     1      52.921 -32.680  -0.743  1.00  0.00     0.034 C 
ENDBRANCH  24  25
ENDBRANCH  20  24
ENDBRANCH  13  16
ENDBRANCH   1  12
BRANCH   2  27
HETATM   27  C   UNL     1      41.941 -31.093   2.341  1.00  0.00     0.006 A 
HETATM   28  S   UNL     1      40.638 -32.167   2.653  1.00  0.00    -0.104 SA
HETATM   29  C   UNL     1      40.305 -31.455   4.166  1.00  0.00     0.050 A 
HETATM   30  C   UNL     1      41.178 -30.434   4.458  1.00  0.00     0.008 A 
HETATM   31  C   UNL     1      42.123 -30.233   3.413  1.00  0.00     0.017 A 
ENDBRANCH   2  27
BRANCH   3  32
HETATM   32  C   UNL     1      44.177 -33.011   2.162  1.00  0.00     0.153 C 
BRANCH  32  33
HETATM   33  C   UNL     1      45.501 -32.496   2.723  1.00  0.00     0.187 C 
BRANCH  33  34
HETATM   34  O   UNL     1      45.241 -31.812   3.953  1.00  0.00    -0.394 OA
HETATM   35  C   UNL     1      46.353 -31.867   4.834  1.00  0.00     0.201 C 
ENDBRANCH  33  34
ENDBRANCH  32  33
ENDBRANCH   3  32
TORSDOF 8
ENDMDL
MODEL 9
REMARK VINA RESULT:      -6.9      3.060      4.830
REMARK  8 active torsions:
REMARK  status: ('A' for Active; 'I' for Inactive)
REMARK    1  A    between atoms: C_2  and  O_3 
REMARK    2  A    between atoms: O_3  and  C_4 
REMARK       I    between atoms: C_4  and  N_5 
REMARK    3  A    between atoms: C_8  and  N_9 
REMARK       I    between atoms: N_9  and  C_10 
REMARK    4  A    between atoms: C_10  and  C_11 
REMARK    5  A    between atoms: C_12  and  C_13 
REMARK    6  A    between atoms: N_18  and  C_19 
REMARK    7  A    between atoms: C_19  and  C_20 
REMARK    8  A    between atoms: C_20  and  O_21 
ROOT
HETATM    1  C   UNL     1      41.602 -12.434   2.225  1.00  0.00     0.139 C 
HETATM    2  C   UNL     1      41.317 -12.229   0.723  1.00  0.00     0.145 C 
HETATM    3  N   UNL     1      40.267 -13.132   0.233  1.00  0.00    -0.335 N 
HETATM    4  C   UNL     1      40.365 -14.491   0.533  1.00  0.00     0.255 C 
HETATM    5  O   UNL     1      39.654 -15.349   0.020  1.00  0.00    -0.267 OA
HETATM    6  C   UNL     1      41.370 -14.878   1.575  1.00  0.00     0.039 A 
HETATM    7  C   UNL     1      41.954 -13.904   2.414  1.00  0.00    -0.027 A 
HETATM    8  C   UNL     1      41.692 -16.229   1.740  1.00  0.00     0.017 A 
HETATM    9  C   UNL     1      42.600 -16.616   2.727  1.00  0.00     0.001 A 
HETATM   10  C   UNL     1      43.180 -15.657   3.557  1.00  0.00     0.001 A 
HETATM   11  C   UNL     1      42.859 -14.307   3.407  1.00  0.00     0.009 A 
ENDROOT
BRANCH   1  12
HETATM   12  C   UNL     1      40.424 -12.039   3.126  1.00  0.00     0.229 C 
HETATM   13  N   UNL     1      40.795 -11.331   4.258  1.00  0.00    -0.356 N 
HETATM   14  H   UNL     1      41.758 -11.020   4.283  1.00  0.00     0.162 HD
HETATM   15  O   UNL     1      39.264 -12.356   2.886  1.00  0.00    -0.273 OA
BRANCH  13  16
HETATM   16  C   UNL     1      39.881 -10.546   5.100  1.00  0.00     0.087 C 
HETATM   17  C   UNL     1      40.045 -10.643   6.622  1.00  0.00     0.045 C 
HETATM   18  C   UNL     1      41.339 -10.001   7.099  1.00  0.00     0.130 C 
HETATM   19  N   UNL     1      41.444  -8.621   6.623  1.00  0.00    -0.328 N 
HETATM   20  C   UNL     1      42.113  -7.645   7.349  1.00  0.00     0.362 C 
HETATM   21  C   UNL     1      41.243  -8.412   5.196  1.00  0.00     0.130 C 
HETATM   22  O   UNL     1      42.434  -6.555   6.889  1.00  0.00    -0.238 OA
HETATM   23  C   UNL     1      39.957  -9.067   4.694  1.00  0.00     0.045 C 
BRANCH  20  24
HETATM   24  O   UNL     1      42.360  -8.027   8.630  1.00  0.00    -0.304 OA
BRANCH  24  25
HETATM   25  C   UNL     1      43.697  -7.829   9.110  1.00  0.00     0.176 C 
HETATM   26  C   UNL     1      43.946  -8.710  10.317  1.00  0.00     0.034 C 
ENDBRANCH  24  25
ENDBRANCH  20  24
ENDBRANCH  13  16
ENDBRANCH   1  12
BRANCH   2  27
HETATM   27  C   UNL     1      41.241 -10.804   0.207  1.00  0.00     0.006 A 
HETATM   28  S   UNL     1      40.659  -9.489   1.144  1.00  0.00    -0.104 SA
HETATM   29  C   UNL     1      40.917  -8.369  -0.115  1.00  0.00     0.050 A 
HETATM   30  C   UNL     1      41.462  -8.963  -1.229  1.00  0.00     0.008 A 
HETATM   31  C   UNL     1      41.656 -10.360  -1.040  1.00  0.00     0.017 A 
ENDBRANCH   2  27
BRANCH   3  32
HETATM   32  C   UNL     1      38.986 -12.643  -0.286  1.00  0.00     0.153 C 
BRANCH  32  33
HETATM   33  C   UNL     1      38.891 -12.667  -1.810  1.00  0.00     0.187 C 
BRANCH  33  34
HETATM   34  O   UNL     1      37.855 -13.578  -2.189  1.00  0.00    -0.394 OA
HETATM   35  C   UNL     1      38.280 -14.463  -3.216  1.00  0.00     0.201 C 
ENDBRANCH  33  34
ENDBRANCH  32  33
ENDBRANCH   3  32
TORSDOF 8
ENDMDL
MODEL 10
REMARK VINA RESULT:      -6.8     17.616     20.144
REMARK  8 active torsions:
REMARK  status: ('A' for Active; 'I' for Inactive)
REMARK    1  A    between atoms: C_2  and  O_3 
REMARK    2  A    between atoms: O_3  and  C_4 
REMARK       I    between atoms: C_4  and  N_5 
REMARK    3  A    between atoms: C_8  and  N_9 
REMARK       I    between atoms: N_9  and  C_10 
REMARK    4  A    between atoms: C_10  and  C_11 
REMARK    5  A    between atoms: C_12  and  C_13 
REMARK    6  A    between atoms: N_18  and  C_19 
REMARK    7  A    between atoms: C_19  and  C_20 
REMARK    8  A    between atoms: C_20  and  O_21 
ROOT
HETATM    1  C   UNL     1      45.004 -30.984  -0.497  1.00  0.00     0.139 C 
HETATM    2  C   UNL     1      46.490 -31.265  -0.193  1.00  0.00     0.145 C 
HETATM    3  N   UNL     1      47.246 -30.029   0.053  1.00  0.00    -0.335 N 
HETATM    4  C   UNL     1      47.121 -28.981  -0.860  1.00  0.00     0.255 C 
HETATM    5  O   UNL     1      47.844 -27.990  -0.852  1.00  0.00    -0.267 OA
HETATM    6  C   UNL     1      46.006 -29.086  -1.854  1.00  0.00     0.039 A 
HETATM    7  C   UNL     1      44.966 -30.025  -1.680  1.00  0.00    -0.027 A 
HETATM    8  C   UNL     1      45.979 -28.205  -2.941  1.00  0.00     0.017 A 
HETATM    9  C   UNL     1      44.931 -28.262  -3.861  1.00  0.00     0.001 A 
HETATM   10  C   UNL     1      43.903 -29.189  -3.693  1.00  0.00     0.001 A 
HETATM   11  C   UNL     1      43.915 -30.066  -2.608  1.00  0.00     0.009 A 
ENDROOT
BRANCH   1  12
HETATM   12  C   UNL     1      44.240 -30.400   0.699  1.00  0.00     0.229 C 
HETATM   13  N   UNL     1      43.577 -31.349   1.460  1.00  0.00    -0.356 N 
HETATM   14  H   UNL     1      43.796 -32.314   1.244  1.00  0.00     0.162 HD
HETATM   15  O   UNL     1      44.188 -29.198   0.936  1.00  0.00    -0.273 OA
BRANCH  13  16
HETATM   16  C   UNL     1      43.064 -31.133   2.820  1.00  0.00     0.087 C 
HETATM   17  C   UNL     1      41.638 -30.586   2.972  1.00  0.00     0.045 C 
HETATM   18  C   UNL     1      40.589 -31.597   2.533  1.00  0.00     0.130 C 
HETATM   19  N   UNL     1      40.765 -32.869   3.233  1.00  0.00    -0.328 N 
HETATM   20  C   UNL     1      39.692 -33.700   3.523  1.00  0.00     0.362 C 
HETATM   21  C   UNL     1      42.102 -33.446   3.202  1.00  0.00     0.130 C 
HETATM   22  O   UNL     1      39.811 -34.867   3.882  1.00  0.00    -0.238 OA
HETATM   23  C   UNL     1      43.173 -32.439   3.620  1.00  0.00     0.045 C 
BRANCH  20  24
HETATM   24  O   UNL     1      38.494 -33.073   3.378  1.00  0.00    -0.304 OA
BRANCH  24  25
HETATM   25  C   UNL     1      37.392 -33.621   4.114  1.00  0.00     0.176 C 
HETATM   26  C   UNL     1      36.092 -33.311   3.400  1.00  0.00     0.034 C 
ENDBRANCH  24  25
ENDBRANCH  20  24
ENDBRANCH  13  16
ENDBRANCH   1  12
BRANCH   2  27
HETATM   27  C   UNL     1      46.815 -32.421   0.736  1.00  0.00     0.006 A 
HETATM   28  S   UNL     1      47.537 -33.884   0.206  1.00  0.00    -0.104 SA
HETATM   29  C   UNL     1      47.543 -34.548   1.776  1.00  0.00     0.050 A 
HETATM   30  C   UNL     1      47.031 -33.674   2.706  1.00  0.00     0.008 A 
HETATM   31  C   UNL     1      46.622 -32.448   2.109  1.00  0.00     0.017 A 
ENDBRANCH   2  27
BRANCH   3  32
HETATM   32  C   UNL     1      47.875 -29.734   1.343  1.00  0.00     0.153 C 
BRANCH  32  33
HETATM   33  C   UNL     1      47.147 -28.664   2.153  1.00  0.00     0.187 C 
BRANCH  33  34
HETATM   34  O   UNL     1      48.120 -27.854   2.820  1.00  0.00    -0.394 OA
HETATM   35  C   UNL     1      48.927 -28.618   3.704  1.00  0.00     0.201 C 
ENDBRANCH  33  34
ENDBRANCH  32  33
ENDBRANCH   3  32
TORSDOF 8
ENDMDL
