MODEL 1
REMARK VINA RESULT:      -8.6      0.000      0.000
REMARK  6 active torsions:
REMARK  status: ('A' for Active; 'I' for Inactive)
REMARK    1  A    between atoms: C_4  and  C_5 
REMARK    2  A    between atoms: C_5  and  N_6 
REMARK    3  A    between atoms: C_5  and  C_20 
REMARK       I    between atoms: N_6  and  C_7 
REMARK    4  A    between atoms: C_7  and  C_8 
REMARK    5  A    between atoms: C_8  and  N_9 
REMARK    6  A    between atoms: C_21  and  O_22 
ROOT
HETATM    1  C   UNL     1      41.885 -12.072   5.228  1.00  0.00     0.154 C 
ENDROOT
BRANCH   1   2
HETATM    2  C   UNL     1      43.300 -11.774   5.732  1.00  0.00    -0.031 A 
HETATM    3  C   UNL     1      43.499 -11.689   7.127  1.00  0.00     0.009 A 
HETATM    4  C   UNL     1      44.758 -11.421   7.667  1.00  0.00     0.001 A 
HETATM    5  C   UNL     1      45.849 -11.235   6.825  1.00  0.00     0.000 A 
HETATM    6  C   UNL     1      45.678 -11.311   5.445  1.00  0.00     0.001 A 
HETATM    7  C   UNL     1      44.415 -11.573   4.903  1.00  0.00     0.009 A 
ENDBRANCH   1   2
BRANCH   1   8
HETATM    8  N   UNL     1      41.509 -11.447   3.975  1.00  0.00    -0.347 N 
HETATM    9  C   UNL     1      40.218 -11.014   3.750  1.00  0.00     0.236 C 
HETATM   10  O   UNL     1      39.321 -11.114   4.588  1.00  0.00    -0.272 OA
HETATM   11  H   UNL     1      42.235 -11.024   3.400  1.00  0.00     0.163 HD
BRANCH   9  12
HETATM   12  C   UNL     1      39.985 -10.447   2.347  1.00  0.00     0.236 C 
BRANCH  12  13
HETATM   13  N   UNL     1      40.250 -11.414   1.311  1.00  0.00    -0.289 N 
HETATM   14  C   UNL     1      41.083 -11.176   0.201  1.00  0.00     0.328 A 
HETATM   15  O   UNL     1      41.568 -10.106  -0.130  1.00  0.00    -0.247 OA
HETATM   16  N   UNL     1      41.268 -12.404  -0.442  1.00  0.00    -0.306 N 
HETATM   17  C   UNL     1      40.637 -13.397   0.299  1.00  0.00     0.063 A 
HETATM   18  H   UNL     1      41.837 -12.531  -1.264  1.00  0.00     0.171 HD
HETATM   19  C   UNL     1      40.012 -12.795   1.394  1.00  0.00     0.066 A 
HETATM   20  C   UNL     1      40.628 -14.756   0.088  1.00  0.00     0.032 A 
HETATM   21  C   UNL     1      39.346 -13.549   2.337  1.00  0.00     0.032 A 
HETATM   22  C   UNL     1      39.328 -14.937   2.150  1.00  0.00     0.002 A 
HETATM   23  C   UNL     1      39.960 -15.534   1.038  1.00  0.00     0.002 A 
ENDBRANCH  12  13
ENDBRANCH   9  12
ENDBRANCH   1   8
BRANCH   1  24
HETATM   24  C   UNL     1      41.546 -13.570   5.214  1.00  0.00     0.013 C 
HETATM   25  C   UNL     1      40.637 -14.060   6.172  1.00  0.00     0.075 C 
HETATM   26  C   UNL     1      40.414 -15.418   6.351  1.00  0.00     0.038 C 
HETATM   27  C   UNL     1      41.049 -16.329   5.516  1.00  0.00     0.015 C 
HETATM   28  C   UNL     1      41.877 -15.891   4.477  1.00  0.00    -0.025 A 
HETATM   29  C   UNL     1      42.130 -14.502   4.298  1.00  0.00    -0.015 A 
HETATM   30  C   UNL     1      42.445 -16.836   3.606  1.00  0.00     0.012 A 
HETATM   31  C   UNL     1      42.935 -14.144   3.192  1.00  0.00     0.013 A 
HETATM   32  C   UNL     1      43.483 -15.093   2.324  1.00  0.00     0.001 A 
HETATM   33  C   UNL     1      43.243 -16.441   2.535  1.00  0.00     0.001 A 
BRANCH  25  34
HETATM   34  O   UNL     1      39.880 -13.219   6.942  1.00  0.00    -0.360 OA
HETATM   35  H   UNL     1      40.515 -12.590   7.358  1.00  0.00     0.217 HD
ENDBRANCH  25  34
ENDBRANCH   1  24
TORSDOF 6
ENDMDL
MODEL 2
REMARK VINA RESULT:      -8.5      2.172      3.696
REMARK  6 active torsions:
REMARK  status: ('A' for Active; 'I' for Inactive)
REMARK    1  A    between atoms: C_4  and  C_5 
REMARK    2  A    between atoms: C_5  and  N_6 
REMARK    3  A    between atoms: C_5  and  C_20 
REMARK       I    between atoms: N_6  and  C_7 
REMARK    4  A    between atoms: C_7  and  C_8 
REMARK    5  A    between atoms: C_8  and  N_9 
REMARK    6  A    between atoms: C_21  and  O_22 
ROOT
HETATM    1  C   UNL     1      42.018 -14.520   4.196  1.00  0.00     0.154 C 
ENDROOT
BRANCH   1   2
HETATM    2  C   UNL     1      42.961 -13.495   4.836  1.00  0.00    -0.031 A 
HETATM    3  C   UNL     1      43.404 -12.419   4.037  1.00  0.00     0.009 A 
HETATM    4  C   UNL     1      44.264 -11.443   4.544  1.00  0.00     0.001 A 
HETATM    5  C   UNL     1      44.698 -11.519   5.863  1.00  0.00     0.000 A 
HETATM    6  C   UNL     1      44.276 -12.571   6.670  1.00  0.00     0.001 A 
HETATM    7  C   UNL     1      43.420 -13.554   6.161  1.00  0.00     0.009 A 
ENDBRANCH   1   2
BRANCH   1   8
HETATM    8  N   UNL     1      41.137 -14.015   3.160  1.00  0.00    -0.347 N 
HETATM    9  C   UNL     1      40.003 -13.293   3.474  1.00  0.00     0.236 C 
HETATM   10  O   UNL     1      39.679 -13.022   4.631  1.00  0.00    -0.272 OA
HETATM   11  H   UNL     1      41.506 -13.893   2.219  1.00  0.00     0.163 HD
BRANCH   9  12
HETATM   12  C   UNL     1      39.154 -12.905   2.260  1.00  0.00     0.236 C 
BRANCH  12  13
HETATM   13  N   UNL     1      39.909 -12.925   1.031  1.00  0.00    -0.289 N 
HETATM   14  C   UNL     1      40.139 -14.083   0.263  1.00  0.00     0.328 A 
HETATM   15  O   UNL     1      39.882 -15.233   0.584  1.00  0.00    -0.247 OA
HETATM   16  N   UNL     1      40.701 -13.666  -0.947  1.00  0.00    -0.306 N 
HETATM   17  C   UNL     1      40.738 -12.276  -0.967  1.00  0.00     0.063 A 
HETATM   18  H   UNL     1      40.955 -14.289  -1.696  1.00  0.00     0.171 HD
HETATM   19  C   UNL     1      40.239 -11.806   0.250  1.00  0.00     0.066 A 
HETATM   20  C   UNL     1      41.131 -11.439  -1.986  1.00  0.00     0.032 A 
HETATM   21  C   UNL     1      40.110 -10.456   0.493  1.00  0.00     0.032 A 
HETATM   22  C   UNL     1      40.496  -9.581  -0.530  1.00  0.00     0.002 A 
HETATM   23  C   UNL     1      41.003 -10.067  -1.755  1.00  0.00     0.002 A 
ENDBRANCH  12  13
ENDBRANCH   9  12
ENDBRANCH   1   8
BRANCH   1  24
HETATM   24  C   UNL     1      42.730 -15.798   3.732  1.00  0.00     0.013 C 
HETATM   25  C   UNL     1      43.078 -15.915   2.373  1.00  0.00     0.075 C 
HETATM   26  C   UNL     1      43.555 -17.100   1.832  1.00  0.00     0.038 C 
HETATM   27  C   UNL     1      43.766 -18.193   2.663  1.00  0.00     0.015 C 
HETATM   28  C   UNL     1      43.541 -18.098   4.041  1.00  0.00    -0.025 A 
HETATM   29  C   UNL     1      43.032 -16.894   4.603  1.00  0.00    -0.015 A 
HETATM   30  C   UNL     1      43.835 -19.199   4.863  1.00  0.00     0.012 A 
HETATM   31  C   UNL     1      42.883 -16.866   6.010  1.00  0.00     0.013 A 
HETATM   32  C   UNL     1      43.193 -17.964   6.818  1.00  0.00     0.001 A 
HETATM   33  C   UNL     1      43.662 -19.134   6.244  1.00  0.00     0.001 A 
BRANCH  25  34
HETATM   34  O   UNL     1      43.018 -14.845   1.520  1.00  0.00    -0.360 OA
HETATM   35  H   UNL     1      42.569 -15.173   0.707  1.00  0.00     0.217 HD
ENDBRANCH  25  34
ENDBRANCH   1  24
TORSDOF 6
ENDMDL
MODEL 3
REMARK VINA RESULT:      -8.4      1.534      2.498
REMARK  6 active torsions:
REMARK  status: ('A' for Active; 'I' for Inactive)
REMARK    1  A    between atoms: C_4  and  C_5 
REMARK    2  A    between atoms: C_5  and  N_6 
REMARK    3  A    between atoms: C_5  and  C_20 
REMARK       I    between atoms: N_6  and  C_7 
REMARK    4  A    between atoms: C_7  and  C_8 
REMARK    5  A    between atoms: C_8  and  N_9 
REMARK    6  A    between atoms: C_21  and  O_22 
ROOT
HETATM    1  C   UNL     1      42.486 -13.077   5.583  1.00  0.00     0.154 C 
ENDROOT
BRANCH   1   2
HETATM    2  C   UNL     1      43.658 -12.292   6.180  1.00  0.00    -0.031 A 
HETATM    3  C   UNL     1      43.568 -11.900   7.533  1.00  0.00     0.009 A 
HETATM    4  C   UNL     1      44.593 -11.182   8.152  1.00  0.00     0.001 A 
HETATM    5  C   UNL     1      45.734 -10.842   7.434  1.00  0.00     0.000 A 
HETATM    6  C   UNL     1      45.845 -11.216   6.097  1.00  0.00     0.001 A 
HETATM    7  C   UNL     1      44.816 -11.929   5.474  1.00  0.00     0.009 A 
ENDBRANCH   1   2
BRANCH   1   8
HETATM    8  N   UNL     1      41.457 -12.290   4.931  1.00  0.00    -0.347 N 
HETATM    9  C   UNL     1      40.120 -12.484   5.214  1.00  0.00     0.236 C 
HETATM   10  O   UNL     1      39.721 -13.312   6.034  1.00  0.00    -0.272 OA
HETATM   11  H   UNL     1      41.709 -11.389   4.530  1.00  0.00     0.163 HD
BRANCH   9  12
HETATM   12  C   UNL     1      39.173 -11.618   4.379  1.00  0.00     0.236 C 
BRANCH  12  13
HETATM   13  N   UNL     1      39.399 -11.761   2.962  1.00  0.00    -0.289 N 
HETATM   14  C   UNL     1      39.785 -10.707   2.112  1.00  0.00     0.328 A 
HETATM   15  O   UNL     1      39.834  -9.522   2.398  1.00  0.00    -0.247 OA
HETATM   16  N   UNL     1      40.121 -11.277   0.881  1.00  0.00    -0.306 N 
HETATM   17  C   UNL     1      40.031 -12.661   0.989  1.00  0.00     0.063 A 
HETATM   18  H   UNL     1      40.448 -10.753   0.086  1.00  0.00     0.171 HD
HETATM   19  C   UNL     1      39.595 -12.972   2.279  1.00  0.00     0.066 A 
HETATM   20  C   UNL     1      40.348 -13.622   0.056  1.00  0.00     0.032 A 
HETATM   21  C   UNL     1      39.462 -14.281   2.690  1.00  0.00     0.032 A 
HETATM   22  C   UNL     1      39.785 -15.279   1.762  1.00  0.00     0.002 A 
HETATM   23  C   UNL     1      40.222 -14.954   0.459  1.00  0.00     0.002 A 
ENDBRANCH  12  13
ENDBRANCH   9  12
ENDBRANCH   1   8
BRANCH   1  24
HETATM   24  C   UNL     1      42.927 -14.246   4.690  1.00  0.00     0.013 C 
HETATM   25  C   UNL     1      43.085 -14.012   3.311  1.00  0.00     0.075 C 
HETATM   26  C   UNL     1      43.300 -15.043   2.407  1.00  0.00     0.038 C 
HETATM   27  C   UNL     1      43.435 -16.344   2.876  1.00  0.00     0.015 C 
HETATM   28  C   UNL     1      43.396 -16.618   4.247  1.00  0.00    -0.025 A 
HETATM   29  C   UNL     1      43.155 -15.571   5.181  1.00  0.00    -0.015 A 
HETATM   30  C   UNL     1      43.610 -17.934   4.691  1.00  0.00     0.012 A 
HETATM   31  C   UNL     1      43.184 -15.927   6.550  1.00  0.00     0.013 A 
HETATM   32  C   UNL     1      43.412 -17.237   6.980  1.00  0.00     0.001 A 
HETATM   33  C   UNL     1      43.619 -18.243   6.049  1.00  0.00     0.001 A 
BRANCH  25  34
HETATM   34  O   UNL     1      43.092 -12.745   2.792  1.00  0.00    -0.360 OA
HETATM   35  H   UNL     1      44.038 -12.525   2.630  1.00  0.00     0.217 HD
ENDBRANCH  25  34
ENDBRANCH   1  24
TORSDOF 6
ENDMDL
MODEL 4
REMARK VINA RESULT:      -8.2      3.088      6.181
REMARK  6 active torsions:
REMARK  status: ('A' for Active; 'I' for Inactive)
REMARK    1  A    between atoms: C_4  and  C_5 
REMARK    2  A    between atoms: C_5  and  N_6 
REMARK    3  A    between atoms: C_5  and  C_20 
REMARK       I    between atoms: N_6  and  C_7 
REMARK    4  A    between atoms: C_7  and  C_8 
REMARK    5  A    between atoms: C_8  and  N_9 
REMARK    6  A    between atoms: C_21  and  O_22 
ROOT
HETATM    1  C   UNL     1      43.171 -13.542   5.185  1.00  0.00     0.154 C 
ENDROOT
BRANCH   1   2
HETATM    2  C   UNL     1      41.782 -13.089   4.723  1.00  0.00    -0.031 A 
HETATM    3  C   UNL     1      40.760 -13.011   5.693  1.00  0.00     0.009 A 
HETATM    4  C   UNL     1      39.467 -12.605   5.355  1.00  0.00     0.001 A 
HETATM    5  C   UNL     1      39.167 -12.266   4.040  1.00  0.00     0.000 A 
HETATM    6  C   UNL     1      40.159 -12.338   3.065  1.00  0.00     0.001 A 
HETATM    7  C   UNL     1      41.453 -12.750   3.402  1.00  0.00     0.009 A 
ENDBRANCH   1   2
BRANCH   1   8
HETATM    8  N   UNL     1      43.782 -12.754   6.238  1.00  0.00    -0.347 N 
HETATM    9  C   UNL     1      44.527 -11.628   5.948  1.00  0.00     0.236 C 
HETATM   10  O   UNL     1      44.705 -11.218   4.801  1.00  0.00    -0.272 OA
HETATM   11  H   UNL     1      43.403 -12.817   7.181  1.00  0.00     0.163 HD
BRANCH   9  12
HETATM   12  C   UNL     1      45.157 -10.964   7.176  1.00  0.00     0.236 C 
BRANCH  12  13
HETATM   13  N   UNL     1      44.171 -10.539   8.139  1.00  0.00    -0.289 N 
HETATM   14  C   UNL     1      44.414 -10.424   9.522  1.00  0.00     0.328 A 
HETATM   15  O   UNL     1      45.410 -10.800  10.120  1.00  0.00    -0.247 OA
HETATM   16  N   UNL     1      43.307  -9.779  10.079  1.00  0.00    -0.306 N 
HETATM   17  C   UNL     1      42.435  -9.422   9.056  1.00  0.00     0.063 A 
HETATM   18  H   UNL     1      43.218  -9.552  11.056  1.00  0.00     0.171 HD
HETATM   19  C   UNL     1      42.967  -9.879   7.848  1.00  0.00     0.066 A 
HETATM   20  C   UNL     1      41.266  -8.701   9.131  1.00  0.00     0.032 A 
HETATM   21  C   UNL     1      42.336  -9.623   6.649  1.00  0.00     0.032 A 
HETATM   22  C   UNL     1      41.147  -8.884   6.697  1.00  0.00     0.002 A 
HETATM   23  C   UNL     1      40.617  -8.430   7.924  1.00  0.00     0.002 A 
ENDBRANCH  12  13
ENDBRANCH   9  12
ENDBRANCH   1   8
BRANCH   1  24
HETATM   24  C   UNL     1      43.247 -15.040   5.511  1.00  0.00     0.013 C 
HETATM   25  C   UNL     1      43.251 -15.432   6.864  1.00  0.00     0.075 C 
HETATM   26  C   UNL     1      43.500 -16.740   7.253  1.00  0.00     0.038 C 
HETATM   27  C   UNL     1      43.682 -17.718   6.283  1.00  0.00     0.015 C 
HETATM   28  C   UNL     1      43.578 -17.404   4.923  1.00  0.00    -0.025 A 
HETATM   29  C   UNL     1      43.345 -16.062   4.512  1.00  0.00    -0.015 A 
HETATM   30  C   UNL     1      43.695 -18.431   3.970  1.00  0.00     0.012 A 
HETATM   31  C   UNL     1      43.202 -15.842   3.122  1.00  0.00     0.013 A 
HETATM   32  C   UNL     1      43.306 -16.874   2.185  1.00  0.00     0.001 A 
HETATM   33  C   UNL     1      43.560 -18.169   2.609  1.00  0.00     0.001 A 
BRANCH  25  34
HETATM   34  O   UNL     1      42.953 -14.551   7.869  1.00  0.00    -0.360 OA
HETATM   35  H   UNL     1      43.762 -14.002   7.994  1.00  0.00     0.217 HD
ENDBRANCH  25  34
ENDBRANCH   1  24
TORSDOF 6
ENDMDL
MODEL 5
REMARK VINA RESULT:      -8.2      2.041      4.784
REMARK  6 active torsions:
REMARK  status: ('A' for Active; 'I' for Inactive)
REMARK    1  A    between atoms: C_4  and  C_5 
REMARK    2  A    between atoms: C_5  and  N_6 
REMARK    3  A    between atoms: C_5  and  C_20 
REMARK       I    between atoms: N_6  and  C_7 
REMARK    4  A    between atoms: C_7  and  C_8 
REMARK    5  A    between atoms: C_8  and  N_9 
REMARK    6  A    between atoms: C_21  and  O_22 
ROOT
HETATM    1  C   UNL     1      42.774 -12.594   5.252  1.00  0.00     0.154 C 
ENDROOT
BRANCH   1   2
HETATM    2  C   UNL     1      42.806 -14.002   5.854  1.00  0.00    -0.031 A 
HETATM    3  C   UNL     1      42.659 -15.097   4.975  1.00  0.00     0.009 A 
HETATM    4  C   UNL     1      42.678 -16.413   5.443  1.00  0.00     0.001 A 
HETATM    5  C   UNL     1      42.846 -16.664   6.801  1.00  0.00     0.000 A 
HETATM    6  C   UNL     1      42.991 -15.600   7.687  1.00  0.00     0.001 A 
HETATM    7  C   UNL     1      42.966 -14.282   7.220  1.00  0.00     0.009 A 
ENDBRANCH   1   2
BRANCH   1   8
HETATM    8  N   UNL     1      41.763 -12.356   4.239  1.00  0.00    -0.347 N 
HETATM    9  C   UNL     1      42.077 -11.733   3.048  1.00  0.00     0.236 C 
HETATM   10  O   UNL     1      43.216 -11.359   2.766  1.00  0.00    -0.272 OA
HETATM   11  H   UNL     1      40.920 -12.926   4.244  1.00  0.00     0.163 HD
BRANCH   9  12
HETATM   12  C   UNL     1      40.874 -11.499   2.130  1.00  0.00     0.236 C 
BRANCH  12  13
HETATM   13  N   UNL     1      40.638 -12.606   1.237  1.00  0.00    -0.289 N 
HETATM   14  C   UNL     1      39.966 -13.789   1.604  1.00  0.00     0.328 A 
HETATM   15  O   UNL     1      39.629 -14.115   2.731  1.00  0.00    -0.247 OA
HETATM   16  N   UNL     1      39.739 -14.510   0.429  1.00  0.00    -0.306 N 
HETATM   17  C   UNL     1      40.180 -13.756  -0.653  1.00  0.00     0.063 A 
HETATM   18  H   UNL     1      39.260 -15.396   0.393  1.00  0.00     0.171 HD
HETATM   19  C   UNL     1      40.729 -12.568  -0.163  1.00  0.00     0.066 A 
HETATM   20  C   UNL     1      40.082 -14.034  -1.996  1.00  0.00     0.032 A 
HETATM   21  C   UNL     1      41.205 -11.598  -1.018  1.00  0.00     0.032 A 
HETATM   22  C   UNL     1      41.110 -11.853  -2.392  1.00  0.00     0.002 A 
HETATM   23  C   UNL     1      40.556 -13.058  -2.876  1.00  0.00     0.002 A 
ENDBRANCH  12  13
ENDBRANCH   9  12
ENDBRANCH   1   8
BRANCH   1  24
HETATM   24  C   UNL     1      42.760 -11.480   6.308  1.00  0.00     0.013 C 
HETATM   25  C   UNL     1      41.516 -10.979   6.738  1.00  0.00     0.075 C 
HETATM   26  C   UNL     1      41.412  -9.856   7.546  1.00  0.00     0.038 C 
HETATM   27  C   UNL     1      42.567  -9.239   8.009  1.00  0.00     0.015 C 
HETATM   28  C   UNL     1      43.828  -9.760   7.702  1.00  0.00    -0.025 A 
HETATM   29  C   UNL     1      43.948 -10.898   6.857  1.00  0.00    -0.015 A 
HETATM   30  C   UNL     1      44.973  -9.154   8.247  1.00  0.00     0.012 A 
HETATM   31  C   UNL     1      45.257 -11.390   6.641  1.00  0.00     0.013 A 
HETATM   32  C   UNL     1      46.387 -10.787   7.201  1.00  0.00     0.001 A 
HETATM   33  C   UNL     1      46.245  -9.664   8.000  1.00  0.00     0.001 A 
BRANCH  25  34
HETATM   34  O   UNL     1      40.341 -11.610   6.427  1.00  0.00    -0.360 OA
HETATM   35  H   UNL     1      40.371 -11.772   5.456  1.00  0.00     0.217 HD
ENDBRANCH  25  34
ENDBRANCH   1  24
TORSDOF 6
ENDMDL
MODEL 6
REMARK VINA RESULT:      -8.2      1.751      4.532
REMARK  6 active torsions:
REMARK  status: ('A' for Active; 'I' for Inactive)
REMARK    1  A    between atoms: C_4  and  C_5 
REMARK    2  A    between atoms: C_5  and  N_6 
REMARK    3  A    between atoms: C_5  and  C_20 
REMARK       I    between atoms: N_6  and  C_7 
REMARK    4  A    between atoms: C_7  and  C_8 
REMARK    5  A    between atoms: C_8  and  N_9 
REMARK    6  A    between atoms: C_21  and  O_22 
ROOT
HETATM    1  C   UNL     1      42.631 -12.000   5.625  1.00  0.00     0.154 C 
ENDROOT
BRANCH   1   2
HETATM    2  C   UNL     1      42.447 -13.407   6.202  1.00  0.00    -0.031 A 
HETATM    3  C   UNL     1      41.217 -14.059   5.968  1.00  0.00     0.009 A 
HETATM    4  C   UNL     1      40.969 -15.342   6.458  1.00  0.00     0.001 A 
HETATM    5  C   UNL     1      41.947 -16.006   7.192  1.00  0.00     0.000 A 
HETATM    6  C   UNL     1      43.167 -15.383   7.437  1.00  0.00     0.001 A 
HETATM    7  C   UNL     1      43.414 -14.094   6.952  1.00  0.00     0.009 A 
ENDBRANCH   1   2
BRANCH   1   8
HETATM    8  N   UNL     1      41.678 -11.598   4.608  1.00  0.00    -0.347 N 
HETATM    9  C   UNL     1      42.095 -11.203   3.353  1.00  0.00     0.236 C 
HETATM   10  O   UNL     1      43.280 -11.181   3.015  1.00  0.00    -0.272 OA
HETATM   11  H   UNL     1      40.714 -11.915   4.686  1.00  0.00     0.163 HD
BRANCH   9  12
HETATM   12  C   UNL     1      40.960 -10.742   2.434  1.00  0.00     0.236 C 
BRANCH  12  13
HETATM   13  N   UNL     1      40.729 -11.658   1.344  1.00  0.00    -0.289 N 
HETATM   14  C   UNL     1      41.137 -11.426   0.016  1.00  0.00     0.328 A 
HETATM   15  O   UNL     1      41.593 -10.387  -0.435  1.00  0.00    -0.247 OA
HETATM   16  N   UNL     1      40.940 -12.618  -0.686  1.00  0.00    -0.306 N 
HETATM   17  C   UNL     1      40.502 -13.594   0.203  1.00  0.00     0.063 A 
HETATM   18  H   UNL     1      41.162 -12.744  -1.660  1.00  0.00     0.171 HD
HETATM   19  C   UNL     1      40.378 -13.012   1.467  1.00  0.00     0.066 A 
HETATM   20  C   UNL     1      40.263 -14.929  -0.030  1.00  0.00     0.032 A 
HETATM   21  C   UNL     1      40.007 -13.760   2.563  1.00  0.00     0.032 A 
HETATM   22  C   UNL     1      39.765 -15.124   2.355  1.00  0.00     0.002 A 
HETATM   23  C   UNL     1      39.889 -15.701   1.073  1.00  0.00     0.002 A 
ENDBRANCH  12  13
ENDBRANCH   9  12
ENDBRANCH   1   8
BRANCH   1  24
HETATM   24  C   UNL     1      42.772 -10.914   6.701  1.00  0.00     0.013 C 
HETATM   25  C   UNL     1      41.601 -10.325   7.215  1.00  0.00     0.075 C 
HETATM   26  C   UNL     1      41.638  -9.216   8.049  1.00  0.00     0.038 C 
HETATM   27  C   UNL     1      42.865  -8.705   8.452  1.00  0.00     0.015 C 
HETATM   28  C   UNL     1      44.059  -9.319   8.059  1.00  0.00    -0.025 A 
HETATM   29  C   UNL     1      44.035 -10.443   7.186  1.00  0.00    -0.015 A 
HETATM   30  C   UNL     1      45.281  -8.821   8.544  1.00  0.00     0.012 A 
HETATM   31  C   UNL     1      45.283 -11.034   6.882  1.00  0.00     0.013 A 
HETATM   32  C   UNL     1      46.490 -10.538   7.383  1.00  0.00     0.001 A 
HETATM   33  C   UNL     1      46.489  -9.426   8.209  1.00  0.00     0.001 A 
BRANCH  25  34
HETATM   34  O   UNL     1      40.362 -10.850   6.966  1.00  0.00    -0.360 OA
HETATM   35  H   UNL     1      39.720 -10.125   7.146  1.00  0.00     0.217 HD
ENDBRANCH  25  34
ENDBRANCH   1  24
TORSDOF 6
ENDMDL
MODEL 7
REMARK VINA RESULT:      -8.0      3.138      6.465
REMARK  6 active torsions:
REMARK  status: ('A' for Active; 'I' for Inactive)
REMARK    1  A    between atoms: C_4  and  C_5 
REMARK    2  A    between atoms: C_5  and  N_6 
REMARK    3  A    between atoms: C_5  and  C_20 
REMARK       I    between atoms: N_6  and  C_7 
REMARK    4  A    between atoms: C_7  and  C_8 
REMARK    5  A    between atoms: C_8  and  N_9 
REMARK    6  A    between atoms: C_21  and  O_22 
ROOT
HETATM    1  C   UNL     1      41.898 -12.263   5.123  1.00  0.00     0.154 C 
ENDROOT
BRANCH   1   2
HETATM    2  C   UNL     1      40.721 -11.366   4.725  1.00  0.00    -0.031 A 
HETATM    3  C   UNL     1      40.085 -11.623   3.492  1.00  0.00     0.009 A 
HETATM    4  C   UNL     1      39.005 -10.852   3.056  1.00  0.00     0.001 A 
HETATM    5  C   UNL     1      38.534  -9.809   3.846  1.00  0.00     0.000 A 
HETATM    6  C   UNL     1      39.146  -9.535   5.066  1.00  0.00     0.001 A 
HETATM    7  C   UNL     1      40.233 -10.302   5.500  1.00  0.00     0.009 A 
ENDBRANCH   1   2
BRANCH   1   8
HETATM    8  N   UNL     1      42.486 -12.002   6.423  1.00  0.00    -0.347 N 
HETATM    9  C   UNL     1      43.720 -11.393   6.541  1.00  0.00     0.236 C 
HETATM   10  O   UNL     1      44.381 -11.024   5.570  1.00  0.00    -0.272 OA
HETATM   11  H   UNL     1      41.877 -11.953   7.237  1.00  0.00     0.163 HD
BRANCH   9  12
HETATM   12  C   UNL     1      44.217 -11.265   7.983  1.00  0.00     0.236 C 
BRANCH  12  13
HETATM   13  N   UNL     1      44.275  -9.894   8.427  1.00  0.00    -0.289 N 
HETATM   14  C   UNL     1      45.419  -9.078   8.331  1.00  0.00     0.328 A 
HETATM   15  O   UNL     1      46.542  -9.435   8.014  1.00  0.00    -0.247 OA
HETATM   16  N   UNL     1      45.020  -7.777   8.646  1.00  0.00    -0.306 N 
HETATM   17  C   UNL     1      43.645  -7.766   8.850  1.00  0.00     0.063 A 
HETATM   18  H   UNL     1      45.637  -6.980   8.643  1.00  0.00     0.171 HD
HETATM   19  C   UNL     1      43.171  -9.073   8.705  1.00  0.00     0.066 A 
HETATM   20  C   UNL     1      42.817  -6.696   9.099  1.00  0.00     0.032 A 
HETATM   21  C   UNL     1      41.826  -9.358   8.803  1.00  0.00     0.032 A 
HETATM   22  C   UNL     1      40.960  -8.284   9.050  1.00  0.00     0.002 A 
HETATM   23  C   UNL     1      41.450  -6.969   9.198  1.00  0.00     0.002 A 
ENDBRANCH  12  13
ENDBRANCH   9  12
ENDBRANCH   1   8
BRANCH   1  24
HETATM   24  C   UNL     1      41.611 -13.760   4.944  1.00  0.00     0.013 C 
HETATM   25  C   UNL     1      40.772 -14.398   5.878  1.00  0.00     0.075 C 
HETATM   26  C   UNL     1      40.606 -15.775   5.901  1.00  0.00     0.038 C 
HETATM   27  C   UNL     1      41.228 -16.554   4.934  1.00  0.00     0.015 C 
HETATM   28  C   UNL     1      41.984 -15.962   3.916  1.00  0.00    -0.025 A 
HETATM   29  C   UNL     1      42.179 -14.552   3.895  1.00  0.00    -0.015 A 
HETATM   30  C   UNL     1      42.538 -16.772   2.911  1.00  0.00     0.012 A 
HETATM   31  C   UNL     1      42.912 -14.032   2.802  1.00  0.00     0.013 A 
HETATM   32  C   UNL     1      43.445 -14.847   1.801  1.00  0.00     0.001 A 
HETATM   33  C   UNL     1      43.264 -16.220   1.858  1.00  0.00     0.001 A 
BRANCH  25  34
HETATM   34  O   UNL     1      40.028 -13.686   6.780  1.00  0.00    -0.360 OA
HETATM   35  H   UNL     1      39.322 -13.241   6.256  1.00  0.00     0.217 HD
ENDBRANCH  25  34
ENDBRANCH   1  24
TORSDOF 6
ENDMDL
MODEL 8
REMARK VINA RESULT:      -7.9      2.732      6.249
REMARK  6 active torsions:
REMARK  status: ('A' for Active; 'I' for Inactive)
REMARK    1  A    between atoms: C_4  and  C_5 
REMARK    2  A    between atoms: C_5  and  N_6 
REMARK    3  A    between atoms: C_5  and  C_20 
REMARK       I    between atoms: N_6  and  C_7 
REMARK    4  A    between atoms: C_7  and  C_8 
REMARK    5  A    between atoms: C_8  and  N_9 
REMARK    6  A    between atoms: C_21  and  O_22 
ROOT
HETATM    1  C   UNL     1      41.688 -11.415   6.069  1.00  0.00     0.154 C 
ENDROOT
BRANCH   1   2
HETATM    2  C   UNL     1      41.516 -10.913   4.632  1.00  0.00    -0.031 A 
HETATM    3  C   UNL     1      40.535  -9.927   4.391  1.00  0.00     0.009 A 
HETATM    4  C   UNL     1      40.316  -9.416   3.111  1.00  0.00     0.001 A 
HETATM    5  C   UNL     1      41.077  -9.876   2.041  1.00  0.00     0.000 A 
HETATM    6  C   UNL     1      42.050 -10.849   2.253  1.00  0.00     0.001 A 
HETATM    7  C   UNL     1      42.265 -11.367   3.535  1.00  0.00     0.009 A 
ENDBRANCH   1   2
BRANCH   1   8
HETATM    8  N   UNL     1      41.583 -12.850   6.260  1.00  0.00    -0.347 N 
HETATM    9  C   UNL     1      40.363 -13.493   6.192  1.00  0.00     0.236 C 
HETATM   10  O   UNL     1      39.307 -12.905   5.954  1.00  0.00    -0.272 OA
HETATM   11  H   UNL     1      42.408 -13.426   6.111  1.00  0.00     0.163 HD
BRANCH   9  12
HETATM   12  C   UNL     1      40.431 -14.993   6.490  1.00  0.00     0.236 C 
BRANCH  12  13
HETATM   13  N   UNL     1      41.660 -15.591   6.032  1.00  0.00    -0.289 N 
HETATM   14  C   UNL     1      42.703 -16.008   6.882  1.00  0.00     0.328 A 
HETATM   15  O   UNL     1      42.795 -15.794   8.080  1.00  0.00    -0.247 OA
HETATM   16  N   UNL     1      43.605 -16.732   6.097  1.00  0.00    -0.306 N 
HETATM   17  C   UNL     1      43.093 -16.838   4.809  1.00  0.00     0.063 A 
HETATM   18  H   UNL     1      44.444 -17.162   6.452  1.00  0.00     0.171 HD
HETATM   19  C   UNL     1      41.882 -16.143   4.760  1.00  0.00     0.066 A 
HETATM   20  C   UNL     1      43.600 -17.529   3.733  1.00  0.00     0.032 A 
HETATM   21  C   UNL     1      41.120 -16.120   3.612  1.00  0.00     0.032 A 
HETATM   22  C   UNL     1      41.610 -16.823   2.504  1.00  0.00     0.002 A 
HETATM   23  C   UNL     1      42.837 -17.518   2.563  1.00  0.00     0.002 A 
ENDBRANCH  12  13
ENDBRANCH   9  12
ENDBRANCH   1   8
BRANCH   1  24
HETATM   24  C   UNL     1      42.941 -10.863   6.763  1.00  0.00     0.013 C 
HETATM   25  C   UNL     1      44.108 -11.651   6.764  1.00  0.00     0.075 C 
HETATM   26  C   UNL     1      45.224 -11.317   7.518  1.00  0.00     0.038 C 
HETATM   27  C   UNL     1      45.227 -10.133   8.245  1.00  0.00     0.015 C 
HETATM   28  C   UNL     1      44.135  -9.259   8.192  1.00  0.00    -0.025 A 
HETATM   29  C   UNL     1      42.977  -9.602   7.439  1.00  0.00    -0.015 A 
HETATM   30  C   UNL     1      44.201  -8.035   8.880  1.00  0.00     0.012 A 
HETATM   31  C   UNL     1      41.943  -8.638   7.397  1.00  0.00     0.013 A 
HETATM   32  C   UNL     1      42.026  -7.418   8.074  1.00  0.00     0.001 A 
HETATM   33  C   UNL     1      43.154  -7.119   8.822  1.00  0.00     0.001 A 
BRANCH  25  34
HETATM   34  O   UNL     1      44.226 -12.763   5.974  1.00  0.00    -0.360 OA
HETATM   35  H   UNL     1      45.164 -13.053   6.055  1.00  0.00     0.217 HD
ENDBRANCH  25  34
ENDBRANCH   1  24
TORSDOF 6
ENDMDL
MODEL 9
REMARK VINA RESULT:      -7.9      4.477      7.391
REMARK  6 active torsions:
REMARK  status: ('A' for Active; 'I' for Inactive)
REMARK    1  A    between atoms: C_4  and  C_5 
REMARK    2  A    between atoms: C_5  and  N_6 
REMARK    3  A    between atoms: C_5  and  C_20 
REMARK       I    between atoms: N_6  and  C_7 
REMARK    4  A    between atoms: C_7  and  C_8 
REMARK    5  A    between atoms: C_8  and  N_9 
REMARK    6  A    between atoms: C_21  and  O_22 
ROOT
HETATM    1  C   UNL     1      42.569  -8.892   9.027  1.00  0.00     0.154 C 
ENDROOT
BRANCH   1   2
HETATM    2  C   UNL     1      43.908  -9.417   8.497  1.00  0.00    -0.031 A 
HETATM    3  C   UNL     1      43.908 -10.650   7.811  1.00  0.00     0.009 A 
HETATM    4  C   UNL     1      45.085 -11.197   7.297  1.00  0.00     0.001 A 
HETATM    5  C   UNL     1      46.290 -10.521   7.455  1.00  0.00     0.000 A 
HETATM    6  C   UNL     1      46.317  -9.304   8.130  1.00  0.00     0.001 A 
HETATM    7  C   UNL     1      45.139  -8.758   8.651  1.00  0.00     0.009 A 
ENDBRANCH   1   2
BRANCH   1   8
HETATM    8  N   UNL     1      41.404  -9.703   8.728  1.00  0.00    -0.347 N 
HETATM    9  C   UNL     1      40.460  -9.288   7.810  1.00  0.00     0.236 C 
HETATM   10  O   UNL     1      40.551  -8.231   7.185  1.00  0.00    -0.272 OA
HETATM   11  H   UNL     1      41.438 -10.701   8.924  1.00  0.00     0.163 HD
BRANCH   9  12
HETATM   12  C   UNL     1      39.263 -10.233   7.676  1.00  0.00     0.236 C 
BRANCH  12  13
HETATM   13  N   UNL     1      39.006 -10.606   6.307  1.00  0.00    -0.289 N 
HETATM   14  C   UNL     1      38.252  -9.832   5.404  1.00  0.00     0.328 A 
HETATM   15  O   UNL     1      37.592  -8.840   5.669  1.00  0.00    -0.247 OA
HETATM   16  N   UNL     1      38.419 -10.402   4.139  1.00  0.00    -0.306 N 
HETATM   17  C   UNL     1      39.323 -11.454   4.237  1.00  0.00     0.063 A 
HETATM   18  H   UNL     1      38.000 -10.041   3.297  1.00  0.00     0.171 HD
HETATM   19  C   UNL     1      39.702 -11.581   5.576  1.00  0.00     0.066 A 
HETATM   20  C   UNL     1      39.844 -12.241   3.236  1.00  0.00     0.032 A 
HETATM   21  C   UNL     1      40.636 -12.517   5.966  1.00  0.00     0.032 A 
HETATM   22  C   UNL     1      41.187 -13.327   4.965  1.00  0.00     0.002 A 
HETATM   23  C   UNL     1      40.795 -13.192   3.616  1.00  0.00     0.002 A 
ENDBRANCH  12  13
ENDBRANCH   9  12
ENDBRANCH   1   8
BRANCH   1  24
HETATM   24  C   UNL     1      42.607  -8.518  10.515  1.00  0.00     0.013 C 
HETATM   25  C   UNL     1      42.666  -9.555  11.466  1.00  0.00     0.075 C 
HETATM   26  C   UNL     1      42.519  -9.320  12.825  1.00  0.00     0.038 C 
HETATM   27  C   UNL     1      42.378  -8.015  13.280  1.00  0.00     0.015 C 
HETATM   28  C   UNL     1      42.422  -6.938  12.389  1.00  0.00    -0.025 A 
HETATM   29  C   UNL     1      42.551  -7.168  10.991  1.00  0.00    -0.015 A 
HETATM   30  C   UNL     1      42.350  -5.627  12.891  1.00  0.00     0.012 A 
HETATM   31  C   UNL     1      42.640  -6.021  10.167  1.00  0.00     0.013 A 
HETATM   32  C   UNL     1      42.582  -4.723  10.680  1.00  0.00     0.001 A 
HETATM   33  C   UNL     1      42.429  -4.525  12.043  1.00  0.00     0.001 A 
BRANCH  25  34
HETATM   34  O   UNL     1      42.931 -10.848  11.103  1.00  0.00    -0.360 OA
HETATM   35  H   UNL     1      42.301 -11.058  10.375  1.00  0.00     0.217 HD
ENDBRANCH  25  34
ENDBRANCH   1  24
TORSDOF 6
ENDMDL
MODEL 10
REMARK VINA RESULT:      -7.7     16.600     19.611
REMARK  6 active torsions:
REMARK  status: ('A' for Active; 'I' for Inactive)
REMARK    1  A    between atoms: C_4  and  C_5 
REMARK    2  A    between atoms: C_5  and  N_6 
REMARK    3  A    between atoms: C_5  and  C_20 
REMARK       I    between atoms: N_6  and  C_7 
REMARK    4  A    between atoms: C_7  and  C_8 
REMARK    5  A    between atoms: C_8  and  N_9 
REMARK    6  A    between atoms: C_21  and  O_22 
ROOT
HETATM    1  C   UNL     1      47.307 -30.903  -1.512  1.00  0.00     0.154 C 
ENDROOT
BRANCH   1   2
HETATM    2  C   UNL     1      48.742 -31.099  -2.014  1.00  0.00    -0.031 A 
HETATM    3  C   UNL     1      49.009 -32.226  -2.821  1.00  0.00     0.009 A 
HETATM    4  C   UNL     1      50.289 -32.476  -3.319  1.00  0.00     0.001 A 
HETATM    5  C   UNL     1      51.331 -31.603  -3.024  1.00  0.00     0.000 A 
HETATM    6  C   UNL     1      51.093 -30.486  -2.229  1.00  0.00     0.001 A 
HETATM    7  C   UNL     1      49.812 -30.238  -1.724  1.00  0.00     0.009 A 
ENDBRANCH   1   2
BRANCH   1   8
HETATM    8  N   UNL     1      47.165 -30.539  -0.115  1.00  0.00    -0.347 N 
HETATM    9  C   UNL     1      46.131 -31.038   0.652  1.00  0.00     0.236 C 
HETATM   10  O   UNL     1      45.288 -31.822   0.214  1.00  0.00    -0.272 OA
HETATM   11  H   UNL     1      47.981 -30.200   0.389  1.00  0.00     0.163 HD
BRANCH   9  12
HETATM   12  C   UNL     1      46.094 -30.490   2.081  1.00  0.00     0.236 C 
BRANCH  12  13
HETATM   13  N   UNL     1      47.366 -29.954   2.499  1.00  0.00    -0.289 N 
HETATM   14  C   UNL     1      47.712 -28.590   2.429  1.00  0.00     0.328 A 
HETATM   15  O   UNL     1      47.075 -27.705   1.880  1.00  0.00    -0.247 OA
HETATM   16  N   UNL     1      48.914 -28.437   3.125  1.00  0.00    -0.306 N 
HETATM   17  C   UNL     1      49.263 -29.659   3.689  1.00  0.00     0.063 A 
HETATM   18  H   UNL     1      49.387 -27.556   3.248  1.00  0.00     0.171 HD
HETATM   19  C   UNL     1      48.304 -30.604   3.316  1.00  0.00     0.066 A 
HETATM   20  C   UNL     1      50.318 -29.955   4.521  1.00  0.00     0.032 A 
HETATM   21  C   UNL     1      48.367 -31.902   3.775  1.00  0.00     0.032 A 
HETATM   22  C   UNL     1      49.428 -32.228   4.630  1.00  0.00     0.002 A 
HETATM   23  C   UNL     1      50.393 -31.266   4.997  1.00  0.00     0.002 A 
ENDBRANCH  12  13
ENDBRANCH   9  12
ENDBRANCH   1   8
BRANCH   1  24
HETATM   24  C   UNL     1      46.470 -29.976  -2.405  1.00  0.00     0.013 C 
HETATM   25  C   UNL     1      46.471 -28.596  -2.126  1.00  0.00     0.075 C 
HETATM   26  C   UNL     1      45.607 -27.714  -2.760  1.00  0.00     0.038 C 
HETATM   27  C   UNL     1      44.759 -28.185  -3.753  1.00  0.00     0.015 C 
HETATM   28  C   UNL     1      44.795 -29.528  -4.148  1.00  0.00    -0.025 A 
HETATM   29  C   UNL     1      45.661 -30.445  -3.490  1.00  0.00    -0.015 A 
HETATM   30  C   UNL     1      43.976 -29.955  -5.207  1.00  0.00     0.012 A 
HETATM   31  C   UNL     1      45.672 -31.770  -3.986  1.00  0.00     0.013 A 
HETATM   32  C   UNL     1      44.864 -32.179  -5.050  1.00  0.00     0.001 A 
HETATM   33  C   UNL     1      44.009 -31.273  -5.656  1.00  0.00     0.001 A 
BRANCH  25  34
HETATM   34  O   UNL     1      47.366 -28.040  -1.252  1.00  0.00    -0.360 OA
HETATM   35  H   UNL     1      47.071 -28.314  -0.353  1.00  0.00     0.217 HD
ENDBRANCH  25  34
ENDBRANCH   1  24
TORSDOF 6
ENDMDL
