MODEL 1
REMARK VINA RESULT:      -7.5      0.000      0.000
REMARK  6 active torsions:
REMARK  status: ('A' for Active; 'I' for Inactive)
REMARK    1  A    between atoms: C_2  and  C_3 
REMARK    2  A    between atoms: C_3  and  N_4 
REMARK    3  A    between atoms: C_3  and  C_17 
REMARK    4  A    between atoms: N_4  and  C_5 
REMARK    5  A    between atoms: C_5  and  C_6 
REMARK       I    between atoms: C_6  and  N_7 
REMARK    6  A    between atoms: N_7  and  C_8 
ROOT
HETATM    1  N   UNL     1      44.274 -16.994   5.573  1.00  0.00     0.101 N 
HETATM    2  H   UNL     1      44.254 -16.030   5.239  1.00  0.00     0.317 HD
ENDROOT
BRANCH   1   3
HETATM    3  C   UNL     1      43.460 -17.832   4.669  1.00  0.00     0.256 C 
BRANCH   3   4
HETATM    4  C   UNL     1      44.331 -18.969   4.089  1.00  0.00     0.036 C 
HETATM    5  C   UNL     1      44.260 -20.254   4.907  1.00  0.00     0.007 C 
ENDBRANCH   3   4
BRANCH   3   6
HETATM    6  C   UNL     1      42.828 -17.030   3.540  1.00  0.00     0.013 A 
HETATM    7  C   UNL     1      41.545 -16.486   3.705  1.00  0.00     0.127 A 
HETATM    8  F   UNL     1      40.876 -16.690   4.848  1.00  0.00    -0.205 F 
HETATM    9  C   UNL     1      40.941 -15.725   2.711  1.00  0.00     0.085 A 
HETATM   10  C   UNL     1      41.627 -15.500   1.528  1.00  0.00     0.119 A 
HETATM   11  F   UNL     1      41.058 -14.763   0.564  1.00  0.00    -0.206 F 
HETATM   12  C   UNL     1      42.897 -16.027   1.324  1.00  0.00     0.043 A 
HETATM   13  C   UNL     1      43.499 -16.793   2.325  1.00  0.00     0.015 A 
ENDBRANCH   3   6
ENDBRANCH   1   3
BRANCH   1  14
HETATM   14  C   UNL     1      43.751 -17.018   6.959  1.00  0.00     0.372 C 
BRANCH  14  15
HETATM   15  C   UNL     1      43.343 -15.606   7.399  1.00  0.00     0.250 C 
HETATM   16  N   UNL     1      43.313 -14.716   6.345  1.00  0.00    -0.322 N 
HETATM   17  H   UNL     1      43.627 -15.093   5.456  1.00  0.00     0.169 HD
HETATM   18  O   UNL     1      43.138 -15.354   8.580  1.00  0.00    -0.271 OA
BRANCH  16  19
HETATM   19  C   UNL     1      42.932 -13.389   6.376  1.00  0.00     0.085 A 
HETATM   20  C   UNL     1      43.646 -12.164   6.538  1.00  0.00     0.079 A 
HETATM   21  C   UNL     1      45.090 -11.914   6.777  1.00  0.00     0.075 C 
HETATM   22  N   UNL     1      42.818 -11.108   6.507  1.00  0.00    -0.177 NA
HETATM   23  N   UNL     1      41.607 -11.643   6.331  1.00  0.00    -0.280 N 
HETATM   24  H   UNL     1      40.815 -11.013   6.270  1.00  0.00     0.189 HD
HETATM   25  C   UNL     1      41.609 -13.006   6.261  1.00  0.00     0.052 A 
HETATM   26  C   UNL     1      40.359 -13.777   6.067  1.00  0.00     0.072 C 
ENDBRANCH  16  19
ENDBRANCH  14  15
ENDBRANCH   1  14
TORSDOF 6
ENDMDL
MODEL 2
REMARK VINA RESULT:      -7.2      4.561      6.881
REMARK  6 active torsions:
REMARK  status: ('A' for Active; 'I' for Inactive)
REMARK    1  A    between atoms: C_2  and  C_3 
REMARK    2  A    between atoms: C_3  and  N_4 
REMARK    3  A    between atoms: C_3  and  C_17 
REMARK    4  A    between atoms: N_4  and  C_5 
REMARK    5  A    between atoms: C_5  and  C_6 
REMARK       I    between atoms: C_6  and  N_7 
REMARK    6  A    between atoms: N_7  and  C_8 
ROOT
HETATM    1  N   UNL     1      39.866 -15.637   3.114  1.00  0.00     0.101 N 
HETATM    2  H   UNL     1      38.923 -15.983   3.296  1.00  0.00     0.317 HD
ENDROOT
BRANCH   1   3
HETATM    3  C   UNL     1      40.614 -15.592   4.386  1.00  0.00     0.256 C 
BRANCH   3   4
HETATM    4  C   UNL     1      41.049 -14.140   4.684  1.00  0.00     0.036 C 
HETATM    5  C   UNL     1      40.476 -13.598   5.988  1.00  0.00     0.007 C 
ENDBRANCH   3   4
BRANCH   3   6
HETATM    6  C   UNL     1      41.827 -16.512   4.384  1.00  0.00     0.013 A 
HETATM    7  C   UNL     1      42.360 -16.965   5.600  1.00  0.00     0.127 A 
HETATM    8  F   UNL     1      41.810 -16.572   6.758  1.00  0.00    -0.205 F 
HETATM    9  C   UNL     1      43.450 -17.827   5.645  1.00  0.00     0.085 A 
HETATM   10  C   UNL     1      44.022 -18.247   4.454  1.00  0.00     0.119 A 
HETATM   11  F   UNL     1      45.068 -19.082   4.482  1.00  0.00    -0.206 F 
HETATM   12  C   UNL     1      43.526 -17.814   3.229  1.00  0.00     0.043 A 
HETATM   13  C   UNL     1      42.432 -16.947   3.190  1.00  0.00     0.015 A 
ENDBRANCH   3   6
ENDBRANCH   1   3
BRANCH   1  14
HETATM   14  C   UNL     1      39.759 -14.296   2.494  1.00  0.00     0.372 C 
BRANCH  14  15
HETATM   15  C   UNL     1      40.315 -14.324   1.064  1.00  0.00     0.250 C 
HETATM   16  N   UNL     1      39.502 -13.655   0.172  1.00  0.00    -0.322 N 
HETATM   17  H   UNL     1      38.633 -13.306   0.563  1.00  0.00     0.169 HD
HETATM   18  O   UNL     1      41.342 -14.939   0.805  1.00  0.00    -0.271 OA
BRANCH  16  19
HETATM   19  C   UNL     1      39.731 -13.436  -1.173  1.00  0.00     0.085 A 
HETATM   20  C   UNL     1      39.395 -14.156  -2.358  1.00  0.00     0.079 A 
HETATM   21  C   UNL     1      38.692 -15.453  -2.531  1.00  0.00     0.075 C 
HETATM   22  N   UNL     1      39.854 -13.534  -3.454  1.00  0.00    -0.177 NA
HETATM   23  N   UNL     1      40.471 -12.447  -2.983  1.00  0.00    -0.280 N 
HETATM   24  H   UNL     1      40.894 -11.814  -3.654  1.00  0.00     0.189 HD
HETATM   25  C   UNL     1      40.443 -12.341  -1.623  1.00  0.00     0.052 A 
HETATM   26  C   UNL     1      41.074 -11.201  -0.919  1.00  0.00     0.072 C 
ENDBRANCH  16  19
ENDBRANCH  14  15
ENDBRANCH   1  14
TORSDOF 6
ENDMDL
MODEL 3
REMARK VINA RESULT:      -7.1      5.023      7.084
REMARK  6 active torsions:
REMARK  status: ('A' for Active; 'I' for Inactive)
REMARK    1  A    between atoms: C_2  and  C_3 
REMARK    2  A    between atoms: C_3  and  N_4 
REMARK    3  A    between atoms: C_3  and  C_17 
REMARK    4  A    between atoms: N_4  and  C_5 
REMARK    5  A    between atoms: C_5  and  C_6 
REMARK       I    between atoms: C_6  and  N_7 
REMARK    6  A    between atoms: N_7  and  C_8 
ROOT
HETATM    1  N   UNL     1      41.459 -15.737   1.451  1.00  0.00     0.101 N 
HETATM    2  H   UNL     1      41.204 -16.726   1.446  1.00  0.00     0.317 HD
ENDROOT
BRANCH   1   3
HETATM    3  C   UNL     1      42.389 -15.487   2.570  1.00  0.00     0.256 C 
BRANCH   3   4
HETATM    4  C   UNL     1      43.485 -14.492   2.124  1.00  0.00     0.036 C 
HETATM    5  C   UNL     1      43.399 -13.148   2.838  1.00  0.00     0.007 C 
ENDBRANCH   3   4
BRANCH   3   6
HETATM    6  C   UNL     1      43.027 -16.765   3.097  1.00  0.00     0.013 A 
HETATM    7  C   UNL     1      43.587 -16.785   4.383  1.00  0.00     0.127 A 
HETATM    8  F   UNL     1      43.573 -15.675   5.135  1.00  0.00    -0.205 F 
HETATM    9  C   UNL     1      44.155 -17.937   4.915  1.00  0.00     0.085 A 
HETATM   10  C   UNL     1      44.167 -19.094   4.150  1.00  0.00     0.119 A 
HETATM   11  F   UNL     1      44.706 -20.212   4.653  1.00  0.00    -0.206 F 
HETATM   12  C   UNL     1      43.628 -19.111   2.869  1.00  0.00     0.043 A 
HETATM   13  C   UNL     1      43.060 -17.950   2.339  1.00  0.00     0.015 A 
ENDBRANCH   3   6
ENDBRANCH   1   3
BRANCH   1  14
HETATM   14  C   UNL     1      40.219 -14.936   1.579  1.00  0.00     0.372 C 
BRANCH  14  15
HETATM   15  C   UNL     1      40.172 -13.850   0.497  1.00  0.00     0.250 C 
HETATM   16  N   UNL     1      39.051 -13.952  -0.301  1.00  0.00    -0.322 N 
HETATM   17  H   UNL     1      38.462 -14.757  -0.110  1.00  0.00     0.169 HD
HETATM   18  O   UNL     1      41.090 -13.048   0.376  1.00  0.00    -0.271 OA
BRANCH  16  19
HETATM   19  C   UNL     1      38.667 -13.108  -1.323  1.00  0.00     0.085 A 
HETATM   20  C   UNL     1      38.437 -11.702  -1.404  1.00  0.00     0.079 A 
HETATM   21  C   UNL     1      38.501 -10.653  -0.356  1.00  0.00     0.075 C 
HETATM   22  N   UNL     1      38.060 -11.339  -2.640  1.00  0.00    -0.177 NA
HETATM   23  N   UNL     1      38.046 -12.482  -3.331  1.00  0.00    -0.280 N 
HETATM   24  H   UNL     1      37.792 -12.440  -4.312  1.00  0.00     0.189 HD
HETATM   25  C   UNL     1      38.386 -13.579  -2.592  1.00  0.00     0.052 A 
HETATM   26  C   UNL     1      38.429 -14.934  -3.187  1.00  0.00     0.072 C 
ENDBRANCH  16  19
ENDBRANCH  14  15
ENDBRANCH   1  14
TORSDOF 6
ENDMDL
MODEL 4
REMARK VINA RESULT:      -7.1      4.117      6.265
REMARK  6 active torsions:
REMARK  status: ('A' for Active; 'I' for Inactive)
REMARK    1  A    between atoms: C_2  and  C_3 
REMARK    2  A    between atoms: C_3  and  N_4 
REMARK    3  A    between atoms: C_3  and  C_17 
REMARK    4  A    between atoms: N_4  and  C_5 
REMARK    5  A    between atoms: C_5  and  C_6 
REMARK       I    between atoms: C_6  and  N_7 
REMARK    6  A    between atoms: N_7  and  C_8 
ROOT
HETATM    1  N   UNL     1      42.147 -16.964   2.517  1.00  0.00     0.101 N 
HETATM    2  H   UNL     1      41.430 -16.689   3.189  1.00  0.00     0.317 HD
ENDROOT
BRANCH   1   3
HETATM    3  C   UNL     1      43.438 -17.102   3.223  1.00  0.00     0.256 C 
BRANCH   3   4
HETATM    4  C   UNL     1      43.954 -18.552   3.085  1.00  0.00     0.036 C 
HETATM    5  C   UNL     1      43.142 -19.386   2.101  1.00  0.00     0.007 C 
ENDBRANCH   3   4
BRANCH   3   6
HETATM    6  C   UNL     1      43.344 -16.717   4.692  1.00  0.00     0.013 A 
HETATM    7  C   UNL     1      43.233 -15.366   5.053  1.00  0.00     0.127 A 
HETATM    8  F   UNL     1      43.226 -14.420   4.103  1.00  0.00    -0.205 F 
HETATM    9  C   UNL     1      43.118 -14.971   6.381  1.00  0.00     0.085 A 
HETATM   10  C   UNL     1      43.115 -15.941   7.372  1.00  0.00     0.119 A 
HETATM   11  F   UNL     1      42.999 -15.575   8.654  1.00  0.00    -0.206 F 
HETATM   12  C   UNL     1      43.230 -17.290   7.054  1.00  0.00     0.043 A 
HETATM   13  C   UNL     1      43.348 -17.681   5.718  1.00  0.00     0.015 A 
ENDBRANCH   3   6
ENDBRANCH   1   3
BRANCH   1  14
HETATM   14  C   UNL     1      42.211 -15.933   1.455  1.00  0.00     0.372 C 
BRANCH  14  15
HETATM   15  C   UNL     1      40.814 -15.357   1.186  1.00  0.00     0.250 C 
HETATM   16  N   UNL     1      40.813 -14.445   0.151  1.00  0.00    -0.322 N 
HETATM   17  H   UNL     1      41.728 -14.233  -0.234  1.00  0.00     0.169 HD
HETATM   18  O   UNL     1      39.862 -15.673   1.889  1.00  0.00    -0.271 OA
BRANCH  16  19
HETATM   19  C   UNL     1      39.726 -13.788  -0.389  1.00  0.00     0.085 A 
HETATM   20  C   UNL     1      38.928 -13.997  -1.553  1.00  0.00     0.079 A 
HETATM   21  C   UNL     1      39.041 -15.014  -2.629  1.00  0.00     0.075 C 
HETATM   22  N   UNL     1      37.966 -13.066  -1.661  1.00  0.00    -0.177 NA
HETATM   23  N   UNL     1      38.147 -12.281  -0.595  1.00  0.00    -0.280 N 
HETATM   24  H   UNL     1      37.512 -11.499  -0.470  1.00  0.00     0.189 HD
HETATM   25  C   UNL     1      39.195 -12.653   0.196  1.00  0.00     0.052 A 
HETATM   26  C   UNL     1      39.547 -11.903   1.423  1.00  0.00     0.072 C 
ENDBRANCH  16  19
ENDBRANCH  14  15
ENDBRANCH   1  14
TORSDOF 6
ENDMDL
MODEL 5
REMARK VINA RESULT:      -7.1      2.592      4.159
REMARK  6 active torsions:
REMARK  status: ('A' for Active; 'I' for Inactive)
REMARK    1  A    between atoms: C_2  and  C_3 
REMARK    2  A    between atoms: C_3  and  N_4 
REMARK    3  A    between atoms: C_3  and  C_17 
REMARK    4  A    between atoms: N_4  and  C_5 
REMARK    5  A    between atoms: C_5  and  C_6 
REMARK       I    between atoms: C_6  and  N_7 
REMARK    6  A    between atoms: N_7  and  C_8 
ROOT
HETATM    1  N   UNL     1      43.366 -15.215   3.342  1.00  0.00     0.101 N 
HETATM    2  H   UNL     1      44.318 -15.303   3.700  1.00  0.00     0.317 HD
ENDROOT
BRANCH   1   3
HETATM    3  C   UNL     1      42.997 -16.468   2.652  1.00  0.00     0.256 C 
BRANCH   3   4
HETATM    4  C   UNL     1      41.483 -16.465   2.343  1.00  0.00     0.036 C 
HETATM    5  C   UNL     1      40.626 -16.091   3.547  1.00  0.00     0.007 C 
ENDBRANCH   3   4
BRANCH   3   6
HETATM    6  C   UNL     1      43.364 -17.708   3.456  1.00  0.00     0.013 A 
HETATM    7  C   UNL     1      43.532 -18.937   2.801  1.00  0.00     0.127 A 
HETATM    8  F   UNL     1      43.354 -19.018   1.475  1.00  0.00    -0.205 F 
HETATM    9  C   UNL     1      43.894 -20.089   3.491  1.00  0.00     0.085 A 
HETATM   10  C   UNL     1      44.091 -20.016   4.862  1.00  0.00     0.119 A 
HETATM   11  F   UNL     1      44.444 -21.116   5.537  1.00  0.00    -0.206 F 
HETATM   12  C   UNL     1      43.926 -18.817   5.546  1.00  0.00     0.043 A 
HETATM   13  C   UNL     1      43.561 -17.664   4.848  1.00  0.00     0.015 A 
ENDBRANCH   3   6
ENDBRANCH   1   3
BRANCH   1  14
HETATM   14  C   UNL     1      43.317 -14.051   2.427  1.00  0.00     0.372 C 
BRANCH  14  15
HETATM   15  C   UNL     1      43.188 -12.749   3.228  1.00  0.00     0.250 C 
HETATM   16  N   UNL     1      43.059 -12.977   4.583  1.00  0.00    -0.322 N 
HETATM   17  H   UNL     1      42.998 -13.955   4.849  1.00  0.00     0.169 HD
HETATM   18  O   UNL     1      43.151 -11.665   2.658  1.00  0.00    -0.271 OA
BRANCH  16  19
HETATM   19  C   UNL     1      42.982 -12.035   5.590  1.00  0.00     0.085 A 
HETATM   20  C   UNL     1      43.959 -11.318   6.343  1.00  0.00     0.079 A 
HETATM   21  C   UNL     1      45.442 -11.386   6.311  1.00  0.00     0.075 C 
HETATM   22  N   UNL     1      43.384 -10.501   7.239  1.00  0.00    -0.177 NA
HETATM   23  N   UNL     1      42.073 -10.693   7.066  1.00  0.00    -0.280 N 
HETATM   24  H   UNL     1      41.435 -10.159   7.646  1.00  0.00     0.189 HD
HETATM   25  C   UNL     1      41.770 -11.611   6.102  1.00  0.00     0.052 A 
HETATM   26  C   UNL     1      40.369 -11.955   5.768  1.00  0.00     0.072 C 
ENDBRANCH  16  19
ENDBRANCH  14  15
ENDBRANCH   1  14
TORSDOF 6
ENDMDL
MODEL 6
REMARK VINA RESULT:      -7.0      3.827      5.982
REMARK  6 active torsions:
REMARK  status: ('A' for Active; 'I' for Inactive)
REMARK    1  A    between atoms: C_2  and  C_3 
REMARK    2  A    between atoms: C_3  and  N_4 
REMARK    3  A    between atoms: C_3  and  C_17 
REMARK    4  A    between atoms: N_4  and  C_5 
REMARK    5  A    between atoms: C_5  and  C_6 
REMARK       I    between atoms: C_6  and  N_7 
REMARK    6  A    between atoms: N_7  and  C_8 
ROOT
HETATM    1  N   UNL     1      42.966 -13.962   4.280  1.00  0.00     0.101 N 
HETATM    2  H   UNL     1      43.861 -14.294   4.640  1.00  0.00     0.317 HD
ENDROOT
BRANCH   1   3
HETATM    3  C   UNL     1      42.088 -15.124   4.032  1.00  0.00     0.256 C 
BRANCH   3   4
HETATM    4  C   UNL     1      40.837 -15.034   4.934  1.00  0.00     0.036 C 
HETATM    5  C   UNL     1      40.910 -13.897   5.947  1.00  0.00     0.007 C 
ENDBRANCH   3   4
BRANCH   3   6
HETATM    6  C   UNL     1      42.799 -16.451   4.255  1.00  0.00     0.013 A 
HETATM    7  C   UNL     1      43.291 -17.171   3.156  1.00  0.00     0.127 A 
HETATM    8  F   UNL     1      43.119 -16.695   1.914  1.00  0.00    -0.205 F 
HETATM    9  C   UNL     1      43.970 -18.374   3.314  1.00  0.00     0.085 A 
HETATM   10  C   UNL     1      44.163 -18.872   4.594  1.00  0.00     0.119 A 
HETATM   11  F   UNL     1      44.820 -20.026   4.761  1.00  0.00    -0.206 F 
HETATM   12  C   UNL     1      43.684 -18.190   5.708  1.00  0.00     0.043 A 
HETATM   13  C   UNL     1      43.001 -16.984   5.542  1.00  0.00     0.015 A 
ENDBRANCH   3   6
ENDBRANCH   1   3
BRANCH   1  14
HETATM   14  C   UNL     1      43.218 -13.191   3.041  1.00  0.00     0.372 C 
BRANCH  14  15
HETATM   15  C   UNL     1      41.917 -13.023   2.244  1.00  0.00     0.250 C 
HETATM   16  N   UNL     1      41.916 -13.763   1.080  1.00  0.00    -0.322 N 
HETATM   17  H   UNL     1      42.784 -14.251   0.881  1.00  0.00     0.169 HD
HETATM   18  O   UNL     1      41.044 -12.254   2.628  1.00  0.00    -0.271 OA
BRANCH  16  19
HETATM   19  C   UNL     1      40.889 -13.890   0.166  1.00  0.00     0.085 A 
HETATM   20  C   UNL     1      40.477 -13.121  -0.963  1.00  0.00     0.079 A 
HETATM   21  C   UNL     1      41.022 -11.857  -1.520  1.00  0.00     0.075 C 
HETATM   22  N   UNL     1      39.391 -13.651  -1.546  1.00  0.00    -0.177 NA
HETATM   23  N   UNL     1      39.113 -14.729  -0.807  1.00  0.00    -0.280 N 
HETATM   24  H   UNL     1      38.317 -15.297  -1.078  1.00  0.00     0.189 HD
HETATM   25  C   UNL     1      39.967 -14.916   0.241  1.00  0.00     0.052 A 
HETATM   26  C   UNL     1      39.818 -16.060   1.170  1.00  0.00     0.072 C 
ENDBRANCH  16  19
ENDBRANCH  14  15
ENDBRANCH   1  14
TORSDOF 6
ENDMDL
MODEL 7
REMARK VINA RESULT:      -6.9      2.527      4.017
REMARK  6 active torsions:
REMARK  status: ('A' for Active; 'I' for Inactive)
REMARK    1  A    between atoms: C_2  and  C_3 
REMARK    2  A    between atoms: C_3  and  N_4 
REMARK    3  A    between atoms: C_3  and  C_17 
REMARK    4  A    between atoms: N_4  and  C_5 
REMARK    5  A    between atoms: C_5  and  C_6 
REMARK       I    between atoms: C_6  and  N_7 
REMARK    6  A    between atoms: N_7  and  C_8 
ROOT
HETATM    1  N   UNL     1      41.396 -16.016   3.636  1.00  0.00     0.101 N 
HETATM    2  H   UNL     1      40.891 -16.839   3.305  1.00  0.00     0.317 HD
ENDROOT
BRANCH   1   3
HETATM    3  C   UNL     1      42.841 -16.212   3.398  1.00  0.00     0.256 C 
BRANCH   3   4
HETATM    4  C   UNL     1      43.254 -15.499   2.091  1.00  0.00     0.036 C 
HETATM    5  C   UNL     1      42.073 -14.904   1.334  1.00  0.00     0.007 C 
ENDBRANCH   3   4
BRANCH   3   6
HETATM    6  C   UNL     1      43.229 -17.683   3.336  1.00  0.00     0.013 A 
HETATM    7  C   UNL     1      43.860 -18.284   4.436  1.00  0.00     0.127 A 
HETATM    8  F   UNL     1      44.133 -17.556   5.528  1.00  0.00    -0.205 F 
HETATM    9  C   UNL     1      44.207 -19.630   4.434  1.00  0.00     0.085 A 
HETATM   10  C   UNL     1      43.922 -20.395   3.313  1.00  0.00     0.119 A 
HETATM   11  F   UNL     1      44.246 -21.694   3.300  1.00  0.00    -0.206 F 
HETATM   12  C   UNL     1      43.304 -19.833   2.201  1.00  0.00     0.043 A 
HETATM   13  C   UNL     1      42.959 -18.480   2.208  1.00  0.00     0.015 A 
ENDBRANCH   3   6
ENDBRANCH   1   3
BRANCH   1  14
HETATM   14  C   UNL     1      41.099 -15.834   5.076  1.00  0.00     0.372 C 
BRANCH  14  15
HETATM   15  C   UNL     1      41.585 -14.459   5.551  1.00  0.00     0.250 C 
HETATM   16  N   UNL     1      41.144 -13.436   4.736  1.00  0.00    -0.322 N 
HETATM   17  H   UNL     1      40.630 -13.735   3.913  1.00  0.00     0.169 HD
HETATM   18  O   UNL     1      42.327 -14.359   6.520  1.00  0.00    -0.271 OA
BRANCH  16  19
HETATM   19  C   UNL     1      41.345 -12.081   4.905  1.00  0.00     0.085 A 
HETATM   20  C   UNL     1      40.655 -11.067   5.635  1.00  0.00     0.079 A 
HETATM   21  C   UNL     1      39.419 -11.142   6.454  1.00  0.00     0.075 C 
HETATM   22  N   UNL     1      41.240  -9.869   5.479  1.00  0.00    -0.177 NA
HETATM   23  N   UNL     1      42.274 -10.109   4.669  1.00  0.00    -0.280 N 
HETATM   24  H   UNL     1      42.871  -9.328   4.419  1.00  0.00     0.189 HD
HETATM   25  C   UNL     1      42.381 -11.413   4.279  1.00  0.00     0.052 A 
HETATM   26  C   UNL     1      43.467 -11.869   3.381  1.00  0.00     0.072 C 
ENDBRANCH  16  19
ENDBRANCH  14  15
ENDBRANCH   1  14
TORSDOF 6
ENDMDL
MODEL 8
REMARK VINA RESULT:      -6.8      3.690      5.472
REMARK  6 active torsions:
REMARK  status: ('A' for Active; 'I' for Inactive)
REMARK    1  A    between atoms: C_2  and  C_3 
REMARK    2  A    between atoms: C_3  and  N_4 
REMARK    3  A    between atoms: C_3  and  C_17 
REMARK    4  A    between atoms: N_4  and  C_5 
REMARK    5  A    between atoms: C_5  and  C_6 
REMARK       I    between atoms: C_6  and  N_7 
REMARK    6  A    between atoms: N_7  and  C_8 
ROOT
HETATM    1  N   UNL     1      40.886 -14.813   5.075  1.00  0.00     0.101 N 
HETATM    2  H   UNL     1      40.263 -15.018   5.858  1.00  0.00     0.317 HD
ENDROOT
BRANCH   1   3
HETATM    3  C   UNL     1      42.266 -15.180   5.453  1.00  0.00     0.256 C 
BRANCH   3   4
HETATM    4  C   UNL     1      43.184 -13.941   5.340  1.00  0.00     0.036 C 
HETATM    5  C   UNL     1      43.880 -13.591   6.650  1.00  0.00     0.007 C 
ENDBRANCH   3   4
BRANCH   3   6
HETATM    6  C   UNL     1      42.820 -16.319   4.609  1.00  0.00     0.013 A 
HETATM    7  C   UNL     1      43.834 -17.139   5.126  1.00  0.00     0.127 A 
HETATM    8  F   UNL     1      44.322 -16.906   6.353  1.00  0.00    -0.205 F 
HETATM    9  C   UNL     1      44.351 -18.208   4.401  1.00  0.00     0.085 A 
HETATM   10  C   UNL     1      43.848 -18.465   3.135  1.00  0.00     0.119 A 
HETATM   11  F   UNL     1      44.332 -19.494   2.429  1.00  0.00    -0.206 F 
HETATM   12  C   UNL     1      42.848 -17.670   2.586  1.00  0.00     0.043 A 
HETATM   13  C   UNL     1      42.334 -16.597   3.318  1.00  0.00     0.015 A 
ENDBRANCH   3   6
ENDBRANCH   1   3
BRANCH   1  14
HETATM   14  C   UNL     1      40.771 -13.372   4.753  1.00  0.00     0.372 C 
BRANCH  14  15
HETATM   15  C   UNL     1      40.104 -13.184   3.384  1.00  0.00     0.250 C 
HETATM   16  N   UNL     1      40.973 -13.423   2.339  1.00  0.00    -0.322 N 
HETATM   17  H   UNL     1      41.931 -13.617   2.614  1.00  0.00     0.169 HD
HETATM   18  O   UNL     1      38.942 -12.805   3.302  1.00  0.00    -0.271 OA
BRANCH  16  19
HETATM   19  C   UNL     1      40.688 -13.403   0.988  1.00  0.00     0.085 A 
HETATM   20  C   UNL     1      40.780 -12.399  -0.022  1.00  0.00     0.079 A 
HETATM   21  C   UNL     1      41.193 -10.976   0.067  1.00  0.00     0.075 C 
HETATM   22  N   UNL     1      40.370 -12.865  -1.212  1.00  0.00    -0.177 NA
HETATM   23  N   UNL     1      40.022 -14.132  -0.969  1.00  0.00    -0.280 N 
HETATM   24  H   UNL     1      39.683 -14.687  -1.747  1.00  0.00     0.189 HD
HETATM   25  C   UNL     1      40.176 -14.508   0.334  1.00  0.00     0.052 A 
HETATM   26  C   UNL     1      39.844 -15.876   0.793  1.00  0.00     0.072 C 
ENDBRANCH  16  19
ENDBRANCH  14  15
ENDBRANCH   1  14
TORSDOF 6
ENDMDL
MODEL 9
REMARK VINA RESULT:      -6.8      2.576      4.080
REMARK  6 active torsions:
REMARK  status: ('A' for Active; 'I' for Inactive)
REMARK    1  A    between atoms: C_2  and  C_3 
REMARK    2  A    between atoms: C_3  and  N_4 
REMARK    3  A    between atoms: C_3  and  C_17 
REMARK    4  A    between atoms: N_4  and  C_5 
REMARK    5  A    between atoms: C_5  and  C_6 
REMARK       I    between atoms: C_6  and  N_7 
REMARK    6  A    between atoms: N_7  and  C_8 
ROOT
HETATM    1  N   UNL     1      43.222 -14.492   5.271  1.00  0.00     0.101 N 
HETATM    2  H   UNL     1      43.148 -13.750   4.573  1.00  0.00     0.317 HD
ENDROOT
BRANCH   1   3
HETATM    3  C   UNL     1      42.200 -15.520   4.988  1.00  0.00     0.256 C 
BRANCH   3   4
HETATM    4  C   UNL     1      41.527 -15.962   6.306  1.00  0.00     0.036 C 
HETATM    5  C   UNL     1      40.073 -16.382   6.125  1.00  0.00     0.007 C 
ENDBRANCH   3   4
BRANCH   3   6
HETATM    6  C   UNL     1      42.773 -16.729   4.261  1.00  0.00     0.013 A 
HETATM    7  C   UNL     1      42.294 -17.067   2.987  1.00  0.00     0.127 A 
HETATM    8  F   UNL     1      41.323 -16.335   2.422  1.00  0.00    -0.205 F 
HETATM    9  C   UNL     1      42.807 -18.147   2.276  1.00  0.00     0.085 A 
HETATM   10  C   UNL     1      43.817 -18.906   2.846  1.00  0.00     0.119 A 
HETATM   11  F   UNL     1      44.324 -19.944   2.170  1.00  0.00    -0.206 F 
HETATM   12  C   UNL     1      44.313 -18.605   4.110  1.00  0.00     0.043 A 
HETATM   13  C   UNL     1      43.793 -17.522   4.820  1.00  0.00     0.015 A 
ENDBRANCH   3   6
ENDBRANCH   1   3
BRANCH   1  14
HETATM   14  C   UNL     1      43.037 -13.890   6.612  1.00  0.00     0.372 C 
BRANCH  14  15
HETATM   15  C   UNL     1      43.263 -12.373   6.551  1.00  0.00     0.250 C 
HETATM   16  N   UNL     1      43.667 -11.854   7.764  1.00  0.00    -0.322 N 
HETATM   17  H   UNL     1      43.691 -12.522   8.529  1.00  0.00     0.169 HD
HETATM   18  O   UNL     1      43.033 -11.748   5.523  1.00  0.00    -0.271 OA
BRANCH  16  19
HETATM   19  C   UNL     1      44.013 -10.548   8.046  1.00  0.00     0.085 A 
HETATM   20  C   UNL     1      43.273  -9.403   8.468  1.00  0.00     0.079 A 
HETATM   21  C   UNL     1      41.818  -9.232   8.712  1.00  0.00     0.075 C 
HETATM   22  N   UNL     1      44.067  -8.330   8.603  1.00  0.00    -0.177 NA
HETATM   23  N   UNL     1      45.283  -8.775   8.274  1.00  0.00    -0.280 N 
HETATM   24  H   UNL     1      46.055  -8.119   8.314  1.00  0.00     0.189 HD
HETATM   25  C   UNL     1      45.311 -10.092   7.916  1.00  0.00     0.052 A 
HETATM   26  C   UNL     1      46.571 -10.763   7.521  1.00  0.00     0.072 C 
ENDBRANCH  16  19
ENDBRANCH  14  15
ENDBRANCH   1  14
TORSDOF 6
ENDMDL
MODEL 10
REMARK VINA RESULT:      -6.8      2.576      4.467
REMARK  6 active torsions:
REMARK  status: ('A' for Active; 'I' for Inactive)
REMARK    1  A    between atoms: C_2  and  C_3 
REMARK    2  A    between atoms: C_3  and  N_4 
REMARK    3  A    between atoms: C_3  and  C_17 
REMARK    4  A    between atoms: N_4  and  C_5 
REMARK    5  A    between atoms: C_5  and  C_6 
REMARK       I    between atoms: C_6  and  N_7 
REMARK    6  A    between atoms: N_7  and  C_8 
ROOT
HETATM    1  N   UNL     1      42.504 -14.463   3.960  1.00  0.00     0.101 N 
HETATM    2  H   UNL     1      43.200 -14.699   4.669  1.00  0.00     0.317 HD
ENDROOT
BRANCH   1   3
HETATM    3  C   UNL     1      42.142 -15.688   3.219  1.00  0.00     0.256 C 
BRANCH   3   4
HETATM    4  C   UNL     1      40.609 -15.883   3.251  1.00  0.00     0.036 C 
HETATM    5  C   UNL     1      39.963 -15.775   1.875  1.00  0.00     0.007 C 
ENDBRANCH   3   4
BRANCH   3   6
HETATM    6  C   UNL     1      42.838 -16.928   3.763  1.00  0.00     0.013 A 
HETATM    7  C   UNL     1      43.304 -17.911   2.876  1.00  0.00     0.127 A 
HETATM    8  F   UNL     1      43.120 -17.761   1.557  1.00  0.00    -0.205 F 
HETATM    9  C   UNL     1      43.970 -19.045   3.327  1.00  0.00     0.085 A 
HETATM   10  C   UNL     1      44.175 -19.206   4.689  1.00  0.00     0.119 A 
HETATM   11  F   UNL     1      44.818 -20.292   5.136  1.00  0.00    -0.206 F 
HETATM   12  C   UNL     1      43.721 -18.258   5.599  1.00  0.00     0.043 A 
HETATM   13  C   UNL     1      43.052 -17.121   5.140  1.00  0.00     0.015 A 
ENDBRANCH   3   6
ENDBRANCH   1   3
BRANCH   1  14
HETATM   14  C   UNL     1      43.080 -13.432   3.066  1.00  0.00     0.372 C 
BRANCH  14  15
HETATM   15  C   UNL     1      43.365 -12.145   3.851  1.00  0.00     0.250 C 
HETATM   16  N   UNL     1      42.665 -12.089   5.039  1.00  0.00    -0.322 N 
HETATM   17  H   UNL     1      42.019 -12.857   5.192  1.00  0.00     0.169 HD
HETATM   18  O   UNL     1      44.098 -11.280   3.388  1.00  0.00    -0.271 OA
BRANCH  16  19
HETATM   19  C   UNL     1      42.732 -11.108   6.008  1.00  0.00     0.085 A 
HETATM   20  C   UNL     1      41.869 -10.036   6.384  1.00  0.00     0.079 A 
HETATM   21  C   UNL     1      40.580  -9.586   5.800  1.00  0.00     0.075 C 
HETATM   22  N   UNL     1      42.381  -9.331   7.405  1.00  0.00    -0.177 NA
HETATM   23  N   UNL     1      43.542  -9.934   7.673  1.00  0.00    -0.280 N 
HETATM   24  H   UNL     1      44.105  -9.563   8.431  1.00  0.00     0.189 HD
HETATM   25  C   UNL     1      43.815 -10.996   6.860  1.00  0.00     0.052 A 
HETATM   26  C   UNL     1      45.056 -11.789   7.008  1.00  0.00     0.072 C 
ENDBRANCH  16  19
ENDBRANCH  14  15
ENDBRANCH   1  14
TORSDOF 6
ENDMDL
