MODEL 1
REMARK VINA RESULT:      -8.4      0.000      0.000
REMARK  8 active torsions:
REMARK  status: ('A' for Active; 'I' for Inactive)
REMARK    1  A    between atoms: C_2  and  O_3 
REMARK    2  A    between atoms: O_3  and  C_4 
REMARK    3  A    between atoms: C_7  and  N_8 
REMARK       I    between atoms: N_8  and  C_9 
REMARK    4  A    between atoms: C_9  and  C_10 
REMARK    5  A    between atoms: C_10  and  N_11 
REMARK    6  A    between atoms: C_14  and  C_15 
REMARK       I    between atoms: C_15  and  N_16 
REMARK    7  A    between atoms: N_16  and  C_17 
REMARK    8  A    between atoms: C_25  and  N_26 
ROOT
HETATM    1  N   UNL     1      43.658 -12.686   6.201  1.00  0.00    -0.248 N 
HETATM    2  N   UNL     1      43.691 -13.255   7.427  1.00  0.00     0.007 NA
HETATM    3  N   UNL     1      43.334 -14.523   7.285  1.00  0.00    -0.150 NA
HETATM    4  C   UNL     1      43.043 -14.747   5.955  1.00  0.00     0.187 A 
HETATM    5  C   UNL     1      43.195 -13.562   5.253  1.00  0.00     0.151 A 
ENDROOT
BRANCH   1   6
HETATM    6  C   UNL     1      44.216 -11.369   6.022  1.00  0.00     0.251 C 
BRANCH   6   7
HETATM    7  C   UNL     1      44.580 -10.719   7.334  1.00  0.00     0.241 C 
HETATM    8  N   UNL     1      43.502 -10.152   7.996  1.00  0.00    -0.326 N 
HETATM    9  H   UNL     1      42.657 -10.000   7.449  1.00  0.00     0.169 HD
HETATM   10  O   UNL     1      45.735 -10.780   7.750  1.00  0.00    -0.271 OA
BRANCH   8  11
HETATM   11  C   UNL     1      43.467  -9.694   9.329  1.00  0.00     0.034 A 
HETATM   12  C   UNL     1      43.611 -10.525  10.439  1.00  0.00     0.032 A 
HETATM   13  C   UNL     1      43.509 -10.000  11.732  1.00  0.00     0.039 A 
HETATM   14  C   UNL     1      43.271  -8.641  11.939  1.00  0.00     0.068 A 
HETATM   15  C   UNL     1      43.133  -7.805  10.834  1.00  0.00     0.039 A 
HETATM   16  C   UNL     1      43.225  -8.331   9.537  1.00  0.00     0.032 A 
BRANCH  14  17
HETATM   17  O   UNL     1      43.183  -8.269  13.250  1.00  0.00    -0.352 OA
BRANCH  17  18
HETATM   18  C   UNL     1      42.197  -8.921  14.048  1.00  0.00     0.171 C 
HETATM   19  C   UNL     1      40.909  -8.121  13.943  1.00  0.00     0.034 C 
ENDBRANCH  17  18
ENDBRANCH  14  17
ENDBRANCH   8  11
ENDBRANCH   6   7
ENDBRANCH   1   6
BRANCH   5  20
HETATM   20  N   UNL     1      43.025 -13.242   3.948  1.00  0.00    -0.382 N 
HETATM   21  H   UNL     1      42.641 -12.316   3.731  1.00  0.00     0.157 HD
HETATM   22  H   UNL     1      43.650 -13.574   3.215  1.00  0.00     0.157 HD
ENDBRANCH   5  20
BRANCH   4  23
HETATM   23  C   UNL     1      42.658 -16.054   5.435  1.00  0.00     0.280 C 
HETATM   24  N   UNL     1      43.720 -16.714   4.845  1.00  0.00    -0.320 N 
HETATM   25  H   UNL     1      44.633 -16.367   5.120  1.00  0.00     0.169 HD
HETATM   26  O   UNL     1      41.525 -16.501   5.581  1.00  0.00    -0.265 OA
BRANCH  24  27
HETATM   27  C   UNL     1      43.674 -17.933   4.132  1.00  0.00     0.057 A 
HETATM   28  C   UNL     1      43.319 -18.085   2.779  1.00  0.00     0.060 A 
HETATM   29 CL   UNL     1      43.102 -16.761   1.686  1.00  0.00    -0.082 Cl
HETATM   30  C   UNL     1      43.301 -19.362   2.198  1.00  0.00     0.026 A 
HETATM   31  C   UNL     1      43.663 -20.485   2.939  1.00  0.00     0.002 A 
HETATM   32  C   UNL     1      44.068 -20.337   4.260  1.00  0.00     0.002 A 
HETATM   33  C   UNL     1      44.084 -19.070   4.848  1.00  0.00     0.031 A 
ENDBRANCH  24  27
ENDBRANCH   4  23
TORSDOF 8
ENDMDL
MODEL 2
REMARK VINA RESULT:      -8.0      3.039     10.302
REMARK  8 active torsions:
REMARK  status: ('A' for Active; 'I' for Inactive)
REMARK    1  A    between atoms: C_2  and  O_3 
REMARK    2  A    between atoms: O_3  and  C_4 
REMARK    3  A    between atoms: C_7  and  N_8 
REMARK       I    between atoms: N_8  and  C_9 
REMARK    4  A    between atoms: C_9  and  C_10 
REMARK    5  A    between atoms: C_10  and  N_11 
REMARK    6  A    between atoms: C_14  and  C_15 
REMARK       I    between atoms: C_15  and  N_16 
REMARK    7  A    between atoms: N_16  and  C_17 
REMARK    8  A    between atoms: C_25  and  N_26 
ROOT
HETATM    1  N   UNL     1      43.574 -10.551   7.301  1.00  0.00    -0.248 N 
HETATM    2  N   UNL     1      44.838 -10.919   7.606  1.00  0.00     0.007 NA
HETATM    3  N   UNL     1      44.953 -10.886   8.926  1.00  0.00    -0.150 NA
HETATM    4  C   UNL     1      43.751 -10.461   9.456  1.00  0.00     0.187 A 
HETATM    5  C   UNL     1      42.870 -10.191   8.421  1.00  0.00     0.151 A 
ENDROOT
BRANCH   1   6
HETATM    6  C   UNL     1      43.103 -10.712   5.948  1.00  0.00     0.251 C 
BRANCH   6   7
HETATM    7  C   UNL     1      43.509 -12.039   5.355  1.00  0.00     0.241 C 
HETATM    8  N   UNL     1      43.267 -13.121   6.186  1.00  0.00    -0.326 N 
HETATM    9  H   UNL     1      43.093 -12.915   7.168  1.00  0.00     0.169 HD
HETATM   10  O   UNL     1      43.947 -12.091   4.207  1.00  0.00    -0.271 OA
BRANCH   8  11
HETATM   11  C   UNL     1      43.305 -14.487   5.839  1.00  0.00     0.034 A 
HETATM   12  C   UNL     1      44.263 -15.382   6.314  1.00  0.00     0.032 A 
HETATM   13  C   UNL     1      44.265 -16.712   5.876  1.00  0.00     0.039 A 
HETATM   14  C   UNL     1      43.309 -17.171   4.970  1.00  0.00     0.068 A 
HETATM   15  C   UNL     1      42.346 -16.283   4.498  1.00  0.00     0.039 A 
HETATM   16  C   UNL     1      42.349 -14.948   4.926  1.00  0.00     0.032 A 
BRANCH  14  17
HETATM   17  O   UNL     1      43.437 -18.486   4.623  1.00  0.00    -0.352 OA
BRANCH  17  18
HETATM   18  C   UNL     1      44.296 -18.790   3.526  1.00  0.00     0.171 C 
HETATM   19  C   UNL     1      43.437 -19.331   2.396  1.00  0.00     0.034 C 
ENDBRANCH  17  18
ENDBRANCH  14  17
ENDBRANCH   8  11
ENDBRANCH   6   7
ENDBRANCH   1   6
BRANCH   5  20
HETATM   20  N   UNL     1      41.592  -9.744   8.399  1.00  0.00    -0.382 N 
HETATM   21  H   UNL     1      41.365  -8.982   7.752  1.00  0.00     0.157 HD
HETATM   22  H   UNL     1      40.794 -10.357   8.557  1.00  0.00     0.157 HD
ENDBRANCH   5  20
BRANCH   4  23
HETATM   23  C   UNL     1      43.509 -10.354  10.890  1.00  0.00     0.280 C 
HETATM   24  N   UNL     1      42.771  -9.229  11.212  1.00  0.00    -0.320 N 
HETATM   25  H   UNL     1      42.255  -8.831  10.434  1.00  0.00     0.169 HD
HETATM   26  O   UNL     1      43.885 -11.217  11.677  1.00  0.00    -0.265 OA
BRANCH  24  27
HETATM   27  C   UNL     1      42.469  -8.751  12.507  1.00  0.00     0.057 A 
HETATM   28  C   UNL     1      41.394  -9.168  13.311  1.00  0.00     0.060 A 
HETATM   29 CL   UNL     1      40.381 -10.521  12.940  1.00  0.00    -0.082 Cl
HETATM   30  C   UNL     1      41.203  -8.596  14.578  1.00  0.00     0.026 A 
HETATM   31  C   UNL     1      42.088  -7.637  15.066  1.00  0.00     0.002 A 
HETATM   32  C   UNL     1      43.184  -7.259  14.300  1.00  0.00     0.002 A 
HETATM   33  C   UNL     1      43.380  -7.821  13.035  1.00  0.00     0.031 A 
ENDBRANCH  24  27
ENDBRANCH   4  23
TORSDOF 8
ENDMDL
MODEL 3
REMARK VINA RESULT:      -8.0      3.093      9.810
REMARK  8 active torsions:
REMARK  status: ('A' for Active; 'I' for Inactive)
REMARK    1  A    between atoms: C_2  and  O_3 
REMARK    2  A    between atoms: O_3  and  C_4 
REMARK    3  A    between atoms: C_7  and  N_8 
REMARK       I    between atoms: N_8  and  C_9 
REMARK    4  A    between atoms: C_9  and  C_10 
REMARK    5  A    between atoms: C_10  and  N_11 
REMARK    6  A    between atoms: C_14  and  C_15 
REMARK       I    between atoms: C_15  and  N_16 
REMARK    7  A    between atoms: N_16  and  C_17 
REMARK    8  A    between atoms: C_25  and  N_26 
ROOT
HETATM    1  N   UNL     1      42.648 -11.447   3.845  1.00  0.00    -0.248 N 
HETATM    2  N   UNL     1      43.988 -11.305   3.742  1.00  0.00     0.007 NA
HETATM    3  N   UNL     1      44.470 -11.189   4.971  1.00  0.00    -0.150 NA
HETATM    4  C   UNL     1      43.413 -11.229   5.858  1.00  0.00     0.187 A 
HETATM    5  C   UNL     1      42.230 -11.340   5.147  1.00  0.00     0.151 A 
ENDROOT
BRANCH   1   6
HETATM    6  C   UNL     1      41.889 -11.816   2.676  1.00  0.00     0.251 C 
BRANCH   6   7
HETATM    7  C   UNL     1      41.810 -13.312   2.494  1.00  0.00     0.241 C 
HETATM    8  N   UNL     1      42.954 -13.985   2.891  1.00  0.00    -0.326 N 
HETATM    9  H   UNL     1      43.795 -13.425   3.016  1.00  0.00     0.169 HD
HETATM   10  O   UNL     1      40.771 -13.827   2.086  1.00  0.00    -0.271 OA
BRANCH   8  11
HETATM   11  C   UNL     1      43.104 -15.375   3.075  1.00  0.00     0.034 A 
HETATM   12  C   UNL     1      43.187 -15.988   4.324  1.00  0.00     0.032 A 
HETATM   13  C   UNL     1      43.391 -17.370   4.420  1.00  0.00     0.039 A 
HETATM   14  C   UNL     1      43.504 -18.160   3.276  1.00  0.00     0.068 A 
HETATM   15  C   UNL     1      43.414 -17.554   2.026  1.00  0.00     0.039 A 
HETATM   16  C   UNL     1      43.221 -16.169   1.927  1.00  0.00     0.032 A 
BRANCH  14  17
HETATM   17  O   UNL     1      43.712 -19.488   3.518  1.00  0.00    -0.352 OA
BRANCH  17  18
HETATM   18  C   UNL     1      44.526 -19.828   4.638  1.00  0.00     0.171 C 
HETATM   19  C   UNL     1      43.839 -20.955   5.390  1.00  0.00     0.034 C 
ENDBRANCH  17  18
ENDBRANCH  14  17
ENDBRANCH   8  11
ENDBRANCH   6   7
ENDBRANCH   1   6
BRANCH   5  20
HETATM   20  N   UNL     1      40.932 -11.405   5.530  1.00  0.00    -0.382 N 
HETATM   21  H   UNL     1      40.216 -11.209   4.823  1.00  0.00     0.157 HD
HETATM   22  H   UNL     1      40.600 -12.064   6.233  1.00  0.00     0.157 HD
ENDBRANCH   5  20
BRANCH   4  23
HETATM   23  C   UNL     1      43.587 -11.174   7.305  1.00  0.00     0.280 C 
HETATM   24  N   UNL     1      43.013 -10.043   7.857  1.00  0.00    -0.320 N 
HETATM   25  H   UNL     1      42.317  -9.598   7.269  1.00  0.00     0.169 HD
HETATM   26  O   UNL     1      44.134 -12.079   7.926  1.00  0.00    -0.265 OA
BRANCH  24  27
HETATM   27  C   UNL     1      43.106  -9.610   9.199  1.00  0.00     0.057 A 
HETATM   28  C   UNL     1      44.295  -9.337   9.898  1.00  0.00     0.060 A 
HETATM   29 CL   UNL     1      45.855  -9.259   9.152  1.00  0.00    -0.082 Cl
HETATM   30  C   UNL     1      44.243  -8.926  11.238  1.00  0.00     0.026 A 
HETATM   31  C   UNL     1      43.018  -8.754  11.882  1.00  0.00     0.002 A 
HETATM   32  C   UNL     1      41.837  -8.969  11.181  1.00  0.00     0.002 A 
HETATM   33  C   UNL     1      41.881  -9.383   9.847  1.00  0.00     0.031 A 
ENDBRANCH  24  27
ENDBRANCH   4  23
TORSDOF 8
ENDMDL
MODEL 4
REMARK VINA RESULT:      -8.0      5.469      8.807
REMARK  8 active torsions:
REMARK  status: ('A' for Active; 'I' for Inactive)
REMARK    1  A    between atoms: C_2  and  O_3 
REMARK    2  A    between atoms: O_3  and  C_4 
REMARK    3  A    between atoms: C_7  and  N_8 
REMARK       I    between atoms: N_8  and  C_9 
REMARK    4  A    between atoms: C_9  and  C_10 
REMARK    5  A    between atoms: C_10  and  N_11 
REMARK    6  A    between atoms: C_14  and  C_15 
REMARK       I    between atoms: C_15  and  N_16 
REMARK    7  A    between atoms: N_16  and  C_17 
REMARK    8  A    between atoms: C_25  and  N_26 
ROOT
HETATM    1  N   UNL     1      41.711 -12.512   4.363  1.00  0.00    -0.248 N 
HETATM    2  N   UNL     1      43.058 -12.615   4.320  1.00  0.00     0.007 NA
HETATM    3  N   UNL     1      43.364 -13.892   4.502  1.00  0.00    -0.150 NA
HETATM    4  C   UNL     1      42.192 -14.596   4.692  1.00  0.00     0.187 A 
HETATM    5  C   UNL     1      41.123 -13.715   4.659  1.00  0.00     0.151 A 
ENDROOT
BRANCH   1   6
HETATM    6  C   UNL     1      41.089 -11.271   3.973  1.00  0.00     0.251 C 
BRANCH   6   7
HETATM    7  C   UNL     1      40.527 -11.327   2.573  1.00  0.00     0.241 C 
HETATM    8  N   UNL     1      41.254 -12.133   1.711  1.00  0.00    -0.326 N 
HETATM    9  H   UNL     1      42.193 -12.391   2.006  1.00  0.00     0.169 HD
HETATM   10  O   UNL     1      39.481 -10.740   2.307  1.00  0.00    -0.271 OA
BRANCH   8  11
HETATM   11  C   UNL     1      40.863 -12.581   0.432  1.00  0.00     0.034 A 
HETATM   12  C   UNL     1      41.000 -11.824  -0.730  1.00  0.00     0.032 A 
HETATM   13  C   UNL     1      40.535 -12.321  -1.954  1.00  0.00     0.039 A 
HETATM   14  C   UNL     1      39.939 -13.579  -2.039  1.00  0.00     0.068 A 
HETATM   15  C   UNL     1      39.806 -14.342  -0.882  1.00  0.00     0.039 A 
HETATM   16  C   UNL     1      40.261 -13.843   0.347  1.00  0.00     0.032 A 
BRANCH  14  17
HETATM   17  O   UNL     1      39.524 -13.930  -3.292  1.00  0.00    -0.352 OA
BRANCH  17  18
HETATM   18  C   UNL     1      38.217 -14.489  -3.413  1.00  0.00     0.171 C 
HETATM   19  C   UNL     1      37.213 -13.413  -3.039  1.00  0.00     0.034 C 
ENDBRANCH  17  18
ENDBRANCH  14  17
ENDBRANCH   8  11
ENDBRANCH   6   7
ENDBRANCH   1   6
BRANCH   5  20
HETATM   20  N   UNL     1      39.788 -13.888   4.801  1.00  0.00    -0.382 N 
HETATM   21  H   UNL     1      39.174 -13.127   4.495  1.00  0.00     0.157 HD
HETATM   22  H   UNL     1      39.339 -14.798   4.706  1.00  0.00     0.157 HD
ENDBRANCH   5  20
BRANCH   4  23
HETATM   23  C   UNL     1      42.155 -16.043   4.877  1.00  0.00     0.280 C 
HETATM   24  N   UNL     1      43.312 -16.655   4.430  1.00  0.00    -0.320 N 
HETATM   25  H   UNL     1      44.107 -16.031   4.338  1.00  0.00     0.169 HD
HETATM   26  O   UNL     1      41.212 -16.602   5.426  1.00  0.00    -0.265 OA
BRANCH  24  27
HETATM   27  C   UNL     1      43.560 -18.043   4.337  1.00  0.00     0.057 A 
HETATM   28  C   UNL     1      43.763 -18.919   5.419  1.00  0.00     0.060 A 
HETATM   29 CL   UNL     1      43.509 -18.481   7.074  1.00  0.00    -0.082 Cl
HETATM   30  C   UNL     1      44.014 -20.279   5.182  1.00  0.00     0.026 A 
HETATM   31  C   UNL     1      44.034 -20.782   3.883  1.00  0.00     0.002 A 
HETATM   32  C   UNL     1      43.780 -19.934   2.812  1.00  0.00     0.002 A 
HETATM   33  C   UNL     1      43.534 -18.577   3.038  1.00  0.00     0.031 A 
ENDBRANCH  24  27
ENDBRANCH   4  23
TORSDOF 8
ENDMDL
MODEL 5
REMARK VINA RESULT:      -8.0      3.988     10.637
REMARK  8 active torsions:
REMARK  status: ('A' for Active; 'I' for Inactive)
REMARK    1  A    between atoms: C_2  and  O_3 
REMARK    2  A    between atoms: O_3  and  C_4 
REMARK    3  A    between atoms: C_7  and  N_8 
REMARK       I    between atoms: N_8  and  C_9 
REMARK    4  A    between atoms: C_9  and  C_10 
REMARK    5  A    between atoms: C_10  and  N_11 
REMARK    6  A    between atoms: C_14  and  C_15 
REMARK       I    between atoms: C_15  and  N_16 
REMARK    7  A    between atoms: N_16  and  C_17 
REMARK    8  A    between atoms: C_25  and  N_26 
ROOT
HETATM    1  N   UNL     1      39.504 -10.877   6.387  1.00  0.00    -0.248 N 
HETATM    2  N   UNL     1      38.480 -11.274   7.175  1.00  0.00     0.007 NA
HETATM    3  N   UNL     1      38.626 -10.674   8.348  1.00  0.00    -0.150 NA
HETATM    4  C   UNL     1      39.776  -9.912   8.306  1.00  0.00     0.187 A 
HETATM    5  C   UNL     1      40.381 -10.073   7.070  1.00  0.00     0.151 A 
ENDROOT
BRANCH   1   6
HETATM    6  C   UNL     1      39.476 -11.199   4.982  1.00  0.00     0.251 C 
BRANCH   6   7
HETATM    7  C   UNL     1      40.482 -12.263   4.619  1.00  0.00     0.241 C 
HETATM    8  N   UNL     1      39.934 -13.529   4.487  1.00  0.00    -0.326 N 
HETATM    9  H   UNL     1      39.006 -13.671   4.880  1.00  0.00     0.169 HD
HETATM   10  O   UNL     1      41.653 -11.955   4.410  1.00  0.00    -0.271 OA
BRANCH   8  11
HETATM   11  C   UNL     1      40.549 -14.668   3.928  1.00  0.00     0.034 A 
HETATM   12  C   UNL     1      41.500 -15.441   4.592  1.00  0.00     0.032 A 
HETATM   13  C   UNL     1      42.105 -16.526   3.945  1.00  0.00     0.039 A 
HETATM   14  C   UNL     1      41.763 -16.862   2.636  1.00  0.00     0.068 A 
HETATM   15  C   UNL     1      40.808 -16.098   1.970  1.00  0.00     0.039 A 
HETATM   16  C   UNL     1      40.209 -15.005   2.612  1.00  0.00     0.032 A 
BRANCH  14  17
HETATM   17  O   UNL     1      42.438 -17.935   2.127  1.00  0.00    -0.352 OA
BRANCH  17  18
HETATM   18  C   UNL     1      43.529 -18.443   2.893  1.00  0.00     0.171 C 
HETATM   19  C   UNL     1      43.719 -19.903   2.523  1.00  0.00     0.034 C 
ENDBRANCH  17  18
ENDBRANCH  14  17
ENDBRANCH   8  11
ENDBRANCH   6   7
ENDBRANCH   1   6
BRANCH   5  20
HETATM   20  N   UNL     1      41.516  -9.566   6.532  1.00  0.00    -0.382 N 
HETATM   21  H   UNL     1      41.943  -8.758   6.996  1.00  0.00     0.157 HD
HETATM   22  H   UNL     1      42.212 -10.149   6.071  1.00  0.00     0.157 HD
ENDBRANCH   5  20
BRANCH   4  23
HETATM   23  C   UNL     1      40.218  -9.079   9.419  1.00  0.00     0.280 C 
HETATM   24  N   UNL     1      40.987  -9.785  10.326  1.00  0.00    -0.320 N 
HETATM   25  H   UNL     1      41.385 -10.643   9.959  1.00  0.00     0.169 HD
HETATM   26  O   UNL     1      39.962  -7.880   9.471  1.00  0.00    -0.265 OA
BRANCH  24  27
HETATM   27  C   UNL     1      41.466  -9.326  11.573  1.00  0.00     0.057 A 
HETATM   28  C   UNL     1      40.881  -9.583  12.827  1.00  0.00     0.060 A 
HETATM   29 CL   UNL     1      39.592 -10.710  13.076  1.00  0.00    -0.082 Cl
HETATM   30  C   UNL     1      41.456  -9.051  13.991  1.00  0.00     0.026 A 
HETATM   31  C   UNL     1      42.624  -8.293  13.925  1.00  0.00     0.002 A 
HETATM   32  C   UNL     1      43.238  -8.081  12.696  1.00  0.00     0.002 A 
HETATM   33  C   UNL     1      42.670  -8.604  11.532  1.00  0.00     0.031 A 
ENDBRANCH  24  27
ENDBRANCH   4  23
TORSDOF 8
ENDMDL
MODEL 6
REMARK VINA RESULT:      -7.8      1.853      2.110
REMARK  8 active torsions:
REMARK  status: ('A' for Active; 'I' for Inactive)
REMARK    1  A    between atoms: C_2  and  O_3 
REMARK    2  A    between atoms: O_3  and  C_4 
REMARK    3  A    between atoms: C_7  and  N_8 
REMARK       I    between atoms: N_8  and  C_9 
REMARK    4  A    between atoms: C_9  and  C_10 
REMARK    5  A    between atoms: C_10  and  N_11 
REMARK    6  A    between atoms: C_14  and  C_15 
REMARK       I    between atoms: C_15  and  N_16 
REMARK    7  A    between atoms: N_16  and  C_17 
REMARK    8  A    between atoms: C_25  and  N_26 
ROOT
HETATM    1  N   UNL     1      42.188 -11.061   6.314  1.00  0.00    -0.248 N 
HETATM    2  N   UNL     1      43.334 -11.551   6.839  1.00  0.00     0.007 NA
HETATM    3  N   UNL     1      43.418 -12.826   6.487  1.00  0.00    -0.150 NA
HETATM    4  C   UNL     1      42.293 -13.150   5.755  1.00  0.00     0.187 A 
HETATM    5  C   UNL     1      41.467 -12.040   5.680  1.00  0.00     0.151 A 
ENDROOT
BRANCH   1   6
HETATM    6  C   UNL     1      41.950  -9.640   6.350  1.00  0.00     0.251 C 
BRANCH   6   7
HETATM    7  C   UNL     1      42.208  -9.051   7.715  1.00  0.00     0.241 C 
HETATM    8  N   UNL     1      41.533  -9.696   8.739  1.00  0.00    -0.326 N 
HETATM    9  H   UNL     1      40.764 -10.305   8.469  1.00  0.00     0.169 HD
HETATM   10  O   UNL     1      43.006  -8.125   7.844  1.00  0.00    -0.271 OA
BRANCH   8  11
HETATM   11  C   UNL     1      41.747  -9.548  10.125  1.00  0.00     0.034 A 
HETATM   12  C   UNL     1      42.918  -9.935  10.775  1.00  0.00     0.032 A 
HETATM   13  C   UNL     1      43.030  -9.805  12.164  1.00  0.00     0.039 A 
HETATM   14  C   UNL     1      41.984  -9.281  12.923  1.00  0.00     0.068 A 
HETATM   15  C   UNL     1      40.814  -8.886  12.278  1.00  0.00     0.039 A 
HETATM   16  C   UNL     1      40.696  -9.025  10.888  1.00  0.00     0.032 A 
BRANCH  14  17
HETATM   17  O   UNL     1      42.226  -9.222  14.266  1.00  0.00    -0.352 OA
BRANCH  17  18
HETATM   18  C   UNL     1      41.910  -8.002  14.933  1.00  0.00     0.171 C 
HETATM   19  C   UNL     1      43.010  -7.002  14.623  1.00  0.00     0.034 C 
ENDBRANCH  17  18
ENDBRANCH  14  17
ENDBRANCH   8  11
ENDBRANCH   6   7
ENDBRANCH   1   6
BRANCH   5  20
HETATM   20  N   UNL     1      40.262 -11.833   5.099  1.00  0.00    -0.382 N 
HETATM   21  H   UNL     1      39.792 -12.640   4.675  1.00  0.00     0.157 HD
HETATM   22  H   UNL     1      39.594 -11.149   5.449  1.00  0.00     0.157 HD
ENDBRANCH   5  20
BRANCH   4  23
HETATM   23  C   UNL     1      42.080 -14.468   5.169  1.00  0.00     0.280 C 
HETATM   24  N   UNL     1      43.269 -15.140   4.950  1.00  0.00    -0.320 N 
HETATM   25  H   UNL     1      44.054 -14.787   5.487  1.00  0.00     0.169 HD
HETATM   26  O   UNL     1      40.955 -14.912   4.966  1.00  0.00    -0.265 OA
BRANCH  24  27
HETATM   27  C   UNL     1      43.439 -16.373   4.283  1.00  0.00     0.057 A 
HETATM   28  C   UNL     1      43.233 -16.605   2.911  1.00  0.00     0.060 A 
HETATM   29 CL   UNL     1      42.958 -15.348   1.753  1.00  0.00    -0.082 Cl
HETATM   30  C   UNL     1      43.426 -17.889   2.379  1.00  0.00     0.026 A 
HETATM   31  C   UNL     1      43.851 -18.938   3.192  1.00  0.00     0.002 A 
HETATM   32  C   UNL     1      44.110 -18.705   4.537  1.00  0.00     0.002 A 
HETATM   33  C   UNL     1      43.916 -17.430   5.076  1.00  0.00     0.031 A 
ENDBRANCH  24  27
ENDBRANCH   4  23
TORSDOF 8
ENDMDL
MODEL 7
REMARK VINA RESULT:      -7.8      4.959      8.601
REMARK  8 active torsions:
REMARK  status: ('A' for Active; 'I' for Inactive)
REMARK    1  A    between atoms: C_2  and  O_3 
REMARK    2  A    between atoms: O_3  and  C_4 
REMARK    3  A    between atoms: C_7  and  N_8 
REMARK       I    between atoms: N_8  and  C_9 
REMARK    4  A    between atoms: C_9  and  C_10 
REMARK    5  A    between atoms: C_10  and  N_11 
REMARK    6  A    between atoms: C_14  and  C_15 
REMARK       I    between atoms: C_15  and  N_16 
REMARK    7  A    between atoms: N_16  and  C_17 
REMARK    8  A    between atoms: C_25  and  N_26 
ROOT
HETATM    1  N   UNL     1      41.056 -11.705   4.422  1.00  0.00    -0.248 N 
HETATM    2  N   UNL     1      39.879 -12.360   4.539  1.00  0.00     0.007 NA
HETATM    3  N   UNL     1      39.383 -12.506   3.319  1.00  0.00    -0.150 NA
HETATM    4  C   UNL     1      40.247 -11.907   2.424  1.00  0.00     0.187 A 
HETATM    5  C   UNL     1      41.301 -11.341   3.122  1.00  0.00     0.151 A 
ENDROOT
BRANCH   1   6
HETATM    6  C   UNL     1      41.923 -11.607   5.569  1.00  0.00     0.251 C 
BRANCH   6   7
HETATM    7  C   UNL     1      42.818 -12.813   5.715  1.00  0.00     0.241 C 
HETATM    8  N   UNL     1      42.223 -14.002   5.325  1.00  0.00    -0.326 N 
HETATM    9  H   UNL     1      41.209 -13.998   5.230  1.00  0.00     0.169 HD
HETATM   10  O   UNL     1      43.980 -12.673   6.090  1.00  0.00    -0.271 OA
BRANCH   8  11
HETATM   11  C   UNL     1      42.859 -15.243   5.113  1.00  0.00     0.034 A 
HETATM   12  C   UNL     1      43.672 -15.869   6.056  1.00  0.00     0.032 A 
HETATM   13  C   UNL     1      44.312 -17.075   5.746  1.00  0.00     0.039 A 
HETATM   14  C   UNL     1      44.144 -17.678   4.499  1.00  0.00     0.068 A 
HETATM   15  C   UNL     1      43.327 -17.060   3.556  1.00  0.00     0.039 A 
HETATM   16  C   UNL     1      42.693 -15.847   3.861  1.00  0.00     0.032 A 
BRANCH  14  17
HETATM   17  O   UNL     1      44.836 -18.843   4.331  1.00  0.00    -0.352 OA
BRANCH  17  18
HETATM   18  C   UNL     1      44.073 -20.028   4.111  1.00  0.00     0.171 C 
HETATM   19  C   UNL     1      43.949 -20.756   5.439  1.00  0.00     0.034 C 
ENDBRANCH  17  18
ENDBRANCH  14  17
ENDBRANCH   8  11
ENDBRANCH   6   7
ENDBRANCH   1   6
BRANCH   5  20
HETATM   20  N   UNL     1      42.390 -10.640   2.727  1.00  0.00    -0.382 N 
HETATM   21  H   UNL     1      43.238 -11.169   2.494  1.00  0.00     0.157 HD
HETATM   22  H   UNL     1      42.323  -9.778   2.190  1.00  0.00     0.157 HD
ENDBRANCH   5  20
BRANCH   4  23
HETATM   23  C   UNL     1      40.030 -11.920   0.982  1.00  0.00     0.280 C 
HETATM   24  N   UNL     1      39.110 -12.880   0.601  1.00  0.00    -0.320 N 
HETATM   25  H   UNL     1      38.510 -13.204   1.351  1.00  0.00     0.169 HD
HETATM   26  O   UNL     1      40.578 -11.113   0.238  1.00  0.00    -0.265 OA
BRANCH  24  27
HETATM   27  C   UNL     1      38.765 -13.251  -0.718  1.00  0.00     0.057 A 
HETATM   28  C   UNL     1      37.864 -12.571  -1.558  1.00  0.00     0.060 A 
HETATM   29 CL   UNL     1      37.197 -11.015  -1.196  1.00  0.00    -0.082 Cl
HETATM   30  C   UNL     1      37.601 -13.060  -2.846  1.00  0.00     0.026 A 
HETATM   31  C   UNL     1      38.247 -14.201  -3.319  1.00  0.00     0.002 A 
HETATM   32  C   UNL     1      39.179 -14.847  -2.516  1.00  0.00     0.002 A 
HETATM   33  C   UNL     1      39.444 -14.369  -1.230  1.00  0.00     0.031 A 
ENDBRANCH  24  27
ENDBRANCH   4  23
TORSDOF 8
ENDMDL
MODEL 8
REMARK VINA RESULT:      -7.7      7.152      9.474
REMARK  8 active torsions:
REMARK  status: ('A' for Active; 'I' for Inactive)
REMARK    1  A    between atoms: C_2  and  O_3 
REMARK    2  A    between atoms: O_3  and  C_4 
REMARK    3  A    between atoms: C_7  and  N_8 
REMARK       I    between atoms: N_8  and  C_9 
REMARK    4  A    between atoms: C_9  and  C_10 
REMARK    5  A    between atoms: C_10  and  N_11 
REMARK    6  A    between atoms: C_14  and  C_15 
REMARK       I    between atoms: C_15  and  N_16 
REMARK    7  A    between atoms: N_16  and  C_17 
REMARK    8  A    between atoms: C_25  and  N_26 
ROOT
HETATM    1  N   UNL     1      40.230 -13.327  -0.573  1.00  0.00    -0.248 N 
HETATM    2  N   UNL     1      41.078 -12.538   0.123  1.00  0.00     0.007 NA
HETATM    3  N   UNL     1      41.506 -13.237   1.164  1.00  0.00    -0.150 NA
HETATM    4  C   UNL     1      40.893 -14.474   1.138  1.00  0.00     0.187 A 
HETATM    5  C   UNL     1      40.029 -14.528   0.057  1.00  0.00     0.151 A 
ENDROOT
BRANCH   1   6
HETATM    6  C   UNL     1      39.785 -12.902  -1.877  1.00  0.00     0.251 C 
BRANCH   6   7
HETATM    7  C   UNL     1      40.681 -11.842  -2.470  1.00  0.00     0.241 C 
HETATM    8  N   UNL     1      40.471 -10.576  -1.947  1.00  0.00    -0.326 N 
HETATM    9  H   UNL     1      39.605 -10.430  -1.432  1.00  0.00     0.169 HD
HETATM   10  O   UNL     1      41.542 -12.153  -3.290  1.00  0.00    -0.271 OA
BRANCH   8  11
HETATM   11  C   UNL     1      41.292  -9.441  -2.108  1.00  0.00     0.034 A 
HETATM   12  C   UNL     1      42.211  -9.007  -1.154  1.00  0.00     0.032 A 
HETATM   13  C   UNL     1      42.950  -7.837  -1.367  1.00  0.00     0.039 A 
HETATM   14  C   UNL     1      42.793  -7.091  -2.535  1.00  0.00     0.068 A 
HETATM   15  C   UNL     1      41.882  -7.524  -3.495  1.00  0.00     0.039 A 
HETATM   16  C   UNL     1      41.133  -8.690  -3.279  1.00  0.00     0.032 A 
BRANCH  14  17
HETATM   17  O   UNL     1      43.568  -5.969  -2.605  1.00  0.00    -0.352 OA
BRANCH  17  18
HETATM   18  C   UNL     1      43.314  -4.939  -1.652  1.00  0.00     0.171 C 
HETATM   19  C   UNL     1      44.640  -4.545  -1.025  1.00  0.00     0.034 C 
ENDBRANCH  17  18
ENDBRANCH  14  17
ENDBRANCH   8  11
ENDBRANCH   6   7
ENDBRANCH   1   6
BRANCH   5  20
HETATM   20  N   UNL     1      39.196 -15.492  -0.403  1.00  0.00    -0.382 N 
HETATM   21  H   UNL     1      38.889 -15.430  -1.379  1.00  0.00     0.157 HD
HETATM   22  H   UNL     1      39.244 -16.457  -0.081  1.00  0.00     0.157 HD
ENDBRANCH   5  20
BRANCH   4  23
HETATM   23  C   UNL     1      41.171 -15.518   2.117  1.00  0.00     0.280 C 
HETATM   24  N   UNL     1      42.524 -15.783   2.228  1.00  0.00    -0.320 N 
HETATM   25  H   UNL     1      43.125 -15.045   1.876  1.00  0.00     0.169 HD
HETATM   26  O   UNL     1      40.281 -16.032   2.787  1.00  0.00    -0.265 OA
BRANCH  24  27
HETATM   27  C   UNL     1      43.131 -16.815   2.978  1.00  0.00     0.057 A 
HETATM   28  C   UNL     1      43.589 -16.712   4.304  1.00  0.00     0.060 A 
HETATM   29 CL   UNL     1      43.271 -15.355   5.330  1.00  0.00    -0.082 Cl
HETATM   30  C   UNL     1      44.188 -17.817   4.927  1.00  0.00     0.026 A 
HETATM   31  C   UNL     1      44.308 -19.033   4.256  1.00  0.00     0.002 A 
HETATM   32  C   UNL     1      43.809 -19.159   2.965  1.00  0.00     0.002 A 
HETATM   33  C   UNL     1      43.215 -18.061   2.335  1.00  0.00     0.031 A 
ENDBRANCH  24  27
ENDBRANCH   4  23
TORSDOF 8
ENDMDL
MODEL 9
REMARK VINA RESULT:      -7.6      3.616      9.619
REMARK  8 active torsions:
REMARK  status: ('A' for Active; 'I' for Inactive)
REMARK    1  A    between atoms: C_2  and  O_3 
REMARK    2  A    between atoms: O_3  and  C_4 
REMARK    3  A    between atoms: C_7  and  N_8 
REMARK       I    between atoms: N_8  and  C_9 
REMARK    4  A    between atoms: C_9  and  C_10 
REMARK    5  A    between atoms: C_10  and  N_11 
REMARK    6  A    between atoms: C_14  and  C_15 
REMARK       I    between atoms: C_15  and  N_16 
REMARK    7  A    between atoms: N_16  and  C_17 
REMARK    8  A    between atoms: C_25  and  N_26 
ROOT
HETATM    1  N   UNL     1      40.369 -12.442   3.166  1.00  0.00    -0.248 N 
HETATM    2  N   UNL     1      41.463 -11.815   2.681  1.00  0.00     0.007 NA
HETATM    3  N   UNL     1      42.017 -11.150   3.685  1.00  0.00    -0.150 NA
HETATM    4  C   UNL     1      41.242 -11.338   4.811  1.00  0.00     0.187 A 
HETATM    5  C   UNL     1      40.149 -12.123   4.482  1.00  0.00     0.151 A 
ENDROOT
BRANCH   1   6
HETATM    6  C   UNL     1      39.697 -13.418   2.346  1.00  0.00     0.251 C 
BRANCH   6   7
HETATM    7  C   UNL     1      40.303 -14.794   2.480  1.00  0.00     0.241 C 
HETATM    8  N   UNL     1      41.643 -14.783   2.835  1.00  0.00    -0.326 N 
HETATM    9  H   UNL     1      42.140 -13.901   2.722  1.00  0.00     0.169 HD
HETATM   10  O   UNL     1      39.599 -15.792   2.339  1.00  0.00    -0.271 OA
BRANCH   8  11
HETATM   11  C   UNL     1      42.417 -15.877   3.270  1.00  0.00     0.034 A 
HETATM   12  C   UNL     1      42.909 -16.013   4.567  1.00  0.00     0.032 A 
HETATM   13  C   UNL     1      43.718 -17.105   4.905  1.00  0.00     0.039 A 
HETATM   14  C   UNL     1      44.040 -18.079   3.960  1.00  0.00     0.068 A 
HETATM   15  C   UNL     1      43.546 -17.952   2.664  1.00  0.00     0.039 A 
HETATM   16  C   UNL     1      42.744 -16.854   2.321  1.00  0.00     0.032 A 
BRANCH  14  17
HETATM   17  O   UNL     1      44.846 -19.080   4.424  1.00  0.00    -0.352 OA
BRANCH  17  18
HETATM   18  C   UNL     1      44.211 -20.180   5.072  1.00  0.00     0.171 C 
HETATM   19  C   UNL     1      43.826 -21.191   4.006  1.00  0.00     0.034 C 
ENDBRANCH  17  18
ENDBRANCH  14  17
ENDBRANCH   8  11
ENDBRANCH   6   7
ENDBRANCH   1   6
BRANCH   5  20
HETATM   20  N   UNL     1      39.099 -12.582   5.204  1.00  0.00    -0.382 N 
HETATM   21  H   UNL     1      39.180 -12.563   6.226  1.00  0.00     0.157 HD
HETATM   22  H   UNL     1      38.134 -12.474   4.899  1.00  0.00     0.157 HD
ENDBRANCH   5  20
BRANCH   4  23
HETATM   23  C   UNL     1      41.587 -10.783   6.115  1.00  0.00     0.280 C 
HETATM   24  N   UNL     1      42.923 -10.436   6.197  1.00  0.00    -0.320 N 
HETATM   25  H   UNL     1      43.381 -10.320   5.299  1.00  0.00     0.169 HD
HETATM   26  O   UNL     1      40.743 -10.606   6.987  1.00  0.00    -0.265 OA
BRANCH  24  27
HETATM   27  C   UNL     1      43.619  -9.996   7.345  1.00  0.00     0.057 A 
HETATM   28  C   UNL     1      43.522  -8.720   7.930  1.00  0.00     0.060 A 
HETATM   29 CL   UNL     1      42.345  -7.537   7.473  1.00  0.00    -0.082 Cl
HETATM   30  C   UNL     1      44.284  -8.410   9.066  1.00  0.00     0.026 A 
HETATM   31  C   UNL     1      45.118  -9.366   9.646  1.00  0.00     0.002 A 
HETATM   32  C   UNL     1      45.178 -10.645   9.106  1.00  0.00     0.002 A 
HETATM   33  C   UNL     1      44.425 -10.960   7.971  1.00  0.00     0.031 A 
ENDBRANCH  24  27
ENDBRANCH   4  23
TORSDOF 8
ENDMDL
MODEL 10
REMARK VINA RESULT:      -7.5      1.886      2.759
REMARK  8 active torsions:
REMARK  status: ('A' for Active; 'I' for Inactive)
REMARK    1  A    between atoms: C_2  and  O_3 
REMARK    2  A    between atoms: O_3  and  C_4 
REMARK    3  A    between atoms: C_7  and  N_8 
REMARK       I    between atoms: N_8  and  C_9 
REMARK    4  A    between atoms: C_9  and  C_10 
REMARK    5  A    between atoms: C_10  and  N_11 
REMARK    6  A    between atoms: C_14  and  C_15 
REMARK       I    between atoms: C_15  and  N_16 
REMARK    7  A    between atoms: N_16  and  C_17 
REMARK    8  A    between atoms: C_25  and  N_26 
ROOT
HETATM    1  N   UNL     1      42.999 -10.841   6.783  1.00  0.00    -0.248 N 
HETATM    2  N   UNL     1      41.696 -10.724   6.444  1.00  0.00     0.007 NA
HETATM    3  N   UNL     1      41.285 -11.914   6.032  1.00  0.00    -0.150 NA
HETATM    4  C   UNL     1      42.354 -12.786   6.086  1.00  0.00     0.187 A 
HETATM    5  C   UNL     1      43.477 -12.098   6.516  1.00  0.00     0.151 A 
ENDROOT
BRANCH   1   6
HETATM    6  C   UNL     1      43.645  -9.753   7.476  1.00  0.00     0.251 C 
BRANCH   6   7
HETATM    7  C   UNL     1      43.582  -9.912   8.975  1.00  0.00     0.241 C 
HETATM    8  N   UNL     1      42.964  -8.855   9.624  1.00  0.00    -0.326 N 
HETATM    9  H   UNL     1      42.849  -7.994   9.092  1.00  0.00     0.169 HD
HETATM   10  O   UNL     1      44.001 -10.940   9.502  1.00  0.00    -0.271 OA
BRANCH   8  11
HETATM   11  C   UNL     1      42.537  -8.813  10.967  1.00  0.00     0.034 A 
HETATM   12  C   UNL     1      43.276  -8.237  11.998  1.00  0.00     0.032 A 
HETATM   13  C   UNL     1      42.807  -8.285  13.316  1.00  0.00     0.039 A 
HETATM   14  C   UNL     1      41.592  -8.898  13.623  1.00  0.00     0.068 A 
HETATM   15  C   UNL     1      40.845  -9.469  12.596  1.00  0.00     0.039 A 
HETATM   16  C   UNL     1      41.319  -9.431  11.277  1.00  0.00     0.032 A 
BRANCH  14  17
HETATM   17  O   UNL     1      41.263  -8.882  14.949  1.00  0.00    -0.352 OA
BRANCH  17  18
HETATM   18  C   UNL     1      40.989  -7.612  15.537  1.00  0.00     0.171 C 
HETATM   19  C   UNL     1      41.347  -7.693  17.011  1.00  0.00     0.034 C 
ENDBRANCH  17  18
ENDBRANCH  14  17
ENDBRANCH   8  11
ENDBRANCH   6   7
ENDBRANCH   1   6
BRANCH   5  20
HETATM   20  N   UNL     1      44.760 -12.477   6.724  1.00  0.00    -0.382 N 
HETATM   21  H   UNL     1      45.475 -12.110   6.087  1.00  0.00     0.157 HD
HETATM   22  H   UNL     1      45.137 -12.652   7.654  1.00  0.00     0.157 HD
ENDBRANCH   5  20
BRANCH   4  23
HETATM   23  C   UNL     1      42.245 -14.199   5.744  1.00  0.00     0.280 C 
HETATM   24  N   UNL     1      43.095 -14.554   4.713  1.00  0.00    -0.320 N 
HETATM   25  H   UNL     1      43.861 -13.906   4.559  1.00  0.00     0.169 HD
HETATM   26  O   UNL     1      41.514 -14.961   6.368  1.00  0.00    -0.265 OA
BRANCH  24  27
HETATM   27  C   UNL     1      43.154 -15.800   4.049  1.00  0.00     0.057 A 
HETATM   28  C   UNL     1      43.741 -16.976   4.550  1.00  0.00     0.060 A 
HETATM   29 CL   UNL     1      44.291 -17.158   6.181  1.00  0.00    -0.082 Cl
HETATM   30  C   UNL     1      43.742 -18.145   3.776  1.00  0.00     0.026 A 
HETATM   31  C   UNL     1      43.137 -18.166   2.520  1.00  0.00     0.002 A 
HETATM   32  C   UNL     1      42.507 -17.024   2.040  1.00  0.00     0.002 A 
HETATM   33  C   UNL     1      42.506 -15.854   2.804  1.00  0.00     0.031 A 
ENDBRANCH  24  27
ENDBRANCH   4  23
TORSDOF 8
ENDMDL
