MODEL 1
REMARK VINA RESULT:      -8.1      0.000      0.000
REMARK  4 active torsions:
REMARK  status: ('A' for Active; 'I' for Inactive)
REMARK    1  A    between atoms: C_5  and  N_6 
REMARK       I    between atoms: N_6  and  C_7 
REMARK    2  A    between atoms: C_7  and  C_8 
REMARK    3  A    between atoms: C_12  and  C_13 
REMARK    4  A    between atoms: C_15  and  O_16 
ROOT
HETATM    1  C   UNL     1      43.179 -12.772   6.500  1.00  0.00     0.120 A 
HETATM    2  N   UNL     1      43.147 -13.734   7.469  1.00  0.00    -0.272 N 
HETATM    3  H   UNL     1      43.089 -13.584   8.472  1.00  0.00     0.189 HD
HETATM    4  N   UNL     1      43.182 -14.990   7.000  1.00  0.00    -0.174 NA
HETATM    5  C   UNL     1      43.291 -14.852   5.668  1.00  0.00     0.089 A 
HETATM    6  C   UNL     1      43.283 -13.473   5.316  1.00  0.00     0.071 A 
ENDROOT
BRANCH   1   7
HETATM    7  C   UNL     1      43.120 -11.371   6.824  1.00  0.00     0.270 C 
HETATM    8  N   UNL     1      43.519 -11.056   8.103  1.00  0.00    -0.351 N 
HETATM    9  H   UNL     1      43.964 -11.777   8.651  1.00  0.00     0.163 HD
HETATM   10  O   UNL     1      42.754 -10.529   6.011  1.00  0.00    -0.266 OA
BRANCH   8  11
HETATM   11  C   UNL     1      43.617  -9.678   8.572  1.00  0.00     0.084 C 
HETATM   12  C   UNL     1      42.343  -9.277   9.325  1.00  0.00     0.025 C 
HETATM   13  C   UNL     1      42.228  -9.941  10.701  1.00  0.00     0.006 C 
HETATM   14  C   UNL     1      43.478  -9.747  11.571  1.00  0.00    -0.019 C 
HETATM   15  C   UNL     1      43.569  -8.318  12.114  1.00  0.00     0.010 C 
HETATM   16  C   UNL     1      44.747 -10.148  10.808  1.00  0.00     0.006 C 
HETATM   17  C   UNL     1      44.865  -9.471   9.441  1.00  0.00     0.025 C 
ENDBRANCH   8  11
ENDBRANCH   1   7
BRANCH   5  18
HETATM   18  C   UNL     1      43.385 -16.010   4.775  1.00  0.00    -0.003 A 
HETATM   19  C   UNL     1      43.837 -17.249   5.265  1.00  0.00     0.050 A 
HETATM   20  C   UNL     1      43.918 -18.363   4.427  1.00  0.00     0.069 A 
HETATM   21  C   UNL     1      43.553 -18.238   3.085  1.00  0.00     0.037 A 
HETATM   22  C   UNL     1      43.112 -17.016   2.580  1.00  0.00     0.004 A 
HETATM   23  C   UNL     1      43.028 -15.906   3.423  1.00  0.00     0.014 A 
BRANCH  20  24
HETATM   24  O   UNL     1      44.331 -19.616   4.790  1.00  0.00    -0.356 OA
HETATM   25  C   UNL     1      43.930 -20.691   3.949  1.00  0.00     0.210 C 
ENDBRANCH  20  24
ENDBRANCH   5  18
TORSDOF 4
ENDMDL
MODEL 2
REMARK VINA RESULT:      -8.1      1.209      1.372
REMARK  4 active torsions:
REMARK  status: ('A' for Active; 'I' for Inactive)
REMARK    1  A    between atoms: C_5  and  N_6 
REMARK       I    between atoms: N_6  and  C_7 
REMARK    2  A    between atoms: C_7  and  C_8 
REMARK    3  A    between atoms: C_12  and  C_13 
REMARK    4  A    between atoms: C_15  and  O_16 
ROOT
HETATM    1  C   UNL     1      43.781 -12.797   6.886  1.00  0.00     0.120 A 
HETATM    2  N   UNL     1      43.160 -13.742   7.653  1.00  0.00    -0.272 N 
HETATM    3  H   UNL     1      43.033 -13.717   8.661  1.00  0.00     0.189 HD
HETATM    4  N   UNL     1      42.672 -14.782   6.961  1.00  0.00    -0.174 NA
HETATM    5  C   UNL     1      43.027 -14.539   5.688  1.00  0.00     0.089 A 
HETATM    6  C   UNL     1      43.718 -13.296   5.601  1.00  0.00     0.071 A 
ENDROOT
BRANCH   1   7
HETATM    7  C   UNL     1      44.337 -11.603   7.462  1.00  0.00     0.270 C 
HETATM    8  N   UNL     1      43.516 -10.953   8.355  1.00  0.00    -0.351 N 
HETATM    9  H   UNL     1      42.679 -11.429   8.659  1.00  0.00     0.163 HD
HETATM   10  O   UNL     1      45.464 -11.208   7.182  1.00  0.00    -0.266 OA
BRANCH   8  11
HETATM   11  C   UNL     1      43.952  -9.782   9.108  1.00  0.00     0.084 C 
HETATM   12  C   UNL     1      42.755  -8.881   9.436  1.00  0.00     0.025 C 
HETATM   13  C   UNL     1      41.840  -9.473  10.513  1.00  0.00     0.006 C 
HETATM   14  C   UNL     1      42.594  -9.889  11.784  1.00  0.00    -0.019 C 
HETATM   15  C   UNL     1      43.015  -8.672  12.613  1.00  0.00     0.010 C 
HETATM   16  C   UNL     1      43.791 -10.786  11.445  1.00  0.00     0.006 C 
HETATM   17  C   UNL     1      44.710 -10.185  10.380  1.00  0.00     0.025 C 
ENDBRANCH   8  11
ENDBRANCH   1   7
BRANCH   5  18
HETATM   18  C   UNL     1      42.699 -15.466   4.602  1.00  0.00    -0.003 A 
HETATM   19  C   UNL     1      43.554 -16.544   4.308  1.00  0.00     0.050 A 
HETATM   20  C   UNL     1      43.245 -17.442   3.284  1.00  0.00     0.069 A 
HETATM   21  C   UNL     1      42.077 -17.259   2.541  1.00  0.00     0.037 A 
HETATM   22  C   UNL     1      41.223 -16.191   2.813  1.00  0.00     0.004 A 
HETATM   23  C   UNL     1      41.533 -15.297   3.840  1.00  0.00     0.014 A 
BRANCH  20  24
HETATM   24  O   UNL     1      43.990 -18.529   2.914  1.00  0.00    -0.356 OA
HETATM   25  C   UNL     1      43.312 -19.557   2.203  1.00  0.00     0.210 C 
ENDBRANCH  20  24
ENDBRANCH   5  18
TORSDOF 4
ENDMDL
MODEL 3
REMARK VINA RESULT:      -7.9      1.848      2.525
REMARK  4 active torsions:
REMARK  status: ('A' for Active; 'I' for Inactive)
REMARK    1  A    between atoms: C_5  and  N_6 
REMARK       I    between atoms: N_6  and  C_7 
REMARK    2  A    between atoms: C_7  and  C_8 
REMARK    3  A    between atoms: C_12  and  C_13 
REMARK    4  A    between atoms: C_15  and  O_16 
ROOT
HETATM    1  C   UNL     1      43.700 -12.644   6.838  1.00  0.00     0.120 A 
HETATM    2  N   UNL     1      43.186 -13.635   7.625  1.00  0.00    -0.272 N 
HETATM    3  H   UNL     1      43.110 -13.628   8.637  1.00  0.00     0.189 HD
HETATM    4  N   UNL     1      42.733 -14.699   6.946  1.00  0.00    -0.174 NA
HETATM    5  C   UNL     1      43.003 -14.422   5.660  1.00  0.00     0.089 A 
HETATM    6  C   UNL     1      43.603 -13.135   5.552  1.00  0.00     0.071 A 
ENDROOT
BRANCH   1   7
HETATM    7  C   UNL     1      44.205 -11.419   7.398  1.00  0.00     0.270 C 
HETATM    8  N   UNL     1      43.491 -10.936   8.471  1.00  0.00    -0.351 N 
HETATM    9  H   UNL     1      42.790 -11.535   8.880  1.00  0.00     0.163 HD
HETATM   10  O   UNL     1      45.204 -10.862   6.955  1.00  0.00    -0.266 OA
BRANCH   8  11
HETATM   11  C   UNL     1      43.915  -9.761   9.224  1.00  0.00     0.084 C 
HETATM   12  C   UNL     1      42.707  -8.879   9.564  1.00  0.00     0.025 C 
HETATM   13  C   UNL     1      41.809  -9.488  10.646  1.00  0.00     0.006 C 
HETATM   14  C   UNL     1      42.578  -9.897  11.910  1.00  0.00    -0.019 C 
HETATM   15  C   UNL     1      42.986  -8.676  12.740  1.00  0.00     0.010 C 
HETATM   16  C   UNL     1      43.786 -10.775  11.559  1.00  0.00     0.006 C 
HETATM   17  C   UNL     1      44.688 -10.156  10.489  1.00  0.00     0.025 C 
ENDBRANCH   8  11
ENDBRANCH   1   7
BRANCH   5  18
HETATM   18  C   UNL     1      42.680 -15.359   4.581  1.00  0.00    -0.003 A 
HETATM   19  C   UNL     1      41.535 -15.162   3.788  1.00  0.00     0.050 A 
HETATM   20  C   UNL     1      41.225 -16.040   2.748  1.00  0.00     0.069 A 
HETATM   21  C   UNL     1      42.061 -17.132   2.501  1.00  0.00     0.037 A 
HETATM   22  C   UNL     1      43.195 -17.348   3.283  1.00  0.00     0.004 A 
HETATM   23  C   UNL     1      43.504 -16.464   4.318  1.00  0.00     0.014 A 
BRANCH  20  24
HETATM   24  O   UNL     1      40.149 -15.946   1.907  1.00  0.00    -0.356 OA
HETATM   25  C   UNL     1      40.165 -14.880   0.965  1.00  0.00     0.210 C 
ENDBRANCH  20  24
ENDBRANCH   5  18
TORSDOF 4
ENDMDL
MODEL 4
REMARK VINA RESULT:      -7.6      2.282      8.896
REMARK  4 active torsions:
REMARK  status: ('A' for Active; 'I' for Inactive)
REMARK    1  A    between atoms: C_5  and  N_6 
REMARK       I    between atoms: N_6  and  C_7 
REMARK    2  A    between atoms: C_7  and  C_8 
REMARK    3  A    between atoms: C_12  and  C_13 
REMARK    4  A    between atoms: C_15  and  O_16 
ROOT
HETATM    1  C   UNL     1      42.767 -13.164   5.094  1.00  0.00     0.120 A 
HETATM    2  N   UNL     1      43.283 -12.256   4.214  1.00  0.00    -0.272 N 
HETATM    3  H   UNL     1      43.202 -12.278   3.201  1.00  0.00     0.189 HD
HETATM    4  N   UNL     1      43.940 -11.239   4.792  1.00  0.00    -0.174 NA
HETATM    5  C   UNL     1      43.899 -11.512   6.106  1.00  0.00     0.089 A 
HETATM    6  C   UNL     1      43.163 -12.709   6.335  1.00  0.00     0.071 A 
ENDROOT
BRANCH   1   7
HETATM    7  C   UNL     1      42.009 -14.302   4.648  1.00  0.00     0.270 C 
HETATM    8  N   UNL     1      42.704 -15.491   4.632  1.00  0.00    -0.351 N 
HETATM    9  H   UNL     1      43.611 -15.513   5.073  1.00  0.00     0.163 HD
HETATM   10  O   UNL     1      40.830 -14.213   4.322  1.00  0.00    -0.266 OA
BRANCH   8  11
HETATM   11  C   UNL     1      42.068 -16.761   4.302  1.00  0.00     0.084 C 
HETATM   12  C   UNL     1      41.956 -16.925   2.782  1.00  0.00     0.025 C 
HETATM   13  C   UNL     1      43.305 -17.204   2.111  1.00  0.00     0.006 C 
HETATM   14  C   UNL     1      44.064 -18.377   2.747  1.00  0.00    -0.019 C 
HETATM   15  C   UNL     1      43.440 -19.723   2.369  1.00  0.00     0.010 C 
HETATM   16  C   UNL     1      44.168 -18.206   4.268  1.00  0.00     0.006 C 
HETATM   17  C   UNL     1      42.817 -17.942   4.936  1.00  0.00     0.025 C 
ENDBRANCH   8  11
ENDBRANCH   1   7
BRANCH   5  18
HETATM   18  C   UNL     1      44.536 -10.642   7.098  1.00  0.00    -0.003 A 
HETATM   19  C   UNL     1      43.752  -9.929   8.024  1.00  0.00     0.050 A 
HETATM   20  C   UNL     1      44.348  -9.108   8.983  1.00  0.00     0.069 A 
HETATM   21  C   UNL     1      45.739  -8.989   9.014  1.00  0.00     0.037 A 
HETATM   22  C   UNL     1      46.531  -9.680   8.098  1.00  0.00     0.004 A 
HETATM   23  C   UNL     1      45.931 -10.504   7.144  1.00  0.00     0.014 A 
BRANCH  20  24
HETATM   24  O   UNL     1      43.694  -8.378   9.938  1.00  0.00    -0.356 OA
HETATM   25  C   UNL     1      43.761  -8.863  11.273  1.00  0.00     0.210 C 
ENDBRANCH  20  24
ENDBRANCH   5  18
TORSDOF 4
ENDMDL
MODEL 5
REMARK VINA RESULT:      -7.5      5.534      8.475
REMARK  4 active torsions:
REMARK  status: ('A' for Active; 'I' for Inactive)
REMARK    1  A    between atoms: C_5  and  N_6 
REMARK       I    between atoms: N_6  and  C_7 
REMARK    2  A    between atoms: C_7  and  C_8 
REMARK    3  A    between atoms: C_12  and  C_13 
REMARK    4  A    between atoms: C_15  and  O_16 
ROOT
HETATM    1  C   UNL     1      40.788 -14.539   1.708  1.00  0.00     0.120 A 
HETATM    2  N   UNL     1      41.811 -14.798   0.841  1.00  0.00    -0.272 N 
HETATM    3  H   UNL     1      41.968 -14.358  -0.061  1.00  0.00     0.189 HD
HETATM    4  N   UNL     1      42.681 -15.723   1.274  1.00  0.00    -0.174 NA
HETATM    5  C   UNL     1      42.185 -16.128   2.455  1.00  0.00     0.089 A 
HETATM    6  C   UNL     1      41.001 -15.401   2.765  1.00  0.00     0.071 A 
ENDROOT
BRANCH   1   7
HETATM    7  C   UNL     1      39.780 -13.555   1.417  1.00  0.00     0.270 C 
HETATM    8  N   UNL     1      39.593 -13.298   0.077  1.00  0.00    -0.351 N 
HETATM    9  H   UNL     1      40.039 -13.911  -0.588  1.00  0.00     0.163 HD
HETATM   10  O   UNL     1      39.134 -13.002   2.300  1.00  0.00    -0.266 OA
BRANCH   8  11
HETATM   11  C   UNL     1      38.548 -12.402  -0.406  1.00  0.00     0.084 C 
HETATM   12  C   UNL     1      39.056 -10.956  -0.442  1.00  0.00     0.025 C 
HETATM   13  C   UNL     1      40.063 -10.704  -1.569  1.00  0.00     0.006 C 
HETATM   14  C   UNL     1      39.552 -11.153  -2.946  1.00  0.00    -0.019 C 
HETATM   15  C   UNL     1      38.490 -10.194  -3.491  1.00  0.00     0.010 C 
HETATM   16  C   UNL     1      39.042 -12.599  -2.899  1.00  0.00     0.006 C 
HETATM   17  C   UNL     1      38.027 -12.842  -1.781  1.00  0.00     0.025 C 
ENDBRANCH   8  11
ENDBRANCH   1   7
BRANCH   5  18
HETATM   18  C   UNL     1      42.840 -17.168   3.253  1.00  0.00    -0.003 A 
HETATM   19  C   UNL     1      42.926 -17.038   4.652  1.00  0.00     0.050 A 
HETATM   20  C   UNL     1      43.535 -18.029   5.425  1.00  0.00     0.069 A 
HETATM   21  C   UNL     1      44.071 -19.156   4.797  1.00  0.00     0.037 A 
HETATM   22  C   UNL     1      44.001 -19.296   3.412  1.00  0.00     0.004 A 
HETATM   23  C   UNL     1      43.388 -18.306   2.643  1.00  0.00     0.014 A 
BRANCH  20  24
HETATM   24  O   UNL     1      43.669 -18.019   6.787  1.00  0.00    -0.356 OA
HETATM   25  C   UNL     1      43.743 -16.744   7.414  1.00  0.00     0.210 C 
ENDBRANCH  20  24
ENDBRANCH   5  18
TORSDOF 4
ENDMDL
MODEL 6
REMARK VINA RESULT:      -7.5      6.031      8.618
REMARK  4 active torsions:
REMARK  status: ('A' for Active; 'I' for Inactive)
REMARK    1  A    between atoms: C_5  and  N_6 
REMARK       I    between atoms: N_6  and  C_7 
REMARK    2  A    between atoms: C_7  and  C_8 
REMARK    3  A    between atoms: C_12  and  C_13 
REMARK    4  A    between atoms: C_15  and  O_16 
ROOT
HETATM    1  C   UNL     1      41.026 -14.605   0.645  1.00  0.00     0.120 A 
HETATM    2  N   UNL     1      42.039 -13.795   1.073  1.00  0.00    -0.272 N 
HETATM    3  H   UNL     1      42.218 -12.840   0.778  1.00  0.00     0.189 HD
HETATM    4  N   UNL     1      42.845 -14.356   1.987  1.00  0.00    -0.174 NA
HETATM    5  C   UNL     1      42.374 -15.605   2.134  1.00  0.00     0.089 A 
HETATM    6  C   UNL     1      41.226 -15.795   1.313  1.00  0.00     0.071 A 
ENDROOT
BRANCH   1   7
HETATM    7  C   UNL     1      40.052 -14.154  -0.313  1.00  0.00     0.270 C 
HETATM    8  N   UNL     1      40.011 -12.791  -0.500  1.00  0.00    -0.351 N 
HETATM    9  H   UNL     1      40.750 -12.236  -0.094  1.00  0.00     0.163 HD
HETATM   10  O   UNL     1      39.326 -14.934  -0.921  1.00  0.00    -0.266 OA
BRANCH   8  11
HETATM   11  C   UNL     1      39.155 -12.166  -1.503  1.00  0.00     0.084 C 
HETATM   12  C   UNL     1      38.964 -10.677  -1.189  1.00  0.00     0.025 C 
HETATM   13  C   UNL     1      40.219  -9.844  -1.462  1.00  0.00     0.006 C 
HETATM   14  C   UNL     1      40.788 -10.051  -2.872  1.00  0.00    -0.019 C 
HETATM   15  C   UNL     1      39.928  -9.357  -3.933  1.00  0.00     0.010 C 
HETATM   16  C   UNL     1      40.973 -11.543  -3.177  1.00  0.00     0.006 C 
HETATM   17  C   UNL     1      39.712 -12.370  -2.918  1.00  0.00     0.025 C 
ENDBRANCH   8  11
ENDBRANCH   1   7
BRANCH   5  18
HETATM   18  C   UNL     1      43.003 -16.569   3.041  1.00  0.00    -0.003 A 
HETATM   19  C   UNL     1      43.146 -17.915   2.657  1.00  0.00     0.050 A 
HETATM   20  C   UNL     1      43.757 -18.839   3.507  1.00  0.00     0.069 A 
HETATM   21  C   UNL     1      44.221 -18.420   4.755  1.00  0.00     0.037 A 
HETATM   22  C   UNL     1      44.080 -17.092   5.155  1.00  0.00     0.004 A 
HETATM   23  C   UNL     1      43.473 -16.169   4.301  1.00  0.00     0.014 A 
BRANCH  20  24
HETATM   24  O   UNL     1      43.961 -20.166   3.240  1.00  0.00    -0.356 OA
HETATM   25  C   UNL     1      43.789 -20.582   1.891  1.00  0.00     0.210 C 
ENDBRANCH  20  24
ENDBRANCH   5  18
TORSDOF 4
ENDMDL
MODEL 7
REMARK VINA RESULT:      -7.4      5.627      8.137
REMARK  4 active torsions:
REMARK  status: ('A' for Active; 'I' for Inactive)
REMARK    1  A    between atoms: C_5  and  N_6 
REMARK       I    between atoms: N_6  and  C_7 
REMARK    2  A    between atoms: C_7  and  C_8 
REMARK    3  A    between atoms: C_12  and  C_13 
REMARK    4  A    between atoms: C_15  and  O_16 
ROOT
HETATM    1  C   UNL     1      40.334 -14.916   0.795  1.00  0.00     0.120 A 
HETATM    2  N   UNL     1      39.523 -15.054   1.885  1.00  0.00    -0.272 N 
HETATM    3  H   UNL     1      38.577 -14.699   1.987  1.00  0.00     0.189 HD
HETATM    4  N   UNL     1      40.069 -15.749   2.895  1.00  0.00    -0.174 NA
HETATM    5  C   UNL     1      41.310 -16.041   2.472  1.00  0.00     0.089 A 
HETATM    6  C   UNL     1      41.510 -15.542   1.154  1.00  0.00     0.071 A 
ENDROOT
BRANCH   1   7
HETATM    7  C   UNL     1      39.898 -14.224  -0.388  1.00  0.00     0.270 C 
HETATM    8  N   UNL     1      40.217 -12.885  -0.427  1.00  0.00    -0.351 N 
HETATM    9  H   UNL     1      40.853 -12.531   0.272  1.00  0.00     0.163 HD
HETATM   10  O   UNL     1      39.300 -14.794  -1.294  1.00  0.00    -0.266 OA
BRANCH   8  11
HETATM   11  C   UNL     1      39.940 -12.051  -1.591  1.00  0.00     0.084 C 
HETATM   12  C   UNL     1      38.804 -11.067  -1.286  1.00  0.00     0.025 C 
HETATM   13  C   UNL     1      39.227  -9.941  -0.337  1.00  0.00     0.006 C 
HETATM   14  C   UNL     1      40.494  -9.208  -0.797  1.00  0.00    -0.019 C 
HETATM   15  C   UNL     1      40.211  -8.287  -1.988  1.00  0.00     0.010 C 
HETATM   16  C   UNL     1      41.624 -10.200  -1.103  1.00  0.00     0.006 C 
HETATM   17  C   UNL     1      41.201 -11.314  -2.063  1.00  0.00     0.025 C 
ENDBRANCH   8  11
ENDBRANCH   1   7
BRANCH   5  18
HETATM   18  C   UNL     1      42.257 -16.785   3.308  1.00  0.00    -0.003 A 
HETATM   19  C   UNL     1      42.299 -16.567   4.697  1.00  0.00     0.050 A 
HETATM   20  C   UNL     1      43.187 -17.280   5.505  1.00  0.00     0.069 A 
HETATM   21  C   UNL     1      44.049 -18.211   4.922  1.00  0.00     0.037 A 
HETATM   22  C   UNL     1      44.026 -18.433   3.546  1.00  0.00     0.004 A 
HETATM   23  C   UNL     1      43.134 -17.722   2.742  1.00  0.00     0.014 A 
BRANCH  20  24
HETATM   24  O   UNL     1      43.312 -17.163   6.864  1.00  0.00    -0.356 OA
HETATM   25  C   UNL     1      42.712 -16.022   7.465  1.00  0.00     0.210 C 
ENDBRANCH  20  24
ENDBRANCH   5  18
TORSDOF 4
ENDMDL
MODEL 8
REMARK VINA RESULT:      -7.2      2.940      9.346
REMARK  4 active torsions:
REMARK  status: ('A' for Active; 'I' for Inactive)
REMARK    1  A    between atoms: C_5  and  N_6 
REMARK       I    between atoms: N_6  and  C_7 
REMARK    2  A    between atoms: C_7  and  C_8 
REMARK    3  A    between atoms: C_12  and  C_13 
REMARK    4  A    between atoms: C_15  and  O_16 
ROOT
HETATM    1  C   UNL     1      44.542 -10.752   8.311  1.00  0.00     0.120 A 
HETATM    2  N   UNL     1      45.620 -10.519   9.117  1.00  0.00    -0.272 N 
HETATM    3  H   UNL     1      46.540 -10.942   9.038  1.00  0.00     0.189 HD
HETATM    4  N   UNL     1      45.398  -9.622  10.090  1.00  0.00    -0.174 NA
HETATM    5  C   UNL     1      44.106  -9.283   9.950  1.00  0.00     0.089 A 
HETATM    6  C   UNL     1      43.537  -9.966   8.837  1.00  0.00     0.071 A 
ENDROOT
BRANCH   1   7
HETATM    7  C   UNL     1      44.612 -11.664   7.201  1.00  0.00     0.270 C 
HETATM    8  N   UNL     1      43.601 -12.597   7.153  1.00  0.00    -0.351 N 
HETATM    9  H   UNL     1      42.819 -12.478   7.780  1.00  0.00     0.163 HD
HETATM   10  O   UNL     1      45.501 -11.599   6.359  1.00  0.00    -0.266 OA
BRANCH   8  11
HETATM   11  C   UNL     1      43.457 -13.536   6.047  1.00  0.00     0.084 C 
HETATM   12  C   UNL     1      43.675 -14.974   6.534  1.00  0.00     0.025 C 
HETATM   13  C   UNL     1      42.513 -15.498   7.384  1.00  0.00     0.006 C 
HETATM   14  C   UNL     1      41.146 -15.338   6.704  1.00  0.00    -0.019 C 
HETATM   15  C   UNL     1      40.959 -16.352   5.572  1.00  0.00     0.010 C 
HETATM   16  C   UNL     1      40.940 -13.898   6.217  1.00  0.00     0.006 C 
HETATM   17  C   UNL     1      42.095 -13.383   5.356  1.00  0.00     0.025 C 
ENDBRANCH   8  11
ENDBRANCH   1   7
BRANCH   5  18
HETATM   18  C   UNL     1      43.454  -8.328  10.850  1.00  0.00    -0.003 A 
HETATM   19  C   UNL     1      43.452  -8.550  12.239  1.00  0.00     0.050 A 
HETATM   20  C   UNL     1      42.847  -7.640  13.108  1.00  0.00     0.069 A 
HETATM   21  C   UNL     1      42.230  -6.501  12.586  1.00  0.00     0.037 A 
HETATM   22  C   UNL     1      42.214  -6.270  11.211  1.00  0.00     0.004 A 
HETATM   23  C   UNL     1      42.825  -7.179  10.346  1.00  0.00     0.014 A 
BRANCH  20  24
HETATM   24  O   UNL     1      42.790  -7.743  14.472  1.00  0.00    -0.356 OA
HETATM   25  C   UNL     1      41.554  -8.171  15.030  1.00  0.00     0.210 C 
ENDBRANCH  20  24
ENDBRANCH   5  18
TORSDOF 4
ENDMDL
MODEL 9
REMARK VINA RESULT:      -7.2      5.496      8.185
REMARK  4 active torsions:
REMARK  status: ('A' for Active; 'I' for Inactive)
REMARK    1  A    between atoms: C_5  and  N_6 
REMARK       I    between atoms: N_6  and  C_7 
REMARK    2  A    between atoms: C_7  and  C_8 
REMARK    3  A    between atoms: C_12  and  C_13 
REMARK    4  A    between atoms: C_15  and  O_16 
ROOT
HETATM    1  C   UNL     1      42.014 -13.258   1.887  1.00  0.00     0.120 A 
HETATM    2  N   UNL     1      42.007 -12.972   3.222  1.00  0.00    -0.272 N 
HETATM    3  H   UNL     1      41.732 -12.095   3.654  1.00  0.00     0.189 HD
HETATM    4  N   UNL     1      42.397 -13.989   4.006  1.00  0.00    -0.174 NA
HETATM    5  C   UNL     1      42.721 -14.972   3.151  1.00  0.00     0.089 A 
HETATM    6  C   UNL     1      42.486 -14.553   1.810  1.00  0.00     0.071 A 
ENDROOT
BRANCH   1   7
HETATM    7  C   UNL     1      41.599 -12.292   0.905  1.00  0.00     0.270 C 
HETATM    8  N   UNL     1      41.054 -12.828  -0.240  1.00  0.00    -0.351 N 
HETATM    9  H   UNL     1      40.838 -13.814  -0.244  1.00  0.00     0.163 HD
HETATM   10  O   UNL     1      41.715 -11.085   1.088  1.00  0.00    -0.266 OA
BRANCH   8  11
HETATM   11  C   UNL     1      40.490 -11.997  -1.298  1.00  0.00     0.084 C 
HETATM   12  C   UNL     1      40.172 -12.848  -2.534  1.00  0.00     0.025 C 
HETATM   13  C   UNL     1      38.957 -13.759  -2.335  1.00  0.00     0.006 C 
HETATM   14  C   UNL     1      37.714 -13.007  -1.838  1.00  0.00    -0.019 C 
HETATM   15  C   UNL     1      37.079 -12.170  -2.951  1.00  0.00     0.010 C 
HETATM   16  C   UNL     1      38.043 -12.157  -0.604  1.00  0.00     0.006 C 
HETATM   17  C   UNL     1      39.248 -11.238  -0.811  1.00  0.00     0.025 C 
ENDBRANCH   8  11
ENDBRANCH   1   7
BRANCH   5  18
HETATM   18  C   UNL     1      43.225 -16.267   3.615  1.00  0.00    -0.003 A 
HETATM   19  C   UNL     1      43.257 -17.370   2.742  1.00  0.00     0.050 A 
HETATM   20  C   UNL     1      43.749 -18.605   3.168  1.00  0.00     0.069 A 
HETATM   21  C   UNL     1      44.205 -18.745   4.480  1.00  0.00     0.037 A 
HETATM   22  C   UNL     1      44.173 -17.665   5.361  1.00  0.00     0.004 A 
HETATM   23  C   UNL     1      43.685 -16.430   4.930  1.00  0.00     0.014 A 
BRANCH  20  24
HETATM   24  O   UNL     1      43.839 -19.742   2.410  1.00  0.00    -0.356 OA
HETATM   25  C   UNL     1      43.909 -20.976   3.113  1.00  0.00     0.210 C 
ENDBRANCH  20  24
ENDBRANCH   5  18
TORSDOF 4
ENDMDL
MODEL 10
REMARK VINA RESULT:      -7.1     16.935     19.282
REMARK  4 active torsions:
REMARK  status: ('A' for Active; 'I' for Inactive)
REMARK    1  A    between atoms: C_5  and  N_6 
REMARK       I    between atoms: N_6  and  C_7 
REMARK    2  A    between atoms: C_7  and  C_8 
REMARK    3  A    between atoms: C_12  and  C_13 
REMARK    4  A    between atoms: C_15  and  O_16 
ROOT
HETATM    1  C   UNL     1      48.073 -29.288   2.116  1.00  0.00     0.120 A 
HETATM    2  N   UNL     1      49.209 -29.669   1.460  1.00  0.00    -0.272 N 
HETATM    3  H   UNL     1      49.442 -29.482   0.490  1.00  0.00     0.189 HD
HETATM    4  N   UNL     1      50.084 -30.344   2.221  1.00  0.00    -0.174 NA
HETATM    5  C   UNL     1      49.480 -30.456   3.415  1.00  0.00     0.089 A 
HETATM    6  C   UNL     1      48.218 -29.797   3.390  1.00  0.00     0.071 A 
ENDROOT
BRANCH   1   7
HETATM    7  C   UNL     1      47.040 -28.531   1.460  1.00  0.00     0.270 C 
HETATM    8  N   UNL     1      46.941 -28.742   0.103  1.00  0.00    -0.351 N 
HETATM    9  H   UNL     1      47.467 -29.505  -0.296  1.00  0.00     0.163 HD
HETATM   10  O   UNL     1      46.301 -27.769   2.073  1.00  0.00    -0.266 OA
BRANCH   8  11
HETATM   11  C   UNL     1      45.889 -28.136  -0.706  1.00  0.00     0.084 C 
HETATM   12  C   UNL     1      46.315 -28.074  -2.178  1.00  0.00     0.025 C 
HETATM   13  C   UNL     1      46.313 -29.447  -2.858  1.00  0.00     0.006 C 
HETATM   14  C   UNL     1      44.988 -30.203  -2.689  1.00  0.00    -0.019 C 
HETATM   15  C   UNL     1      43.886 -29.610  -3.571  1.00  0.00     0.010 C 
HETATM   16  C   UNL     1      44.569 -30.256  -1.214  1.00  0.00     0.006 C 
HETATM   17  C   UNL     1      44.558 -28.881  -0.543  1.00  0.00     0.025 C 
ENDBRANCH   8  11
ENDBRANCH   1   7
BRANCH   5  18
HETATM   18  C   UNL     1      50.107 -31.161   4.536  1.00  0.00    -0.003 A 
HETATM   19  C   UNL     1      51.424 -30.852   4.922  1.00  0.00     0.050 A 
HETATM   20  C   UNL     1      52.026 -31.507   5.998  1.00  0.00     0.069 A 
HETATM   21  C   UNL     1      51.312 -32.486   6.691  1.00  0.00     0.037 A 
HETATM   22  C   UNL     1      50.009 -32.812   6.317  1.00  0.00     0.004 A 
HETATM   23  C   UNL     1      49.408 -32.151   5.244  1.00  0.00     0.014 A 
BRANCH  20  24
HETATM   24  O   UNL     1      53.292 -31.285   6.470  1.00  0.00    -0.356 OA
HETATM   25  C   UNL     1      53.600 -31.822   7.751  1.00  0.00     0.210 C 
ENDBRANCH  20  24
ENDBRANCH   5  18
TORSDOF 4
ENDMDL
