MODEL 1
REMARK VINA RESULT:     -10.3      0.000      0.000
REMARK  9 active torsions:
REMARK  status: ('A' for Active; 'I' for Inactive)
REMARK    1  A    between atoms: C_4  and  C_5 
REMARK    2  A    between atoms: C_5  and  N_6 
REMARK    3  A    between atoms: C_10  and  C_11 
REMARK    4  A    between atoms: C_11  and  N_12 
REMARK       I    between atoms: N_12  and  C_13 
REMARK    5  A    between atoms: C_13  and  C_14 
REMARK    6  A    between atoms: C_14  and  C_15 
REMARK    7  A    between atoms: C_15  and  C_16 
REMARK       I    between atoms: C_16  and  N_17 
REMARK    8  A    between atoms: N_17  and  C_18 
REMARK    9  A    between atoms: C_24  and  N_25 
ROOT
HETATM    1  C   UNL     1      45.191 -10.739   7.290  1.00  0.00     0.112 C 
ENDROOT
BRANCH   1   2
HETATM    2  C   UNL     1      44.399 -12.042   7.308  1.00  0.00     0.112 C 
BRANCH   2   3
HETATM    3  C   UNL     1      43.449 -12.184   6.142  1.00  0.00     0.218 C 
HETATM    4  N   UNL     1      42.153 -12.519   6.477  1.00  0.00    -0.361 N 
HETATM    5  H   UNL     1      41.903 -12.497   7.459  1.00  0.00     0.162 HD
HETATM    6  O   UNL     1      43.802 -11.989   4.982  1.00  0.00    -0.274 OA
BRANCH   4   7
HETATM    7  C   UNL     1      41.072 -12.401   5.516  1.00  0.00     0.127 C 
BRANCH   7   8
HETATM    8  C   UNL     1      40.302 -13.713   5.260  1.00  0.00     0.006 C 
HETATM    9  C   UNL     1      40.832 -14.927   6.034  1.00  0.00     0.034 C 
HETATM   10  C   UNL     1      42.211 -15.375   5.564  1.00  0.00     0.235 C 
HETATM   11  N   UNL     1      42.144 -15.705   4.086  1.00  0.00    -0.067 N 
HETATM   12  H   UNL     1      41.477 -16.478   3.984  1.00  0.00     0.280 HD
HETATM   13  C   UNL     1      41.660 -14.546   3.254  1.00  0.00     0.235 C 
HETATM   14  C   UNL     1      40.303 -14.062   3.760  1.00  0.00     0.034 C 
BRANCH  11  15
HETATM   15  C   UNL     1      43.468 -16.233   3.555  1.00  0.00     0.273 C 
BRANCH  15  16
HETATM   16  C   UNL     1      43.499 -17.727   3.392  1.00  0.00    -0.032 A 
HETATM   17  C   UNL     1      43.930 -18.555   4.442  1.00  0.00     0.015 A 
HETATM   18  C   UNL     1      44.006 -19.944   4.274  1.00  0.00    -0.061 A 
HETATM   19  C   UNL     1      44.440 -20.835   5.403  1.00  0.00     0.048 C 
HETATM   20  C   UNL     1      43.619 -20.506   3.054  1.00  0.00     0.007 A 
HETATM   21  C   UNL     1      43.180 -19.696   2.009  1.00  0.00     0.001 A 
HETATM   22  C   UNL     1      43.122 -18.313   2.175  1.00  0.00     0.009 A 
ENDBRANCH  15  16
ENDBRANCH  11  15
ENDBRANCH   7   8
ENDBRANCH   4   7
ENDBRANCH   2   3
ENDBRANCH   1   2
BRANCH   1  23
HETATM   23  C   UNL     1      45.048 -10.006   8.615  1.00  0.00     0.222 C 
HETATM   24  N   UNL     1      43.778 -10.119   9.160  1.00  0.00    -0.327 N 
HETATM   25  H   UNL     1      43.077 -10.579   8.589  1.00  0.00     0.169 HD
HETATM   26  O   UNL     1      45.979  -9.375   9.105  1.00  0.00    -0.273 OA
BRANCH  24  27
HETATM   27  C   UNL     1      43.333  -9.566  10.382  1.00  0.00     0.035 A 
HETATM   28  C   UNL     1      43.018  -8.211  10.557  1.00  0.00     0.043 A 
HETATM   29  C   UNL     1      42.548  -7.700  11.791  1.00  0.00    -0.001 A 
HETATM   30  C   UNL     1      42.399  -8.602  12.864  1.00  0.00     0.044 A 
HETATM   31  C   UNL     1      42.209  -6.343  12.012  1.00  0.00    -0.046 A 
HETATM   32  N   UNL     1      41.928  -8.157  14.038  1.00  0.00    -0.346 N 
HETATM   33  C   UNL     1      42.732  -9.954  12.704  1.00  0.00     0.033 A 
HETATM   34  H   UNL     1      41.754  -8.806  14.797  1.00  0.00     0.167 HD
HETATM   35  C   UNL     1      41.590  -6.888  14.296  1.00  0.00     0.083 A 
HETATM   36  C   UNL     1      41.727  -5.954  13.270  1.00  0.00     0.050 A 
HETATM   37  C   UNL     1      43.204 -10.428  11.474  1.00  0.00     0.032 A 
HETATM   38  C   UNL     1      42.334  -5.304  10.927  1.00  0.00     0.049 C 
BRANCH  35  39
HETATM   39  N   UNL     1      41.074  -6.648  15.559  1.00  0.00    -0.269 NA
HETATM   40  C   UNL     1      41.417  -5.349  16.180  1.00  0.00     0.097 C 
HETATM   41  C   UNL     1      40.505  -5.098  17.380  1.00  0.00     0.015 C 
HETATM   42  C   UNL     1      40.581  -6.246  18.383  1.00  0.00     0.002 C 
HETATM   43  C   UNL     1      40.314  -7.584  17.698  1.00  0.00     0.015 C 
HETATM   44  C   UNL     1      41.232  -7.785  16.491  1.00  0.00     0.097 C 
ENDBRANCH  35  39
ENDBRANCH  24  27
ENDBRANCH   1  23
TORSDOF 9
ENDMDL
MODEL 2
REMARK VINA RESULT:     -10.1      1.143      1.835
REMARK  9 active torsions:
REMARK  status: ('A' for Active; 'I' for Inactive)
REMARK    1  A    between atoms: C_4  and  C_5 
REMARK    2  A    between atoms: C_5  and  N_6 
REMARK    3  A    between atoms: C_10  and  C_11 
REMARK    4  A    between atoms: C_11  and  N_12 
REMARK       I    between atoms: N_12  and  C_13 
REMARK    5  A    between atoms: C_13  and  C_14 
REMARK    6  A    between atoms: C_14  and  C_15 
REMARK    7  A    between atoms: C_15  and  C_16 
REMARK       I    between atoms: C_16  and  N_17 
REMARK    8  A    between atoms: N_17  and  C_18 
REMARK    9  A    between atoms: C_24  and  N_25 
ROOT
HETATM    1  C   UNL     1      44.030 -11.140   7.143  1.00  0.00     0.112 C 
ENDROOT
BRANCH   1   2
HETATM    2  C   UNL     1      44.390 -12.616   7.020  1.00  0.00     0.112 C 
BRANCH   2   3
HETATM    3  C   UNL     1      43.195 -13.508   6.774  1.00  0.00     0.218 C 
HETATM    4  N   UNL     1      42.049 -12.857   6.368  1.00  0.00    -0.361 N 
HETATM    5  H   UNL     1      42.129 -11.876   6.124  1.00  0.00     0.162 HD
HETATM    6  O   UNL     1      43.251 -14.728   6.903  1.00  0.00    -0.274 OA
BRANCH   4   7
HETATM    7  C   UNL     1      40.924 -13.586   5.812  1.00  0.00     0.127 C 
BRANCH   7   8
HETATM    8  C   UNL     1      40.442 -13.065   4.442  1.00  0.00     0.006 C 
HETATM    9  C   UNL     1      39.883 -14.147   3.508  1.00  0.00     0.034 C 
HETATM   10  C   UNL     1      40.951 -15.119   3.020  1.00  0.00     0.235 C 
HETATM   11  N   UNL     1      42.036 -14.340   2.304  1.00  0.00    -0.067 N 
HETATM   12  H   UNL     1      41.591 -13.883   1.499  1.00  0.00     0.280 HD
HETATM   13  C   UNL     1      42.656 -13.277   3.171  1.00  0.00     0.235 C 
HETATM   14  C   UNL     1      41.579 -12.334   3.704  1.00  0.00     0.034 C 
BRANCH  11  15
HETATM   15  C   UNL     1      43.105 -15.251   1.720  1.00  0.00     0.273 C 
BRANCH  15  16
HETATM   16  C   UNL     1      43.354 -16.489   2.536  1.00  0.00    -0.032 A 
HETATM   17  C   UNL     1      43.265 -17.763   1.951  1.00  0.00     0.015 A 
HETATM   18  C   UNL     1      43.448 -18.919   2.721  1.00  0.00    -0.061 A 
HETATM   19  C   UNL     1      43.382 -20.282   2.095  1.00  0.00     0.048 C 
HETATM   20  C   UNL     1      43.750 -18.792   4.081  1.00  0.00     0.007 A 
HETATM   21  C   UNL     1      43.851 -17.534   4.669  1.00  0.00     0.001 A 
HETATM   22  C   UNL     1      43.651 -16.387   3.903  1.00  0.00     0.009 A 
ENDBRANCH  15  16
ENDBRANCH  11  15
ENDBRANCH   7   8
ENDBRANCH   4   7
ENDBRANCH   2   3
ENDBRANCH   1   2
BRANCH   1  23
HETATM   23  C   UNL     1      44.221 -10.658   8.573  1.00  0.00     0.222 C 
HETATM   24  N   UNL     1      43.083 -10.067   9.099  1.00  0.00    -0.327 N 
HETATM   25  H   UNL     1      42.304  -9.935   8.464  1.00  0.00     0.169 HD
HETATM   26  O   UNL     1      45.294 -10.781   9.155  1.00  0.00    -0.273 OA
BRANCH  24  27
HETATM   27  C   UNL     1      42.935  -9.533  10.400  1.00  0.00     0.035 A 
HETATM   28  C   UNL     1      42.742  -8.171  10.667  1.00  0.00     0.043 A 
HETATM   29  C   UNL     1      42.570  -7.677  11.983  1.00  0.00    -0.001 A 
HETATM   30  C   UNL     1      42.597  -8.607  13.043  1.00  0.00     0.044 A 
HETATM   31  C   UNL     1      42.363  -6.314  12.301  1.00  0.00    -0.046 A 
HETATM   32  N   UNL     1      42.407  -8.178  14.299  1.00  0.00    -0.346 N 
HETATM   33  C   UNL     1      42.811  -9.968  12.787  1.00  0.00     0.033 A 
HETATM   34  H   UNL     1      42.359  -8.842  15.063  1.00  0.00     0.167 HD
HETATM   35  C   UNL     1      42.204  -6.903  14.651  1.00  0.00     0.083 A 
HETATM   36  C   UNL     1      42.178  -5.943  13.640  1.00  0.00     0.050 A 
HETATM   37  C   UNL     1      42.988 -10.423  11.475  1.00  0.00     0.032 A 
HETATM   38  C   UNL     1      42.318  -5.246  11.237  1.00  0.00     0.049 C 
BRANCH  35  39
HETATM   39  N   UNL     1      41.978  -6.679  15.999  1.00  0.00    -0.269 NA
HETATM   40  C   UNL     1      41.288  -7.755  16.744  1.00  0.00     0.097 C 
HETATM   41  C   UNL     1      41.433  -7.513  18.246  1.00  0.00     0.015 C 
HETATM   42  C   UNL     1      40.918  -6.131  18.636  1.00  0.00     0.002 C 
HETATM   43  C   UNL     1      41.579  -5.047  17.789  1.00  0.00     0.015 C 
HETATM   44  C   UNL     1      41.429  -5.338  16.295  1.00  0.00     0.097 C 
ENDBRANCH  35  39
ENDBRANCH  24  27
ENDBRANCH   1  23
TORSDOF 9
ENDMDL
MODEL 3
REMARK VINA RESULT:      -9.9      2.098      2.603
REMARK  9 active torsions:
REMARK  status: ('A' for Active; 'I' for Inactive)
REMARK    1  A    between atoms: C_4  and  C_5 
REMARK    2  A    between atoms: C_5  and  N_6 
REMARK    3  A    between atoms: C_10  and  C_11 
REMARK    4  A    between atoms: C_11  and  N_12 
REMARK       I    between atoms: N_12  and  C_13 
REMARK    5  A    between atoms: C_13  and  C_14 
REMARK    6  A    between atoms: C_14  and  C_15 
REMARK    7  A    between atoms: C_15  and  C_16 
REMARK       I    between atoms: C_16  and  N_17 
REMARK    8  A    between atoms: N_17  and  C_18 
REMARK    9  A    between atoms: C_24  and  N_25 
ROOT
HETATM    1  C   UNL     1      46.201 -10.542   8.187  1.00  0.00     0.112 C 
ENDROOT
BRANCH   1   2
HETATM    2  C   UNL     1      45.772 -10.837   6.754  1.00  0.00     0.112 C 
BRANCH   2   3
HETATM    3  C   UNL     1      44.507 -11.656   6.660  1.00  0.00     0.218 C 
HETATM    4  N   UNL     1      43.824 -11.549   5.467  1.00  0.00    -0.361 N 
HETATM    5  H   UNL     1      44.284 -11.063   4.706  1.00  0.00     0.162 HD
HETATM    6  O   UNL     1      44.130 -12.386   7.575  1.00  0.00    -0.274 OA
BRANCH   4   7
HETATM    7  C   UNL     1      42.773 -12.485   5.114  1.00  0.00     0.127 C 
BRANCH   7   8
HETATM    8  C   UNL     1      42.075 -12.182   3.771  1.00  0.00     0.006 C 
HETATM    9  C   UNL     1      40.618 -12.659   3.686  1.00  0.00     0.034 C 
HETATM   10  C   UNL     1      40.492 -14.178   3.671  1.00  0.00     0.235 C 
HETATM   11  N   UNL     1      41.276 -14.726   2.496  1.00  0.00    -0.067 N 
HETATM   12  H   UNL     1      40.851 -14.336   1.646  1.00  0.00     0.280 HD
HETATM   13  C   UNL     1      42.727 -14.324   2.528  1.00  0.00     0.235 C 
HETATM   14  C   UNL     1      42.854 -12.804   2.597  1.00  0.00     0.034 C 
BRANCH  11  15
HETATM   15  C   UNL     1      41.138 -16.235   2.368  1.00  0.00     0.273 C 
BRANCH  15  16
HETATM   16  C   UNL     1      42.219 -17.002   3.078  1.00  0.00    -0.032 A 
HETATM   17  C   UNL     1      42.398 -16.870   4.466  1.00  0.00     0.015 A 
HETATM   18  C   UNL     1      43.437 -17.546   5.121  1.00  0.00    -0.061 A 
HETATM   19  C   UNL     1      43.615 -17.430   6.607  1.00  0.00     0.048 C 
HETATM   20  C   UNL     1      44.281 -18.381   4.382  1.00  0.00     0.007 A 
HETATM   21  C   UNL     1      44.106 -18.527   3.008  1.00  0.00     0.001 A 
HETATM   22  C   UNL     1      43.083 -17.839   2.357  1.00  0.00     0.009 A 
ENDBRANCH  15  16
ENDBRANCH  11  15
ENDBRANCH   7   8
ENDBRANCH   4   7
ENDBRANCH   2   3
ENDBRANCH   1   2
BRANCH   1  23
HETATM   23  C   UNL     1      45.326  -9.456   8.796  1.00  0.00     0.222 C 
HETATM   24  N   UNL     1      44.411  -9.952   9.712  1.00  0.00    -0.327 N 
HETATM   25  H   UNL     1      44.359 -10.960   9.804  1.00  0.00     0.169 HD
HETATM   26  O   UNL     1      45.437  -8.280   8.464  1.00  0.00    -0.273 OA
BRANCH  24  27
HETATM   27  C   UNL     1      43.471  -9.201  10.455  1.00  0.00     0.035 A 
HETATM   28  C   UNL     1      42.152  -8.975  10.042  1.00  0.00     0.043 A 
HETATM   29  C   UNL     1      41.231  -8.240  10.827  1.00  0.00    -0.001 A 
HETATM   30  C   UNL     1      41.679  -7.731  12.063  1.00  0.00     0.044 A 
HETATM   31  C   UNL     1      39.887  -7.994  10.457  1.00  0.00    -0.046 A 
HETATM   32  N   UNL     1      40.825  -7.056  12.846  1.00  0.00    -0.346 N 
HETATM   33  C   UNL     1      43.004  -7.934  12.475  1.00  0.00     0.033 A 
HETATM   34  H   UNL     1      41.116  -6.741  13.765  1.00  0.00     0.167 HD
HETATM   35  C   UNL     1      39.547  -6.801  12.543  1.00  0.00     0.083 A 
HETATM   36  C   UNL     1      39.056  -7.275  11.328  1.00  0.00     0.050 A 
HETATM   37  C   UNL     1      43.893  -8.656  11.671  1.00  0.00     0.032 A 
HETATM   38  C   UNL     1      39.315  -8.497   9.155  1.00  0.00     0.049 C 
BRANCH  35  39
HETATM   39  N   UNL     1      38.820  -6.132  13.515  1.00  0.00    -0.269 NA
HETATM   40  C   UNL     1      38.287  -4.802  13.147  1.00  0.00     0.097 C 
HETATM   41  C   UNL     1      37.239  -4.369  14.171  1.00  0.00     0.015 C 
HETATM   42  C   UNL     1      37.810  -4.381  15.587  1.00  0.00     0.002 C 
HETATM   43  C   UNL     1      38.436  -5.736  15.907  1.00  0.00     0.015 C 
HETATM   44  C   UNL     1      39.462  -6.140  14.847  1.00  0.00     0.097 C 
ENDBRANCH  35  39
ENDBRANCH  24  27
ENDBRANCH   1  23
TORSDOF 9
ENDMDL
MODEL 4
REMARK VINA RESULT:      -9.6      1.896      2.738
REMARK  9 active torsions:
REMARK  status: ('A' for Active; 'I' for Inactive)
REMARK    1  A    between atoms: C_4  and  C_5 
REMARK    2  A    between atoms: C_5  and  N_6 
REMARK    3  A    between atoms: C_10  and  C_11 
REMARK    4  A    between atoms: C_11  and  N_12 
REMARK       I    between atoms: N_12  and  C_13 
REMARK    5  A    between atoms: C_13  and  C_14 
REMARK    6  A    between atoms: C_14  and  C_15 
REMARK    7  A    between atoms: C_15  and  C_16 
REMARK       I    between atoms: C_16  and  N_17 
REMARK    8  A    between atoms: N_17  and  C_18 
REMARK    9  A    between atoms: C_24  and  N_25 
ROOT
HETATM    1  C   UNL     1      41.215  -9.390   7.938  1.00  0.00     0.112 C 
ENDROOT
BRANCH   1   2
HETATM    2  C   UNL     1      42.585  -9.539   7.287  1.00  0.00     0.112 C 
BRANCH   2   3
HETATM    3  C   UNL     1      42.866 -10.937   6.789  1.00  0.00     0.218 C 
HETATM    4  N   UNL     1      42.155 -11.317   5.670  1.00  0.00    -0.361 N 
HETATM    5  H   UNL     1      41.624 -10.600   5.187  1.00  0.00     0.162 HD
HETATM    6  O   UNL     1      43.689 -11.672   7.329  1.00  0.00    -0.274 OA
BRANCH   4   7
HETATM    7  C   UNL     1      42.523 -12.494   4.905  1.00  0.00     0.127 C 
BRANCH   7   8
HETATM    8  C   UNL     1      41.559 -13.688   5.071  1.00  0.00     0.006 C 
HETATM    9  C   UNL     1      41.749 -14.487   6.367  1.00  0.00     0.034 C 
HETATM   10  C   UNL     1      43.067 -15.251   6.406  1.00  0.00     0.235 C 
HETATM   11  N   UNL     1      43.129 -16.189   5.217  1.00  0.00    -0.067 N 
HETATM   12  H   UNL     1      42.346 -16.846   5.315  1.00  0.00     0.280 HD
HETATM   13  C   UNL     1      42.981 -15.469   3.902  1.00  0.00     0.235 C 
HETATM   14  C   UNL     1      41.686 -14.660   3.883  1.00  0.00     0.034 C 
BRANCH  11  15
HETATM   15  C   UNL     1      44.386 -17.044   5.225  1.00  0.00     0.273 C 
BRANCH  15  16
HETATM   16  C   UNL     1      44.157 -18.457   4.767  1.00  0.00    -0.032 A 
HETATM   17  C   UNL     1      44.022 -18.756   3.401  1.00  0.00     0.015 A 
HETATM   18  C   UNL     1      43.759 -20.066   2.976  1.00  0.00    -0.061 A 
HETATM   19  C   UNL     1      43.642 -20.395   1.516  1.00  0.00     0.048 C 
HETATM   20  C   UNL     1      43.659 -21.085   3.929  1.00  0.00     0.007 A 
HETATM   21  C   UNL     1      43.802 -20.802   5.286  1.00  0.00     0.001 A 
HETATM   22  C   UNL     1      44.046 -19.495   5.705  1.00  0.00     0.009 A 
ENDBRANCH  15  16
ENDBRANCH  11  15
ENDBRANCH   7   8
ENDBRANCH   4   7
ENDBRANCH   2   3
ENDBRANCH   1   2
BRANCH   1  23
HETATM   23  C   UNL     1      41.328  -8.653   9.264  1.00  0.00     0.222 C 
HETATM   24  N   UNL     1      41.089  -9.470  10.358  1.00  0.00    -0.327 N 
HETATM   25  H   UNL     1      40.780 -10.416  10.161  1.00  0.00     0.169 HD
HETATM   26  O   UNL     1      41.584  -7.454   9.313  1.00  0.00    -0.273 OA
BRANCH  24  27
HETATM   27  C   UNL     1      41.131  -9.091  11.719  1.00  0.00     0.035 A 
HETATM   28  C   UNL     1      40.307  -8.105  12.280  1.00  0.00     0.043 A 
HETATM   29  C   UNL     1      40.359  -7.772  13.655  1.00  0.00    -0.001 A 
HETATM   30  C   UNL     1      41.277  -8.469  14.467  1.00  0.00     0.044 A 
HETATM   31  C   UNL     1      39.543  -6.791  14.267  1.00  0.00    -0.046 A 
HETATM   32  N   UNL     1      41.332  -8.199  15.779  1.00  0.00    -0.346 N 
HETATM   33  C   UNL     1      42.119  -9.441  13.910  1.00  0.00     0.033 A 
HETATM   34  H   UNL     1      41.940  -8.738  16.385  1.00  0.00     0.167 HD
HETATM   35  C   UNL     1      40.580  -7.287  16.405  1.00  0.00     0.083 A 
HETATM   36  C   UNL     1      39.662  -6.563  15.645  1.00  0.00     0.050 A 
HETATM   37  C   UNL     1      42.052  -9.741  12.545  1.00  0.00     0.032 A 
HETATM   38  C   UNL     1      38.531  -5.994  13.482  1.00  0.00     0.049 C 
BRANCH  35  39
HETATM   39  N   UNL     1      40.756  -7.201  17.777  1.00  0.00    -0.269 NA
HETATM   40  C   UNL     1      39.897  -8.070  18.612  1.00  0.00     0.097 C 
HETATM   41  C   UNL     1      40.448  -8.118  20.037  1.00  0.00     0.015 C 
HETATM   42  C   UNL     1      40.583  -6.717  20.626  1.00  0.00     0.002 C 
HETATM   43  C   UNL     1      41.396  -5.815  19.700  1.00  0.00     0.015 C 
HETATM   44  C   UNL     1      40.823  -5.813  18.281  1.00  0.00     0.097 C 
ENDBRANCH  35  39
ENDBRANCH  24  27
ENDBRANCH   1  23
TORSDOF 9
ENDMDL
MODEL 5
REMARK VINA RESULT:      -9.5      3.899     10.675
REMARK  9 active torsions:
REMARK  status: ('A' for Active; 'I' for Inactive)
REMARK    1  A    between atoms: C_4  and  C_5 
REMARK    2  A    between atoms: C_5  and  N_6 
REMARK    3  A    between atoms: C_10  and  C_11 
REMARK    4  A    between atoms: C_11  and  N_12 
REMARK       I    between atoms: N_12  and  C_13 
REMARK    5  A    between atoms: C_13  and  C_14 
REMARK    6  A    between atoms: C_14  and  C_15 
REMARK    7  A    between atoms: C_15  and  C_16 
REMARK       I    between atoms: C_16  and  N_17 
REMARK    8  A    between atoms: N_17  and  C_18 
REMARK    9  A    between atoms: C_24  and  N_25 
ROOT
HETATM    1  C   UNL     1      44.502  -9.171   8.072  1.00  0.00     0.112 C 
ENDROOT
BRANCH   1   2
HETATM    2  C   UNL     1      43.669  -9.193   9.348  1.00  0.00     0.112 C 
BRANCH   2   3
HETATM    3  C   UNL     1      42.353  -8.464   9.220  1.00  0.00     0.218 C 
HETATM    4  N   UNL     1      42.433  -7.195   8.685  1.00  0.00    -0.361 N 
HETATM    5  H   UNL     1      43.321  -6.909   8.288  1.00  0.00     0.162 HD
HETATM    6  O   UNL     1      41.285  -8.977   9.546  1.00  0.00    -0.274 OA
BRANCH   4   7
HETATM    7  C   UNL     1      41.248  -6.493   8.227  1.00  0.00     0.127 C 
BRANCH   7   8
HETATM    8  C   UNL     1      41.200  -6.252   6.703  1.00  0.00     0.006 C 
HETATM    9  C   UNL     1      39.831  -5.811   6.169  1.00  0.00     0.034 C 
HETATM   10  C   UNL     1      38.777  -6.908   6.261  1.00  0.00     0.235 C 
HETATM   11  N   UNL     1      39.258  -8.119   5.487  1.00  0.00    -0.067 N 
HETATM   12  H   UNL     1      39.365  -7.824   4.510  1.00  0.00     0.280 HD
HETATM   13  C   UNL     1      40.587  -8.630   5.978  1.00  0.00     0.235 C 
HETATM   14  C   UNL     1      41.630  -7.516   5.937  1.00  0.00     0.034 C 
BRANCH  11  15
HETATM   15  C   UNL     1      38.225  -9.235   5.468  1.00  0.00     0.273 C 
BRANCH  15  16
HETATM   16  C   UNL     1      38.757 -10.539   4.941  1.00  0.00    -0.032 A 
HETATM   17  C   UNL     1      39.099 -11.581   5.819  1.00  0.00     0.015 A 
HETATM   18  C   UNL     1      39.641 -12.779   5.332  1.00  0.00    -0.061 A 
HETATM   19  C   UNL     1      39.983 -13.906   6.264  1.00  0.00     0.048 C 
HETATM   20  C   UNL     1      39.812 -12.940   3.954  1.00  0.00     0.007 A 
HETATM   21  C   UNL     1      39.466 -11.917   3.073  1.00  0.00     0.001 A 
HETATM   22  C   UNL     1      38.943 -10.721   3.563  1.00  0.00     0.009 A 
ENDBRANCH  15  16
ENDBRANCH  11  15
ENDBRANCH   7   8
ENDBRANCH   4   7
ENDBRANCH   2   3
ENDBRANCH   1   2
BRANCH   1  23
HETATM   23  C   UNL     1      44.753 -10.585   7.570  1.00  0.00     0.222 C 
HETATM   24  N   UNL     1      43.601 -11.208   7.116  1.00  0.00    -0.327 N 
HETATM   25  H   UNL     1      42.730 -10.709   7.253  1.00  0.00     0.169 HD
HETATM   26  O   UNL     1      45.871 -11.090   7.603  1.00  0.00    -0.273 OA
BRANCH  24  27
HETATM   27  C   UNL     1      43.504 -12.512   6.579  1.00  0.00     0.035 A 
HETATM   28  C   UNL     1      43.337 -12.784   5.215  1.00  0.00     0.043 A 
HETATM   29  C   UNL     1      43.272 -14.106   4.711  1.00  0.00    -0.001 A 
HETATM   30  C   UNL     1      43.382 -15.167   5.633  1.00  0.00     0.044 A 
HETATM   31  C   UNL     1      43.113 -14.429   3.342  1.00  0.00    -0.046 A 
HETATM   32  N   UNL     1      43.354 -16.431   5.187  1.00  0.00    -0.346 N 
HETATM   33  C   UNL     1      43.528 -14.905   7.002  1.00  0.00     0.033 A 
HETATM   34  H   UNL     1      43.498 -17.202   5.830  1.00  0.00     0.167 HD
HETATM   35  C   UNL     1      43.211 -16.788   3.905  1.00  0.00     0.083 A 
HETATM   36  C   UNL     1      43.088 -15.776   2.955  1.00  0.00     0.050 A 
HETATM   37  C   UNL     1      43.579 -13.587   7.470  1.00  0.00     0.032 A 
HETATM   38  C   UNL     1      42.985 -13.364   2.282  1.00  0.00     0.049 C 
BRANCH  35  39
HETATM   39  N   UNL     1      43.260 -18.149   3.651  1.00  0.00    -0.269 NA
HETATM   40  C   UNL     1      44.247 -18.934   4.426  1.00  0.00     0.097 C 
HETATM   41  C   UNL     1      43.935 -20.424   4.292  1.00  0.00     0.015 C 
HETATM   42  C   UNL     1      43.893 -20.851   2.827  1.00  0.00     0.002 C 
HETATM   43  C   UNL     1      42.937 -19.966   2.031  1.00  0.00     0.015 C 
HETATM   44  C   UNL     1      43.271 -18.484   2.210  1.00  0.00     0.097 C 
ENDBRANCH  35  39
ENDBRANCH  24  27
ENDBRANCH   1  23
TORSDOF 9
ENDMDL
MODEL 6
REMARK VINA RESULT:      -9.5      1.684      2.502
REMARK  9 active torsions:
REMARK  status: ('A' for Active; 'I' for Inactive)
REMARK    1  A    between atoms: C_4  and  C_5 
REMARK    2  A    between atoms: C_5  and  N_6 
REMARK    3  A    between atoms: C_10  and  C_11 
REMARK    4  A    between atoms: C_11  and  N_12 
REMARK       I    between atoms: N_12  and  C_13 
REMARK    5  A    between atoms: C_13  and  C_14 
REMARK    6  A    between atoms: C_14  and  C_15 
REMARK    7  A    between atoms: C_15  and  C_16 
REMARK       I    between atoms: C_16  and  N_17 
REMARK    8  A    between atoms: N_17  and  C_18 
REMARK    9  A    between atoms: C_24  and  N_25 
ROOT
HETATM    1  C   UNL     1      45.294 -10.531   7.406  1.00  0.00     0.112 C 
ENDROOT
BRANCH   1   2
HETATM    2  C   UNL     1      44.115 -11.477   7.606  1.00  0.00     0.112 C 
BRANCH   2   3
HETATM    3  C   UNL     1      43.206 -11.568   6.403  1.00  0.00     0.218 C 
HETATM    4  N   UNL     1      42.155 -12.453   6.525  1.00  0.00    -0.361 N 
HETATM    5  H   UNL     1      41.985 -12.855   7.441  1.00  0.00     0.162 HD
HETATM    6  O   UNL     1      43.378 -10.882   5.399  1.00  0.00    -0.274 OA
BRANCH   4   7
HETATM    7  C   UNL     1      41.042 -12.436   5.595  1.00  0.00     0.127 C 
BRANCH   7   8
HETATM    8  C   UNL     1      40.315 -13.789   5.446  1.00  0.00     0.006 C 
HETATM    9  C   UNL     1      40.910 -14.929   6.284  1.00  0.00     0.034 C 
HETATM   10  C   UNL     1      42.292 -15.359   5.806  1.00  0.00     0.235 C 
HETATM   11  N   UNL     1      42.200 -15.789   4.356  1.00  0.00    -0.067 N 
HETATM   12  H   UNL     1      41.559 -16.590   4.323  1.00  0.00     0.280 HD
HETATM   13  C   UNL     1      41.653 -14.706   3.464  1.00  0.00     0.235 C 
HETATM   14  C   UNL     1      40.291 -14.238   3.973  1.00  0.00     0.034 C 
BRANCH  11  15
HETATM   15  C   UNL     1      43.529 -16.304   3.825  1.00  0.00     0.273 C 
BRANCH  15  16
HETATM   16  C   UNL     1      43.534 -17.781   3.546  1.00  0.00    -0.032 A 
HETATM   17  C   UNL     1      43.973 -18.693   4.521  1.00  0.00     0.015 A 
HETATM   18  C   UNL     1      44.026 -20.066   4.245  1.00  0.00    -0.061 A 
HETATM   19  C   UNL     1      44.468 -21.048   5.292  1.00  0.00     0.048 C 
HETATM   20  C   UNL     1      43.607 -20.527   2.993  1.00  0.00     0.007 A 
HETATM   21  C   UNL     1      43.159 -19.633   2.023  1.00  0.00     0.001 A 
HETATM   22  C   UNL     1      43.125 -18.266   2.296  1.00  0.00     0.009 A 
ENDBRANCH  15  16
ENDBRANCH  11  15
ENDBRANCH   7   8
ENDBRANCH   4   7
ENDBRANCH   2   3
ENDBRANCH   1   2
BRANCH   1  23
HETATM   23  C   UNL     1      45.136  -9.288   8.269  1.00  0.00     0.222 C 
HETATM   24  N   UNL     1      43.839  -9.109   8.724  1.00  0.00    -0.327 N 
HETATM   25  H   UNL     1      43.138  -9.748   8.366  1.00  0.00     0.169 HD
HETATM   26  O   UNL     1      46.081  -8.538   8.494  1.00  0.00    -0.273 OA
BRANCH  24  27
HETATM   27  C   UNL     1      43.374  -8.062   9.553  1.00  0.00     0.035 A 
HETATM   28  C   UNL     1      43.123  -8.206  10.924  1.00  0.00     0.043 A 
HETATM   29  C   UNL     1      42.683  -7.126  11.728  1.00  0.00    -0.001 A 
HETATM   30  C   UNL     1      42.501  -5.874  11.105  1.00  0.00     0.044 A 
HETATM   31  C   UNL     1      42.426  -7.220  13.116  1.00  0.00    -0.046 A 
HETATM   32  N   UNL     1      42.114  -4.822  11.842  1.00  0.00    -0.346 N 
HETATM   33  C   UNL     1      42.729  -5.727   9.730  1.00  0.00     0.033 A 
HETATM   34  H   UNL     1      42.042  -3.903  11.420  1.00  0.00     0.167 HD
HETATM   35  C   UNL     1      41.863  -4.859  13.155  1.00  0.00     0.083 A 
HETATM   36  C   UNL     1      42.020  -6.076  13.817  1.00  0.00     0.050 A 
HETATM   37  C   UNL     1      43.153  -6.816   8.961  1.00  0.00     0.032 A 
HETATM   38  C   UNL     1      42.592  -8.515  13.871  1.00  0.00     0.049 C 
BRANCH  35  39
HETATM   39  N   UNL     1      41.525  -3.648  13.737  1.00  0.00    -0.269 NA
HETATM   40  C   UNL     1      42.437  -2.511  13.480  1.00  0.00     0.097 C 
HETATM   41  C   UNL     1      41.753  -1.205  13.881  1.00  0.00     0.015 C 
HETATM   42  C   UNL     1      41.291  -1.246  15.335  1.00  0.00     0.002 C 
HETATM   43  C   UNL     1      40.428  -2.477  15.596  1.00  0.00     0.015 C 
HETATM   44  C   UNL     1      41.141  -3.759  15.161  1.00  0.00     0.097 C 
ENDBRANCH  35  39
ENDBRANCH  24  27
ENDBRANCH   1  23
TORSDOF 9
ENDMDL
MODEL 7
REMARK VINA RESULT:      -9.4      2.352     13.348
REMARK  9 active torsions:
REMARK  status: ('A' for Active; 'I' for Inactive)
REMARK    1  A    between atoms: C_4  and  C_5 
REMARK    2  A    between atoms: C_5  and  N_6 
REMARK    3  A    between atoms: C_10  and  C_11 
REMARK    4  A    between atoms: C_11  and  N_12 
REMARK       I    between atoms: N_12  and  C_13 
REMARK    5  A    between atoms: C_13  and  C_14 
REMARK    6  A    between atoms: C_14  and  C_15 
REMARK    7  A    between atoms: C_15  and  C_16 
REMARK       I    between atoms: C_16  and  N_17 
REMARK    8  A    between atoms: N_17  and  C_18 
REMARK    9  A    between atoms: C_24  and  N_25 
ROOT
HETATM    1  C   UNL     1      38.964  -9.311   6.157  1.00  0.00     0.112 C 
ENDROOT
BRANCH   1   2
HETATM    2  C   UNL     1      39.855  -8.545   7.128  1.00  0.00     0.112 C 
BRANCH   2   3
HETATM    3  C   UNL     1      39.476  -8.745   8.577  1.00  0.00     0.218 C 
HETATM    4  N   UNL     1      40.362  -9.500   9.317  1.00  0.00    -0.361 N 
HETATM    5  H   UNL     1      41.251  -9.731   8.890  1.00  0.00     0.162 HD
HETATM    6  O   UNL     1      38.464  -8.247   9.064  1.00  0.00    -0.274 OA
BRANCH   4   7
HETATM    7  C   UNL     1      40.297  -9.531  10.767  1.00  0.00     0.127 C 
BRANCH   7   8
HETATM    8  C   UNL     1      41.661  -9.732  11.460  1.00  0.00     0.006 C 
HETATM    9  C   UNL     1      41.589  -9.856  12.989  1.00  0.00     0.034 C 
HETATM   10  C   UNL     1      41.174  -8.557  13.670  1.00  0.00     0.235 C 
HETATM   11  N   UNL     1      42.158  -7.467  13.295  1.00  0.00    -0.067 N 
HETATM   12  H   UNL     1      43.077  -7.763  13.645  1.00  0.00     0.280 HD
HETATM   13  C   UNL     1      42.260  -7.265  11.806  1.00  0.00     0.235 C 
HETATM   14  C   UNL     1      42.623  -8.579  11.117  1.00  0.00     0.034 C 
BRANCH  11  15
HETATM   15  C   UNL     1      41.855  -6.153  13.998  1.00  0.00     0.273 C 
BRANCH  15  16
HETATM   16  C   UNL     1      41.315  -6.325  15.390  1.00  0.00    -0.032 A 
HETATM   17  C   UNL     1      42.167  -6.677  16.451  1.00  0.00     0.015 A 
HETATM   18  C   UNL     1      41.657  -6.886  17.740  1.00  0.00    -0.061 A 
HETATM   19  C   UNL     1      42.567  -7.235  18.882  1.00  0.00     0.048 C 
HETATM   20  C   UNL     1      40.289  -6.712  17.969  1.00  0.00     0.007 A 
HETATM   21  C   UNL     1      39.437  -6.352  16.927  1.00  0.00     0.001 A 
HETATM   22  C   UNL     1      39.945  -6.163  15.643  1.00  0.00     0.009 A 
ENDBRANCH  15  16
ENDBRANCH  11  15
ENDBRANCH   7   8
ENDBRANCH   4   7
ENDBRANCH   2   3
ENDBRANCH   1   2
BRANCH   1  23
HETATM   23  C   UNL     1      39.343 -10.784   6.129  1.00  0.00     0.222 C 
HETATM   24  N   UNL     1      40.070 -11.133   5.002  1.00  0.00    -0.327 N 
HETATM   25  H   UNL     1      40.184 -10.416   4.294  1.00  0.00     0.169 HD
HETATM   26  O   UNL     1      39.000 -11.552   7.022  1.00  0.00    -0.273 OA
BRANCH  24  27
HETATM   27  C   UNL     1      40.579 -12.414   4.690  1.00  0.00     0.035 A 
HETATM   28  C   UNL     1      41.667 -13.003   5.348  1.00  0.00     0.043 A 
HETATM   29  C   UNL     1      42.130 -14.302   5.025  1.00  0.00    -0.001 A 
HETATM   30  C   UNL     1      41.457 -15.006   4.006  1.00  0.00     0.044 A 
HETATM   31  C   UNL     1      43.218 -14.941   5.667  1.00  0.00    -0.046 A 
HETATM   32  N   UNL     1      41.851 -16.250   3.695  1.00  0.00    -0.346 N 
HETATM   33  C   UNL     1      40.381 -14.417   3.328  1.00  0.00     0.033 A 
HETATM   34  H   UNL     1      41.335 -16.792   3.011  1.00  0.00     0.167 HD
HETATM   35  C   UNL     1      42.868 -16.898   4.274  1.00  0.00     0.083 A 
HETATM   36  C   UNL     1      43.572 -16.242   5.282  1.00  0.00     0.050 A 
HETATM   37  C   UNL     1      39.953 -13.127   3.663  1.00  0.00     0.032 A 
HETATM   38  C   UNL     1      44.000 -14.269   6.768  1.00  0.00     0.049 C 
BRANCH  35  39
HETATM   39  N   UNL     1      43.077 -18.198   3.842  1.00  0.00    -0.269 NA
HETATM   40  C   UNL     1      44.155 -18.956   4.515  1.00  0.00     0.097 C 
HETATM   41  C   UNL     1      44.021 -20.442   4.182  1.00  0.00     0.015 C 
HETATM   42  C   UNL     1      44.020 -20.673   2.673  1.00  0.00     0.002 C 
HETATM   43  C   UNL     1      42.961 -19.810   1.993  1.00  0.00     0.015 C 
HETATM   44  C   UNL     1      43.117 -18.336   2.370  1.00  0.00     0.097 C 
ENDBRANCH  35  39
ENDBRANCH  24  27
ENDBRANCH   1  23
TORSDOF 9
ENDMDL
MODEL 8
REMARK VINA RESULT:      -9.4      2.131      3.029
REMARK  9 active torsions:
REMARK  status: ('A' for Active; 'I' for Inactive)
REMARK    1  A    between atoms: C_4  and  C_5 
REMARK    2  A    between atoms: C_5  and  N_6 
REMARK    3  A    between atoms: C_10  and  C_11 
REMARK    4  A    between atoms: C_11  and  N_12 
REMARK       I    between atoms: N_12  and  C_13 
REMARK    5  A    between atoms: C_13  and  C_14 
REMARK    6  A    between atoms: C_14  and  C_15 
REMARK    7  A    between atoms: C_15  and  C_16 
REMARK       I    between atoms: C_16  and  N_17 
REMARK    8  A    between atoms: N_17  and  C_18 
REMARK    9  A    between atoms: C_24  and  N_25 
ROOT
HETATM    1  C   UNL     1      40.300  -8.917   5.151  1.00  0.00     0.112 C 
ENDROOT
BRANCH   1   2
HETATM    2  C   UNL     1      41.435  -9.909   4.921  1.00  0.00     0.112 C 
BRANCH   2   3
HETATM    3  C   UNL     1      41.043 -11.343   5.188  1.00  0.00     0.218 C 
HETATM    4  N   UNL     1      40.260 -11.930   4.217  1.00  0.00    -0.361 N 
HETATM    5  H   UNL     1      40.133 -11.423   3.348  1.00  0.00     0.162 HD
HETATM    6  O   UNL     1      41.419 -11.950   6.189  1.00  0.00    -0.274 OA
BRANCH   4   7
HETATM    7  C   UNL     1      40.054 -13.366   4.179  1.00  0.00     0.127 C 
BRANCH   7   8
HETATM    8  C   UNL     1      40.630 -14.060   2.926  1.00  0.00     0.006 C 
HETATM    9  C   UNL     1      40.435 -15.582   2.893  1.00  0.00     0.034 C 
HETATM   10  C   UNL     1      41.254 -16.308   3.953  1.00  0.00     0.235 C 
HETATM   11  N   UNL     1      42.720 -15.979   3.756  1.00  0.00    -0.067 N 
HETATM   12  H   UNL     1      42.978 -16.324   2.824  1.00  0.00     0.280 HD
HETATM   13  C   UNL     1      42.994 -14.499   3.808  1.00  0.00     0.235 C 
HETATM   14  C   UNL     1      42.134 -13.765   2.782  1.00  0.00     0.034 C 
BRANCH  11  15
HETATM   15  C   UNL     1      43.613 -16.728   4.732  1.00  0.00     0.273 C 
BRANCH  15  16
HETATM   16  C   UNL     1      43.734 -18.196   4.434  1.00  0.00    -0.032 A 
HETATM   17  C   UNL     1      43.638 -18.671   3.115  1.00  0.00     0.015 A 
HETATM   18  C   UNL     1      43.701 -20.044   2.841  1.00  0.00    -0.061 A 
HETATM   19  C   UNL     1      43.626 -20.553   1.431  1.00  0.00     0.048 C 
HETATM   20  C   UNL     1      43.892 -20.942   3.896  1.00  0.00     0.007 A 
HETATM   21  C   UNL     1      44.000 -20.482   5.206  1.00  0.00     0.001 A 
HETATM   22  C   UNL     1      43.919 -19.117   5.476  1.00  0.00     0.009 A 
ENDBRANCH  15  16
ENDBRANCH  11  15
ENDBRANCH   7   8
ENDBRANCH   4   7
ENDBRANCH   2   3
ENDBRANCH   1   2
BRANCH   1  23
HETATM   23  C   UNL     1      40.505  -8.162   6.456  1.00  0.00     0.222 C 
HETATM   24  N   UNL     1      40.384  -8.972   7.574  1.00  0.00    -0.327 N 
HETATM   25  H   UNL     1      40.086  -9.928   7.412  1.00  0.00     0.169 HD
HETATM   26  O   UNL     1      40.731  -6.956   6.471  1.00  0.00    -0.273 OA
BRANCH  24  27
HETATM   27  C   UNL     1      40.531  -8.576   8.923  1.00  0.00     0.035 A 
HETATM   28  C   UNL     1      41.700  -8.770   9.670  1.00  0.00     0.043 A 
HETATM   29  C   UNL     1      41.818  -8.334  11.012  1.00  0.00    -0.001 A 
HETATM   30  C   UNL     1      40.710  -7.684  11.593  1.00  0.00     0.044 A 
HETATM   31  C   UNL     1      42.980  -8.499  11.803  1.00  0.00    -0.046 A 
HETATM   32  N   UNL     1      40.798  -7.231  12.852  1.00  0.00    -0.346 N 
HETATM   33  C   UNL     1      39.529  -7.505  10.860  1.00  0.00     0.033 A 
HETATM   34  H   UNL     1      40.033  -6.706  13.260  1.00  0.00     0.167 HD
HETATM   35  C   UNL     1      41.873  -7.359  13.638  1.00  0.00     0.083 A 
HETATM   36  C   UNL     1      42.993  -8.002  13.114  1.00  0.00     0.050 A 
HETATM   37  C   UNL     1      39.439  -7.957   9.538  1.00  0.00     0.032 A 
HETATM   38  C   UNL     1      44.216  -9.181  11.271  1.00  0.00     0.049 C 
BRANCH  35  39
HETATM   39  N   UNL     1      41.776  -6.774  14.890  1.00  0.00    -0.269 NA
HETATM   40  C   UNL     1      41.690  -7.693  16.047  1.00  0.00     0.097 C 
HETATM   41  C   UNL     1      41.944  -6.915  17.338  1.00  0.00     0.015 C 
HETATM   42  C   UNL     1      40.981  -5.739  17.474  1.00  0.00     0.002 C 
HETATM   43  C   UNL     1      41.021  -4.858  16.228  1.00  0.00     0.015 C 
HETATM   44  C   UNL     1      40.785  -5.678  14.959  1.00  0.00     0.097 C 
ENDBRANCH  35  39
ENDBRANCH  24  27
ENDBRANCH   1  23
TORSDOF 9
ENDMDL
MODEL 9
REMARK VINA RESULT:      -9.2      2.525      3.317
REMARK  9 active torsions:
REMARK  status: ('A' for Active; 'I' for Inactive)
REMARK    1  A    between atoms: C_4  and  C_5 
REMARK    2  A    between atoms: C_5  and  N_6 
REMARK    3  A    between atoms: C_10  and  C_11 
REMARK    4  A    between atoms: C_11  and  N_12 
REMARK       I    between atoms: N_12  and  C_13 
REMARK    5  A    between atoms: C_13  and  C_14 
REMARK    6  A    between atoms: C_14  and  C_15 
REMARK    7  A    between atoms: C_15  and  C_16 
REMARK       I    between atoms: C_16  and  N_17 
REMARK    8  A    between atoms: N_17  and  C_18 
REMARK    9  A    between atoms: C_24  and  N_25 
ROOT
HETATM    1  C   UNL     1      39.451  -7.882   7.288  1.00  0.00     0.112 C 
ENDROOT
BRANCH   1   2
HETATM    2  C   UNL     1      40.821  -8.443   6.925  1.00  0.00     0.112 C 
BRANCH   2   3
HETATM    3  C   UNL     1      40.756  -9.744   6.162  1.00  0.00     0.218 C 
HETATM    4  N   UNL     1      41.308  -9.713   4.898  1.00  0.00    -0.361 N 
HETATM    5  H   UNL     1      41.837  -8.888   4.638  1.00  0.00     0.162 HD
HETATM    6  O   UNL     1      40.269 -10.763   6.645  1.00  0.00    -0.274 OA
BRANCH   4   7
HETATM    7  C   UNL     1      41.588 -10.935   4.167  1.00  0.00     0.127 C 
BRANCH   7   8
HETATM    8  C   UNL     1      42.907 -11.629   4.569  1.00  0.00     0.006 C 
HETATM    9  C   UNL     1      43.762 -12.108   3.388  1.00  0.00     0.034 C 
HETATM   10  C   UNL     1      43.123 -13.260   2.621  1.00  0.00     0.235 C 
HETATM   11  N   UNL     1      42.880 -14.413   3.574  1.00  0.00    -0.067 N 
HETATM   12  H   UNL     1      43.799 -14.703   3.929  1.00  0.00     0.280 HD
HETATM   13  C   UNL     1      42.019 -14.025   4.747  1.00  0.00     0.235 C 
HETATM   14  C   UNL     1      42.632 -12.836   5.484  1.00  0.00     0.034 C 
BRANCH  11  15
HETATM   15  C   UNL     1      42.310 -15.632   2.867  1.00  0.00     0.273 C 
BRANCH  15  16
HETATM   16  C   UNL     1      42.998 -16.918   3.233  1.00  0.00    -0.032 A 
HETATM   17  C   UNL     1      42.981 -18.016   2.356  1.00  0.00     0.015 A 
HETATM   18  C   UNL     1      43.578 -19.230   2.718  1.00  0.00    -0.061 A 
HETATM   19  C   UNL     1      43.587 -20.398   1.773  1.00  0.00     0.048 C 
HETATM   20  C   UNL     1      44.223 -19.332   3.955  1.00  0.00     0.007 A 
HETATM   21  C   UNL     1      44.256 -18.247   4.827  1.00  0.00     0.001 A 
HETATM   22  C   UNL     1      43.645 -17.046   4.471  1.00  0.00     0.009 A 
ENDBRANCH  15  16
ENDBRANCH  11  15
ENDBRANCH   7   8
ENDBRANCH   4   7
ENDBRANCH   2   3
ENDBRANCH   1   2
BRANCH   1  23
HETATM   23  C   UNL     1      39.301  -7.765   8.797  1.00  0.00     0.222 C 
HETATM   24  N   UNL     1      40.419  -8.210   9.486  1.00  0.00    -0.327 N 
HETATM   25  H   UNL     1      41.152  -8.642   8.933  1.00  0.00     0.169 HD
HETATM   26  O   UNL     1      38.273  -7.336   9.310  1.00  0.00    -0.273 OA
BRANCH  24  27
HETATM   27  C   UNL     1      40.597  -8.221  10.888  1.00  0.00     0.035 A 
HETATM   28  C   UNL     1      41.092  -7.133  11.620  1.00  0.00     0.043 A 
HETATM   29  C   UNL     1      41.230  -7.172  13.029  1.00  0.00    -0.001 A 
HETATM   30  C   UNL     1      40.848  -8.355  13.695  1.00  0.00     0.044 A 
HETATM   31  C   UNL     1      41.716  -6.098  13.811  1.00  0.00    -0.046 A 
HETATM   32  N   UNL     1      40.937  -8.415  15.032  1.00  0.00    -0.346 N 
HETATM   33  C   UNL     1      40.371  -9.455  12.969  1.00  0.00     0.033 A 
HETATM   34  H   UNL     1      40.605  -9.235  15.528  1.00  0.00     0.167 HD
HETATM   35  C   UNL     1      41.385  -7.428  15.815  1.00  0.00     0.083 A 
HETATM   36  C   UNL     1      41.784  -6.240  15.204  1.00  0.00     0.050 A 
HETATM   37  C   UNL     1      40.257  -9.389  11.575  1.00  0.00     0.032 A 
HETATM   38  C   UNL     1      42.149  -4.793  13.190  1.00  0.00     0.049 C 
BRANCH  35  39
HETATM   39  N   UNL     1      41.347  -7.676  17.177  1.00  0.00    -0.269 NA
HETATM   40  C   UNL     1      40.007  -7.779  17.796  1.00  0.00     0.097 C 
HETATM   41  C   UNL     1      40.132  -8.393  19.190  1.00  0.00     0.015 C 
HETATM   42  C   UNL     1      41.101  -7.598  20.060  1.00  0.00     0.002 C 
HETATM   43  C   UNL     1      42.446  -7.427  19.359  1.00  0.00     0.015 C 
HETATM   44  C   UNL     1      42.273  -6.830  17.961  1.00  0.00     0.097 C 
ENDBRANCH  35  39
ENDBRANCH  24  27
ENDBRANCH   1  23
TORSDOF 9
ENDMDL
MODEL 10
REMARK VINA RESULT:      -9.2      2.130     13.655
REMARK  9 active torsions:
REMARK  status: ('A' for Active; 'I' for Inactive)
REMARK    1  A    between atoms: C_4  and  C_5 
REMARK    2  A    between atoms: C_5  and  N_6 
REMARK    3  A    between atoms: C_10  and  C_11 
REMARK    4  A    between atoms: C_11  and  N_12 
REMARK       I    between atoms: N_12  and  C_13 
REMARK    5  A    between atoms: C_13  and  C_14 
REMARK    6  A    between atoms: C_14  and  C_15 
REMARK    7  A    between atoms: C_15  and  C_16 
REMARK       I    between atoms: C_16  and  N_17 
REMARK    8  A    between atoms: N_17  and  C_18 
REMARK    9  A    between atoms: C_24  and  N_25 
ROOT
HETATM    1  C   UNL     1      43.255  -7.381   9.207  1.00  0.00     0.112 C 
ENDROOT
BRANCH   1   2
HETATM    2  C   UNL     1      41.952  -6.635   8.946  1.00  0.00     0.112 C 
BRANCH   2   3
HETATM    3  C   UNL     1      41.194  -6.288  10.206  1.00  0.00     0.218 C 
HETATM    4  N   UNL     1      41.669  -6.878  11.359  1.00  0.00    -0.361 N 
HETATM    5  H   UNL     1      42.556  -7.366  11.304  1.00  0.00     0.162 HD
HETATM    6  O   UNL     1      40.240  -5.514  10.205  1.00  0.00    -0.274 OA
BRANCH   4   7
HETATM    7  C   UNL     1      41.247  -6.420  12.669  1.00  0.00     0.127 C 
BRANCH   7   8
HETATM    8  C   UNL     1      40.283  -7.380  13.400  1.00  0.00     0.006 C 
HETATM    9  C   UNL     1      39.241  -6.685  14.287  1.00  0.00     0.034 C 
HETATM   10  C   UNL     1      39.855  -6.007  15.505  1.00  0.00     0.235 C 
HETATM   11  N   UNL     1      40.606  -7.042  16.319  1.00  0.00    -0.067 N 
HETATM   12  H   UNL     1      39.916  -7.739  16.623  1.00  0.00     0.280 HD
HETATM   13  C   UNL     1      41.672  -7.745  15.521  1.00  0.00     0.235 C 
HETATM   14  C   UNL     1      41.065  -8.380  14.271  1.00  0.00     0.034 C 
BRANCH  11  15
HETATM   15  C   UNL     1      41.188  -6.456  17.596  1.00  0.00     0.273 C 
BRANCH  15  16
HETATM   16  C   UNL     1      40.527  -6.963  18.847  1.00  0.00    -0.032 A 
HETATM   17  C   UNL     1      40.598  -6.230  20.044  1.00  0.00     0.015 A 
HETATM   18  C   UNL     1      40.025  -6.725  21.223  1.00  0.00    -0.061 A 
HETATM   19  C   UNL     1      40.074  -5.932  22.497  1.00  0.00     0.048 C 
HETATM   20  C   UNL     1      39.351  -7.950  21.192  1.00  0.00     0.007 A 
HETATM   21  C   UNL     1      39.265  -8.681  20.008  1.00  0.00     0.001 A 
HETATM   22  C   UNL     1      39.852  -8.193  18.842  1.00  0.00     0.009 A 
ENDBRANCH  15  16
ENDBRANCH  11  15
ENDBRANCH   7   8
ENDBRANCH   4   7
ENDBRANCH   2   3
ENDBRANCH   1   2
BRANCH   1  23
HETATM   23  C   UNL     1      43.079  -8.872   8.959  1.00  0.00     0.222 C 
HETATM   24  N   UNL     1      43.449  -9.253   7.679  1.00  0.00    -0.327 N 
HETATM   25  H   UNL     1      43.697  -8.509   7.036  1.00  0.00     0.169 HD
HETATM   26  O   UNL     1      42.631  -9.619   9.823  1.00  0.00    -0.273 OA
BRANCH  24  27
HETATM   27  C   UNL     1      43.416 -10.562   7.146  1.00  0.00     0.035 A 
HETATM   28  C   UNL     1      42.293 -11.122   6.522  1.00  0.00     0.043 A 
HETATM   29  C   UNL     1      42.307 -12.428   5.975  1.00  0.00    -0.001 A 
HETATM   30  C   UNL     1      43.502 -13.170   6.074  1.00  0.00     0.044 A 
HETATM   31  C   UNL     1      41.202 -13.032   5.328  1.00  0.00    -0.046 A 
HETATM   32  N   UNL     1      43.559 -14.399   5.541  1.00  0.00    -0.346 N 
HETATM   33  C   UNL     1      44.622 -12.626   6.716  1.00  0.00     0.033 A 
HETATM   34  H   UNL     1      44.430 -14.917   5.547  1.00  0.00     0.167 HD
HETATM   35  C   UNL     1      42.546 -15.011   4.917  1.00  0.00     0.083 A 
HETATM   36  C   UNL     1      41.339 -14.323   4.800  1.00  0.00     0.050 A 
HETATM   37  C   UNL     1      44.574 -11.335   7.255  1.00  0.00     0.032 A 
HETATM   38  C   UNL     1      39.882 -12.318   5.174  1.00  0.00     0.049 C 
BRANCH  35  39
HETATM   39  N   UNL     1      42.830 -16.261   4.391  1.00  0.00    -0.269 NA
HETATM   40  C   UNL     1      44.001 -16.968   4.956  1.00  0.00     0.097 C 
HETATM   41  C   UNL     1      43.965 -18.436   4.536  1.00  0.00     0.015 C 
HETATM   42  C   UNL     1      43.893 -18.577   3.018  1.00  0.00     0.002 C 
HETATM   43  C   UNL     1      42.732 -17.764   2.452  1.00  0.00     0.015 C 
HETATM   44  C   UNL     1      42.794 -16.307   2.914  1.00  0.00     0.097 C 
ENDBRANCH  35  39
ENDBRANCH  24  27
ENDBRANCH   1  23
TORSDOF 9
ENDMDL
