MODEL 1
REMARK VINA RESULT:      -8.9      0.000      0.000
REMARK  4 active torsions:
REMARK  status: ('A' for Active; 'I' for Inactive)
REMARK    1  A    between atoms: C_3  and  N_4 
REMARK       I    between atoms: N_4  and  C_5 
REMARK    2  A    between atoms: C_5  and  C_6 
REMARK    3  A    between atoms: C_7  and  C_8 
REMARK    4  A    between atoms: C_11  and  O_12 
ROOT
HETATM    1  C   UNL     1      40.849 -14.135   3.354  1.00  0.00     0.062 C 
HETATM    2  C   UNL     1      40.785 -13.267   4.600  1.00  0.00     0.202 C 
HETATM    3  N   UNL     1      39.956 -12.082   4.364  1.00  0.00    -0.083 N 
HETATM    4  C   UNL     1      39.581 -11.652   3.120  1.00  0.00     0.726 A 
HETATM    5  N   UNL     1      39.927 -12.380   2.038  1.00  0.00    -0.192 N 
HETATM    6  N   UNL     1      39.440 -11.304   5.336  1.00  0.00    -0.141 NA
HETATM    7  C   UNL     1      38.805 -10.378   4.602  1.00  0.00     0.162 A 
HETATM    8  C   UNL     1      38.057  -9.260   5.211  1.00  0.00     0.096 C 
HETATM    9  N   UNL     1      38.868 -10.561   3.238  1.00  0.00    -0.046 NA
HETATM   10  C   UNL     1      40.436 -13.674   2.146  1.00  0.00     0.037 C 
HETATM   11  C   UNL     1      40.449 -14.487   0.876  1.00  0.00     0.070 C 
HETATM   12  H   UNL     1      39.513 -12.123   1.145  1.00  0.00     0.184 HD
ENDROOT
BRANCH   1  13
HETATM   13  C   UNL     1      41.139 -15.575   3.555  1.00  0.00     0.256 C 
HETATM   14  N   UNL     1      42.415 -15.940   3.189  1.00  0.00    -0.323 N 
HETATM   15  H   UNL     1      43.015 -15.214   2.823  1.00  0.00     0.169 HD
HETATM   16  O   UNL     1      40.258 -16.288   4.021  1.00  0.00    -0.267 OA
BRANCH  14  17
HETATM   17  C   UNL     1      42.998 -17.230   3.275  1.00  0.00     0.041 A 
HETATM   18  C   UNL     1      43.781 -17.554   4.405  1.00  0.00    -0.035 A 
HETATM   19  C   UNL     1      44.005 -16.591   5.541  1.00  0.00     0.050 C 
HETATM   20  C   UNL     1      44.356 -18.835   4.505  1.00  0.00     0.009 A 
HETATM   21  C   UNL     1      44.172 -19.783   3.502  1.00  0.00     0.001 A 
HETATM   22  C   UNL     1      43.407 -19.464   2.389  1.00  0.00     0.002 A 
HETATM   23  C   UNL     1      42.825 -18.199   2.278  1.00  0.00     0.030 A 
ENDBRANCH  14  17
ENDBRANCH   1  13
BRANCH   2  24
HETATM   24  C   UNL     1      42.165 -12.818   5.082  1.00  0.00    -0.028 A 
HETATM   25  C   UNL     1      42.948 -11.919   4.337  1.00  0.00     0.012 A 
HETATM   26  C   UNL     1      44.195 -11.505   4.807  1.00  0.00     0.037 A 
HETATM   27  C   UNL     1      44.679 -11.959   6.034  1.00  0.00     0.068 A 
HETATM   28  C   UNL     1      43.915 -12.854   6.779  1.00  0.00     0.037 A 
HETATM   29  C   UNL     1      42.667 -13.281   6.308  1.00  0.00     0.012 A 
BRANCH  27  30
HETATM   30  O   UNL     1      45.906 -11.467   6.385  1.00  0.00    -0.356 OA
HETATM   31  C   UNL     1      45.961 -10.705   7.585  1.00  0.00     0.210 C 
ENDBRANCH  27  30
ENDBRANCH   2  24
TORSDOF 4
ENDMDL
MODEL 2
REMARK VINA RESULT:      -8.3      2.008      6.382
REMARK  4 active torsions:
REMARK  status: ('A' for Active; 'I' for Inactive)
REMARK    1  A    between atoms: C_3  and  N_4 
REMARK       I    between atoms: N_4  and  C_5 
REMARK    2  A    between atoms: C_5  and  C_6 
REMARK    3  A    between atoms: C_7  and  C_8 
REMARK    4  A    between atoms: C_11  and  O_12 
ROOT
HETATM    1  C   UNL     1      41.783 -13.522   4.764  1.00  0.00     0.062 C 
HETATM    2  C   UNL     1      42.364 -13.991   3.439  1.00  0.00     0.202 C 
HETATM    3  N   UNL     1      41.399 -13.797   2.354  1.00  0.00    -0.083 N 
HETATM    4  C   UNL     1      40.068 -13.552   2.554  1.00  0.00     0.726 A 
HETATM    5  N   UNL     1      39.605 -13.412   3.814  1.00  0.00    -0.192 N 
HETATM    6  N   UNL     1      41.713 -13.801   1.043  1.00  0.00    -0.141 NA
HETATM    7  C   UNL     1      40.502 -13.608   0.498  1.00  0.00     0.162 A 
HETATM    8  C   UNL     1      40.293 -13.534  -0.962  1.00  0.00     0.096 C 
HETATM    9  N   UNL     1      39.469 -13.449   1.395  1.00  0.00    -0.046 NA
HETATM   10  C   UNL     1      40.458 -13.262   4.906  1.00  0.00     0.037 C 
HETATM   11  C   UNL     1      39.821 -12.772   6.181  1.00  0.00     0.070 C 
HETATM   12  H   UNL     1      38.648 -13.085   3.930  1.00  0.00     0.184 HD
ENDROOT
BRANCH   1  13
HETATM   13  C   UNL     1      42.750 -13.120   5.814  1.00  0.00     0.256 C 
HETATM   14  N   UNL     1      43.234 -11.841   5.662  1.00  0.00    -0.323 N 
HETATM   15  H   UNL     1      42.899 -11.312   4.868  1.00  0.00     0.169 HD
HETATM   16  O   UNL     1      43.017 -13.925   6.699  1.00  0.00    -0.267 OA
BRANCH  14  17
HETATM   17  C   UNL     1      44.153 -11.165   6.503  1.00  0.00     0.041 A 
HETATM   18  C   UNL     1      43.673 -10.163   7.376  1.00  0.00    -0.035 A 
HETATM   19  C   UNL     1      42.216  -9.798   7.469  1.00  0.00     0.050 C 
HETATM   20  C   UNL     1      44.576  -9.491   8.223  1.00  0.00     0.009 A 
HETATM   21  C   UNL     1      45.935  -9.794   8.205  1.00  0.00     0.001 A 
HETATM   22  C   UNL     1      46.409 -10.774   7.344  1.00  0.00     0.002 A 
HETATM   23  C   UNL     1      45.525 -11.453   6.502  1.00  0.00     0.030 A 
ENDBRANCH  14  17
ENDBRANCH   1  13
BRANCH   2  24
HETATM   24  C   UNL     1      42.791 -15.459   3.466  1.00  0.00    -0.028 A 
HETATM   25  C   UNL     1      43.160 -16.140   2.293  1.00  0.00     0.012 A 
HETATM   26  C   UNL     1      43.569 -17.474   2.344  1.00  0.00     0.037 A 
HETATM   27  C   UNL     1      43.640 -18.149   3.562  1.00  0.00     0.068 A 
HETATM   28  C   UNL     1      43.271 -17.487   4.732  1.00  0.00     0.037 A 
HETATM   29  C   UNL     1      42.850 -16.152   4.685  1.00  0.00     0.012 A 
BRANCH  27  30
HETATM   30  O   UNL     1      44.068 -19.445   3.476  1.00  0.00    -0.356 OA
HETATM   31  C   UNL     1      43.658 -20.170   2.323  1.00  0.00     0.210 C 
ENDBRANCH  27  30
ENDBRANCH   2  24
TORSDOF 4
ENDMDL
MODEL 3
REMARK VINA RESULT:      -7.8      2.364      6.244
REMARK  4 active torsions:
REMARK  status: ('A' for Active; 'I' for Inactive)
REMARK    1  A    between atoms: C_3  and  N_4 
REMARK       I    between atoms: N_4  and  C_5 
REMARK    2  A    between atoms: C_5  and  C_6 
REMARK    3  A    between atoms: C_7  and  C_8 
REMARK    4  A    between atoms: C_11  and  O_12 
ROOT
HETATM    1  C   UNL     1      40.835 -12.194   2.125  1.00  0.00     0.062 C 
HETATM    2  C   UNL     1      41.335 -13.084   0.998  1.00  0.00     0.202 C 
HETATM    3  N   UNL     1      40.325 -13.197  -0.057  1.00  0.00    -0.083 N 
HETATM    4  C   UNL     1      39.014 -12.839   0.102  1.00  0.00     0.726 A 
HETATM    5  N   UNL     1      38.618 -12.288   1.269  1.00  0.00    -0.192 N 
HETATM    6  N   UNL     1      40.574 -13.629  -1.309  1.00  0.00    -0.141 NA
HETATM    7  C   UNL     1      39.345 -13.562  -1.844  1.00  0.00     0.162 A 
HETATM    8  C   UNL     1      39.068 -13.942  -3.243  1.00  0.00     0.096 C 
HETATM    9  N   UNL     1      38.363 -13.080  -1.007  1.00  0.00    -0.046 NA
HETATM   10  C   UNL     1      39.529 -11.841   2.225  1.00  0.00     0.037 C 
HETATM   11  C   UNL     1      38.970 -10.944   3.302  1.00  0.00     0.070 C 
HETATM   12  H   UNL     1      37.680 -11.897   1.310  1.00  0.00     0.184 HD
ENDROOT
BRANCH   1  13
HETATM   13  C   UNL     1      41.865 -11.527   2.958  1.00  0.00     0.256 C 
HETATM   14  N   UNL     1      41.979 -12.051   4.225  1.00  0.00    -0.323 N 
HETATM   15  H   UNL     1      41.363 -12.817   4.465  1.00  0.00     0.169 HD
HETATM   16  O   UNL     1      42.509 -10.609   2.464  1.00  0.00    -0.267 OA
BRANCH  14  17
HETATM   17  C   UNL     1      42.875 -11.646   5.246  1.00  0.00     0.041 A 
HETATM   18  C   UNL     1      42.385 -10.867   6.319  1.00  0.00    -0.035 A 
HETATM   19  C   UNL     1      40.938 -10.468   6.437  1.00  0.00     0.050 C 
HETATM   20  C   UNL     1      43.265 -10.467   7.343  1.00  0.00     0.009 A 
HETATM   21  C   UNL     1      44.612 -10.819   7.309  1.00  0.00     0.001 A 
HETATM   22  C   UNL     1      45.095 -11.579   6.253  1.00  0.00     0.002 A 
HETATM   23  C   UNL     1      44.234 -11.989   5.232  1.00  0.00     0.030 A 
ENDBRANCH  14  17
ENDBRANCH   1  13
BRANCH   2  24
HETATM   24  C   UNL     1      41.714 -14.486   1.474  1.00  0.00    -0.028 A 
HETATM   25  C   UNL     1      43.054 -14.910   1.521  1.00  0.00     0.012 A 
HETATM   26  C   UNL     1      43.379 -16.187   1.981  1.00  0.00     0.037 A 
HETATM   27  C   UNL     1      42.384 -17.059   2.422  1.00  0.00     0.068 A 
HETATM   28  C   UNL     1      41.052 -16.652   2.376  1.00  0.00     0.037 A 
HETATM   29  C   UNL     1      40.718 -15.376   1.905  1.00  0.00     0.012 A 
BRANCH  27  30
HETATM   30  O   UNL     1      42.837 -18.272   2.860  1.00  0.00    -0.356 OA
HETATM   31  C   UNL     1      43.942 -18.248   3.756  1.00  0.00     0.210 C 
ENDBRANCH  27  30
ENDBRANCH   2  24
TORSDOF 4
ENDMDL
MODEL 4
REMARK VINA RESULT:      -7.7      2.814      6.322
REMARK  4 active torsions:
REMARK  status: ('A' for Active; 'I' for Inactive)
REMARK    1  A    between atoms: C_3  and  N_4 
REMARK       I    between atoms: N_4  and  C_5 
REMARK    2  A    between atoms: C_5  and  C_6 
REMARK    3  A    between atoms: C_7  and  C_8 
REMARK    4  A    between atoms: C_11  and  O_12 
ROOT
HETATM    1  C   UNL     1      41.297 -12.446   2.316  1.00  0.00     0.062 C 
HETATM    2  C   UNL     1      41.554 -13.284   3.558  1.00  0.00     0.202 C 
HETATM    3  N   UNL     1      42.372 -12.542   4.521  1.00  0.00    -0.083 N 
HETATM    4  C   UNL     1      43.076 -11.411   4.210  1.00  0.00     0.726 A 
HETATM    5  N   UNL     1      42.976 -10.893   2.968  1.00  0.00    -0.192 N 
HETATM    6  N   UNL     1      42.497 -12.863   5.824  1.00  0.00    -0.141 NA
HETATM    7  C   UNL     1      43.346 -11.908   6.234  1.00  0.00     0.162 A 
HETATM    8  C   UNL     1      43.819 -11.814   7.630  1.00  0.00     0.096 C 
HETATM    9  N   UNL     1      43.722 -10.998   5.271  1.00  0.00    -0.046 NA
HETATM   10  C   UNL     1      42.001 -11.313   2.064  1.00  0.00     0.037 C 
HETATM   11  C   UNL     1      41.782 -10.425   0.866  1.00  0.00     0.070 C 
HETATM   12  H   UNL     1      43.387  -9.976   2.805  1.00  0.00     0.184 HD
ENDROOT
BRANCH   1  13
HETATM   13  C   UNL     1      40.085 -12.775   1.526  1.00  0.00     0.256 C 
HETATM   14  N   UNL     1      40.315 -12.879   0.174  1.00  0.00    -0.323 N 
HETATM   15  H   UNL     1      41.261 -12.720  -0.147  1.00  0.00     0.169 HD
HETATM   16  O   UNL     1      39.025 -12.930   2.123  1.00  0.00    -0.267 OA
BRANCH  14  17
HETATM   17  C   UNL     1      39.372 -13.194  -0.837  1.00  0.00     0.041 A 
HETATM   18  C   UNL     1      38.435 -12.213  -1.230  1.00  0.00    -0.035 A 
HETATM   19  C   UNL     1      38.410 -10.830  -0.635  1.00  0.00     0.050 C 
HETATM   20  C   UNL     1      37.500 -12.512  -2.239  1.00  0.00     0.009 A 
HETATM   21  C   UNL     1      37.480 -13.765  -2.849  1.00  0.00     0.001 A 
HETATM   22  C   UNL     1      38.396 -14.731  -2.460  1.00  0.00     0.002 A 
HETATM   23  C   UNL     1      39.334 -14.447  -1.463  1.00  0.00     0.030 A 
ENDBRANCH  14  17
ENDBRANCH   1  13
BRANCH   2  24
HETATM   24  C   UNL     1      42.241 -14.613   3.245  1.00  0.00    -0.028 A 
HETATM   25  C   UNL     1      42.182 -15.699   4.135  1.00  0.00     0.012 A 
HETATM   26  C   UNL     1      42.797 -16.912   3.819  1.00  0.00     0.037 A 
HETATM   27  C   UNL     1      43.462 -17.075   2.604  1.00  0.00     0.068 A 
HETATM   28  C   UNL     1      43.531 -16.005   1.715  1.00  0.00     0.037 A 
HETATM   29  C   UNL     1      42.926 -14.782   2.032  1.00  0.00     0.012 A 
BRANCH  27  30
HETATM   30  O   UNL     1      44.008 -18.315   2.410  1.00  0.00    -0.356 OA
HETATM   31  C   UNL     1      43.093 -19.376   2.163  1.00  0.00     0.210 C 
ENDBRANCH  27  30
ENDBRANCH   2  24
TORSDOF 4
ENDMDL
MODEL 5
REMARK VINA RESULT:      -7.7      2.653      5.305
REMARK  4 active torsions:
REMARK  status: ('A' for Active; 'I' for Inactive)
REMARK    1  A    between atoms: C_3  and  N_4 
REMARK       I    between atoms: N_4  and  C_5 
REMARK    2  A    between atoms: C_5  and  C_6 
REMARK    3  A    between atoms: C_7  and  C_8 
REMARK    4  A    between atoms: C_11  and  O_12 
ROOT
HETATM    1  C   UNL     1      41.451 -13.304   2.584  1.00  0.00     0.062 C 
HETATM    2  C   UNL     1      41.574 -12.275   1.471  1.00  0.00     0.202 C 
HETATM    3  N   UNL     1      40.963 -11.005   1.871  1.00  0.00    -0.083 N 
HETATM    4  C   UNL     1      40.119 -10.870   2.939  1.00  0.00     0.726 A 
HETATM    5  N   UNL     1      39.869 -11.940   3.722  1.00  0.00    -0.192 N 
HETATM    6  N   UNL     1      41.189  -9.824   1.262  1.00  0.00    -0.141 NA
HETATM    7  C   UNL     1      40.395  -9.018   1.984  1.00  0.00     0.162 A 
HETATM    8  C   UNL     1      40.275  -7.572   1.709  1.00  0.00     0.096 C 
HETATM    9  N   UNL     1      39.724  -9.624   3.022  1.00  0.00    -0.046 NA
HETATM   10  C   UNL     1      40.621 -13.111   3.640  1.00  0.00     0.037 C 
HETATM   11  C   UNL     1      40.468 -14.077   4.788  1.00  0.00     0.070 C 
HETATM   12  H   UNL     1      39.360 -11.781   4.589  1.00  0.00     0.184 HD
ENDROOT
BRANCH   1  13
HETATM   13  C   UNL     1      42.453 -14.397   2.599  1.00  0.00     0.256 C 
HETATM   14  N   UNL     1      41.951 -15.604   3.029  1.00  0.00    -0.323 N 
HETATM   15  H   UNL     1      40.975 -15.630   3.293  1.00  0.00     0.169 HD
HETATM   16  O   UNL     1      43.595 -14.146   2.231  1.00  0.00    -0.267 OA
BRANCH  14  17
HETATM   17  C   UNL     1      42.648 -16.834   3.139  1.00  0.00     0.041 A 
HETATM   18  C   UNL     1      43.437 -17.074   4.287  1.00  0.00    -0.035 A 
HETATM   19  C   UNL     1      43.551 -16.083   5.414  1.00  0.00     0.050 C 
HETATM   20  C   UNL     1      44.124 -18.296   4.411  1.00  0.00     0.009 A 
HETATM   21  C   UNL     1      44.046 -19.267   3.416  1.00  0.00     0.001 A 
HETATM   22  C   UNL     1      43.275 -19.031   2.286  1.00  0.00     0.002 A 
HETATM   23  C   UNL     1      42.582 -17.825   2.151  1.00  0.00     0.030 A 
ENDBRANCH  14  17
ENDBRANCH   1  13
BRANCH   2  24
HETATM   24  C   UNL     1      40.937 -12.740   0.161  1.00  0.00    -0.028 A 
HETATM   25  C   UNL     1      41.191 -12.083  -1.055  1.00  0.00     0.012 A 
HETATM   26  C   UNL     1      40.617 -12.539  -2.243  1.00  0.00     0.037 A 
HETATM   27  C   UNL     1      39.799 -13.669  -2.249  1.00  0.00     0.068 A 
HETATM   28  C   UNL     1      39.536 -14.327  -1.049  1.00  0.00     0.037 A 
HETATM   29  C   UNL     1      40.100 -13.867   0.148  1.00  0.00     0.012 A 
BRANCH  27  30
HETATM   30  O   UNL     1      39.312 -14.019  -3.478  1.00  0.00    -0.356 OA
HETATM   31  C   UNL     1      38.161 -14.856  -3.487  1.00  0.00     0.210 C 
ENDBRANCH  27  30
ENDBRANCH   2  24
TORSDOF 4
ENDMDL
MODEL 6
REMARK VINA RESULT:      -7.7      3.375      6.283
REMARK  4 active torsions:
REMARK  status: ('A' for Active; 'I' for Inactive)
REMARK    1  A    between atoms: C_3  and  N_4 
REMARK       I    between atoms: N_4  and  C_5 
REMARK    2  A    between atoms: C_5  and  C_6 
REMARK    3  A    between atoms: C_7  and  C_8 
REMARK    4  A    between atoms: C_11  and  O_12 
ROOT
HETATM    1  C   UNL     1      40.601 -12.883   1.760  1.00  0.00     0.062 C 
HETATM    2  C   UNL     1      40.911 -12.488   0.324  1.00  0.00     0.202 C 
HETATM    3  N   UNL     1      41.186 -11.053   0.231  1.00  0.00    -0.083 N 
HETATM    4  C   UNL     1      40.879 -10.153   1.216  1.00  0.00     0.726 A 
HETATM    5  N   UNL     1      40.350 -10.600   2.374  1.00  0.00    -0.192 N 
HETATM    6  N   UNL     1      41.802 -10.459  -0.810  1.00  0.00    -0.141 NA
HETATM    7  C   UNL     1      41.782  -9.178  -0.412  1.00  0.00     0.162 A 
HETATM    8  C   UNL     1      42.351  -8.086  -1.228  1.00  0.00     0.096 C 
HETATM    9  N   UNL     1      41.225  -8.952   0.827  1.00  0.00    -0.046 NA
HETATM   10  C   UNL     1      40.332 -11.953   2.710  1.00  0.00     0.037 C 
HETATM   11  C   UNL     1      40.040 -12.272   4.154  1.00  0.00     0.070 C 
HETATM   12  H   UNL     1      40.269  -9.935   3.141  1.00  0.00     0.184 HD
ENDROOT
BRANCH   1  13
HETATM   13  C   UNL     1      40.852 -14.296   2.134  1.00  0.00     0.256 C 
HETATM   14  N   UNL     1      42.164 -14.560   2.458  1.00  0.00    -0.323 N 
HETATM   15  H   UNL     1      42.816 -13.789   2.406  1.00  0.00     0.169 HD
HETATM   16  O   UNL     1      39.906 -15.076   2.134  1.00  0.00    -0.267 OA
BRANCH  14  17
HETATM   17  C   UNL     1      42.715 -15.800   2.869  1.00  0.00     0.041 A 
HETATM   18  C   UNL     1      43.117 -15.957   4.215  1.00  0.00    -0.035 A 
HETATM   19  C   UNL     1      42.962 -14.867   5.241  1.00  0.00     0.050 C 
HETATM   20  C   UNL     1      43.657 -17.187   4.637  1.00  0.00     0.009 A 
HETATM   21  C   UNL     1      43.808 -18.247   3.745  1.00  0.00     0.001 A 
HETATM   22  C   UNL     1      43.418 -18.091   2.422  1.00  0.00     0.002 A 
HETATM   23  C   UNL     1      42.876 -16.879   1.990  1.00  0.00     0.030 A 
ENDBRANCH  14  17
ENDBRANCH   1  13
BRANCH   2  24
HETATM   24  C   UNL     1      39.783 -12.841  -0.644  1.00  0.00    -0.028 A 
HETATM   25  C   UNL     1      38.605 -12.077  -0.712  1.00  0.00     0.012 A 
HETATM   26  C   UNL     1      37.597 -12.403  -1.621  1.00  0.00     0.037 A 
HETATM   27  C   UNL     1      37.748 -13.481  -2.493  1.00  0.00     0.068 A 
HETATM   28  C   UNL     1      38.909 -14.249  -2.433  1.00  0.00     0.037 A 
HETATM   29  C   UNL     1      39.919 -13.933  -1.516  1.00  0.00     0.012 A 
BRANCH  27  30
HETATM   30  O   UNL     1      36.695 -13.684  -3.342  1.00  0.00    -0.356 OA
HETATM   31  C   UNL     1      35.780 -12.604  -3.484  1.00  0.00     0.210 C 
ENDBRANCH  27  30
ENDBRANCH   2  24
TORSDOF 4
ENDMDL
MODEL 7
REMARK VINA RESULT:      -7.7      2.302      4.800
REMARK  4 active torsions:
REMARK  status: ('A' for Active; 'I' for Inactive)
REMARK    1  A    between atoms: C_3  and  N_4 
REMARK       I    between atoms: N_4  and  C_5 
REMARK    2  A    between atoms: C_5  and  C_6 
REMARK    3  A    between atoms: C_7  and  C_8 
REMARK    4  A    between atoms: C_11  and  O_12 
ROOT
HETATM    1  C   UNL     1      41.132 -13.748   4.412  1.00  0.00     0.062 C 
HETATM    2  C   UNL     1      41.238 -12.681   3.333  1.00  0.00     0.202 C 
HETATM    3  N   UNL     1      40.411 -11.520   3.672  1.00  0.00    -0.083 N 
HETATM    4  C   UNL     1      39.436 -11.533   4.632  1.00  0.00     0.726 A 
HETATM    5  N   UNL     1      39.251 -12.649   5.367  1.00  0.00    -0.192 N 
HETATM    6  N   UNL     1      40.537 -10.302   3.108  1.00  0.00    -0.141 NA
HETATM    7  C   UNL     1      39.559  -9.634   3.738  1.00  0.00     0.162 A 
HETATM    8  C   UNL     1      39.269  -8.212   3.468  1.00  0.00     0.096 C 
HETATM    9  N   UNL     1      38.863 -10.357   4.682  1.00  0.00    -0.046 NA
HETATM   10  C   UNL     1      40.165 -13.702   5.363  1.00  0.00     0.037 C 
HETATM   11  C   UNL     1      40.016 -14.712   6.473  1.00  0.00     0.070 C 
HETATM   12  H   UNL     1      38.626 -12.587   6.169  1.00  0.00     0.184 HD
ENDROOT
BRANCH   1  13
HETATM   13  C   UNL     1      42.269 -14.691   4.534  1.00  0.00     0.256 C 
HETATM   14  N   UNL     1      41.933 -16.001   4.281  1.00  0.00    -0.323 N 
HETATM   15  H   UNL     1      40.968 -16.193   4.047  1.00  0.00     0.169 HD
HETATM   16  O   UNL     1      43.371 -14.241   4.828  1.00  0.00    -0.267 OA
BRANCH  14  17
HETATM   17  C   UNL     1      42.793 -17.129   4.300  1.00  0.00     0.041 A 
HETATM   18  C   UNL     1      43.371 -17.569   3.088  1.00  0.00    -0.035 A 
HETATM   19  C   UNL     1      43.132 -16.874   1.775  1.00  0.00     0.050 C 
HETATM   20  C   UNL     1      44.234 -18.682   3.098  1.00  0.00     0.009 A 
HETATM   21  C   UNL     1      44.518 -19.359   4.281  1.00  0.00     0.001 A 
HETATM   22  C   UNL     1      43.945 -18.931   5.471  1.00  0.00     0.002 A 
HETATM   23  C   UNL     1      43.092 -17.825   5.479  1.00  0.00     0.030 A 
ENDBRANCH  14  17
ENDBRANCH   1  13
BRANCH   2  24
HETATM   24  C   UNL     1      40.831 -13.193   1.952  1.00  0.00    -0.028 A 
HETATM   25  C   UNL     1      40.181 -14.428   1.786  1.00  0.00     0.012 A 
HETATM   26  C   UNL     1      39.798 -14.866   0.517  1.00  0.00     0.037 A 
HETATM   27  C   UNL     1      40.033 -14.075  -0.608  1.00  0.00     0.068 A 
HETATM   28  C   UNL     1      40.681 -12.851  -0.458  1.00  0.00     0.037 A 
HETATM   29  C   UNL     1      41.077 -12.412   0.812  1.00  0.00     0.012 A 
BRANCH  27  30
HETATM   30  O   UNL     1      39.597 -14.612  -1.788  1.00  0.00    -0.356 OA
HETATM   31  C   UNL     1      38.470 -13.984  -2.388  1.00  0.00     0.210 C 
ENDBRANCH  27  30
ENDBRANCH   2  24
TORSDOF 4
ENDMDL
MODEL 8
REMARK VINA RESULT:      -7.6      2.548      4.628
REMARK  4 active torsions:
REMARK  status: ('A' for Active; 'I' for Inactive)
REMARK    1  A    between atoms: C_3  and  N_4 
REMARK       I    between atoms: N_4  and  C_5 
REMARK    2  A    between atoms: C_5  and  C_6 
REMARK    3  A    between atoms: C_7  and  C_8 
REMARK    4  A    between atoms: C_11  and  O_12 
ROOT
HETATM    1  C   UNL     1      40.851 -14.301   4.591  1.00  0.00     0.062 C 
HETATM    2  C   UNL     1      41.282 -13.031   3.875  1.00  0.00     0.202 C 
HETATM    3  N   UNL     1      41.342 -11.906   4.810  1.00  0.00    -0.083 N 
HETATM    4  C   UNL     1      40.775 -11.919   6.055  1.00  0.00     0.726 A 
HETATM    5  N   UNL     1      40.174 -13.045   6.494  1.00  0.00    -0.192 N 
HETATM    6  N   UNL     1      41.990 -10.748   4.571  1.00  0.00    -0.141 NA
HETATM    7  C   UNL     1      41.722 -10.076   5.701  1.00  0.00     0.162 A 
HETATM    8  C   UNL     1      42.218  -8.707   5.946  1.00  0.00     0.096 C 
HETATM    9  N   UNL     1      40.980 -10.764   6.636  1.00  0.00    -0.046 NA
HETATM   10  C   UNL     1      40.320 -14.267   5.840  1.00  0.00     0.037 C 
HETATM   11  C   UNL     1      39.894 -15.488   6.616  1.00  0.00     0.070 C 
HETATM   12  H   UNL     1      39.892 -13.078   7.471  1.00  0.00     0.184 HD
ENDROOT
BRANCH   1  13
HETATM   13  C   UNL     1      41.265 -15.588   3.980  1.00  0.00     0.256 C 
HETATM   14  N   UNL     1      42.418 -16.112   4.518  1.00  0.00    -0.323 N 
HETATM   15  H   UNL     1      42.866 -15.583   5.255  1.00  0.00     0.169 HD
HETATM   16  O   UNL     1      40.568 -16.062   3.090  1.00  0.00    -0.267 OA
BRANCH  14  17
HETATM   17  C   UNL     1      43.058 -17.327   4.163  1.00  0.00     0.041 A 
HETATM   18  C   UNL     1      43.557 -18.163   5.187  1.00  0.00    -0.035 A 
HETATM   19  C   UNL     1      43.417 -17.828   6.648  1.00  0.00     0.050 C 
HETATM   20  C   UNL     1      44.185 -19.375   4.846  1.00  0.00     0.009 A 
HETATM   21  C   UNL     1      44.329 -19.758   3.514  1.00  0.00     0.001 A 
HETATM   22  C   UNL     1      43.844 -18.935   2.508  1.00  0.00     0.002 A 
HETATM   23  C   UNL     1      43.213 -17.731   2.830  1.00  0.00     0.030 A 
ENDBRANCH  14  17
ENDBRANCH   1  13
BRANCH   2  24
HETATM   24  C   UNL     1      40.357 -12.663   2.715  1.00  0.00    -0.028 A 
HETATM   25  C   UNL     1      40.734 -12.872   1.377  1.00  0.00     0.012 A 
HETATM   26  C   UNL     1      39.864 -12.549   0.334  1.00  0.00     0.037 A 
HETATM   27  C   UNL     1      38.596 -12.033   0.600  1.00  0.00     0.068 A 
HETATM   28  C   UNL     1      38.212 -11.816   1.922  1.00  0.00     0.037 A 
HETATM   29  C   UNL     1      39.085 -12.128   2.972  1.00  0.00     0.012 A 
BRANCH  27  30
HETATM   30  O   UNL     1      37.838 -11.773  -0.508  1.00  0.00    -0.356 OA
HETATM   31  C   UNL     1      37.980 -12.678  -1.597  1.00  0.00     0.210 C 
ENDBRANCH  27  30
ENDBRANCH   2  24
TORSDOF 4
ENDMDL
MODEL 9
REMARK VINA RESULT:      -7.2     16.506     19.113
REMARK  4 active torsions:
REMARK  status: ('A' for Active; 'I' for Inactive)
REMARK    1  A    between atoms: C_3  and  N_4 
REMARK       I    between atoms: N_4  and  C_5 
REMARK    2  A    between atoms: C_5  and  C_6 
REMARK    3  A    between atoms: C_7  and  C_8 
REMARK    4  A    between atoms: C_11  and  O_12 
ROOT
HETATM    1  C   UNL     1      47.078 -30.289   0.390  1.00  0.00     0.062 C 
HETATM    2  C   UNL     1      47.435 -31.103  -0.844  1.00  0.00     0.202 C 
HETATM    3  N   UNL     1      48.833 -30.884  -1.221  1.00  0.00    -0.083 N 
HETATM    4  C   UNL     1      49.598 -29.855  -0.744  1.00  0.00     0.726 A 
HETATM    5  N   UNL     1      49.076 -29.017   0.176  1.00  0.00    -0.192 N 
HETATM    6  N   UNL     1      49.536 -31.686  -2.045  1.00  0.00    -0.141 NA
HETATM    7  C   UNL     1      50.715 -31.044  -2.070  1.00  0.00     0.162 A 
HETATM    8  C   UNL     1      51.865 -31.529  -2.858  1.00  0.00     0.096 C 
HETATM    9  N   UNL     1      50.790 -29.917  -1.282  1.00  0.00    -0.046 NA
HETATM   10  C   UNL     1      47.884 -29.296   0.843  1.00  0.00     0.037 C 
HETATM   11  C   UNL     1      47.604 -28.467   2.071  1.00  0.00     0.070 C 
HETATM   12  H   UNL     1      49.707 -28.354   0.621  1.00  0.00     0.184 HD
ENDROOT
BRANCH   1  13
HETATM   13  C   UNL     1      45.953 -30.787   1.218  1.00  0.00     0.256 C 
HETATM   14  N   UNL     1      44.722 -30.319   0.819  1.00  0.00    -0.323 N 
HETATM   15  H   UNL     1      44.701 -29.693   0.026  1.00  0.00     0.169 HD
HETATM   16  O   UNL     1      46.203 -31.551   2.143  1.00  0.00    -0.267 OA
BRANCH  14  17
HETATM   17  C   UNL     1      43.460 -30.622   1.392  1.00  0.00     0.041 A 
HETATM   18  C   UNL     1      42.702 -31.687   0.856  1.00  0.00    -0.035 A 
HETATM   19  C   UNL     1      43.191 -32.534  -0.289  1.00  0.00     0.050 C 
HETATM   20  C   UNL     1      41.453 -32.002   1.423  1.00  0.00     0.009 A 
HETATM   21  C   UNL     1      40.950 -31.274   2.499  1.00  0.00     0.001 A 
HETATM   22  C   UNL     1      41.691 -30.224   3.023  1.00  0.00     0.002 A 
HETATM   23  C   UNL     1      42.935 -29.902   2.474  1.00  0.00     0.030 A 
ENDBRANCH  14  17
ENDBRANCH   1  13
BRANCH   2  24
HETATM   24  C   UNL     1      46.543 -30.782  -2.043  1.00  0.00    -0.028 A 
HETATM   25  C   UNL     1      45.860 -31.791  -2.744  1.00  0.00     0.012 A 
HETATM   26  C   UNL     1      45.032 -31.473  -3.822  1.00  0.00     0.037 A 
HETATM   27  C   UNL     1      44.850 -30.147  -4.210  1.00  0.00     0.068 A 
HETATM   28  C   UNL     1      45.524 -29.137  -3.527  1.00  0.00     0.037 A 
HETATM   29  C   UNL     1      46.365 -29.451  -2.451  1.00  0.00     0.012 A 
BRANCH  27  30
HETATM   30  O   UNL     1      44.003 -29.970  -5.270  1.00  0.00    -0.356 OA
HETATM   31  C   UNL     1      44.058 -30.958  -6.293  1.00  0.00     0.210 C 
ENDBRANCH  27  30
ENDBRANCH   2  24
TORSDOF 4
ENDMDL
MODEL 10
REMARK VINA RESULT:      -7.1      2.811      5.954
REMARK  4 active torsions:
REMARK  status: ('A' for Active; 'I' for Inactive)
REMARK    1  A    between atoms: C_3  and  N_4 
REMARK       I    between atoms: N_4  and  C_5 
REMARK    2  A    between atoms: C_5  and  C_6 
REMARK    3  A    between atoms: C_7  and  C_8 
REMARK    4  A    between atoms: C_11  and  O_12 
ROOT
HETATM    1  C   UNL     1      42.264 -13.151   4.346  1.00  0.00     0.062 C 
HETATM    2  C   UNL     1      42.468 -11.729   4.844  1.00  0.00     0.202 C 
HETATM    3  N   UNL     1      43.250 -11.723   6.082  1.00  0.00    -0.083 N 
HETATM    4  C   UNL     1      43.470 -12.834   6.850  1.00  0.00     0.726 A 
HETATM    5  N   UNL     1      43.004 -14.029   6.429  1.00  0.00    -0.192 N 
HETATM    6  N   UNL     1      43.871 -10.638   6.588  1.00  0.00    -0.141 NA
HETATM    7  C   UNL     1      44.405 -11.157   7.705  1.00  0.00     0.162 A 
HETATM    8  C   UNL     1      45.209 -10.352   8.646  1.00  0.00     0.096 C 
HETATM    9  N   UNL     1      44.181 -12.502   7.897  1.00  0.00    -0.046 NA
HETATM   10  C   UNL     1      42.525 -14.225   5.134  1.00  0.00     0.037 C 
HETATM   11  C   UNL     1      42.367 -15.659   4.697  1.00  0.00     0.070 C 
HETATM   12  H   UNL     1      43.305 -14.857   6.937  1.00  0.00     0.184 HD
ENDROOT
BRANCH   1  13
HETATM   13  C   UNL     1      42.014 -13.322   2.893  1.00  0.00     0.256 C 
HETATM   14  N   UNL     1      40.679 -13.357   2.561  1.00  0.00    -0.323 N 
HETATM   15  H   UNL     1      40.013 -13.271   3.317  1.00  0.00     0.169 HD
HETATM   16  O   UNL     1      42.978 -13.404   2.142  1.00  0.00    -0.267 OA
BRANCH  14  17
HETATM   17  C   UNL     1      40.119 -13.493   1.265  1.00  0.00     0.041 A 
HETATM   18  C   UNL     1      39.440 -12.393   0.694  1.00  0.00    -0.035 A 
HETATM   19  C   UNL     1      39.306 -11.068   1.397  1.00  0.00     0.050 C 
HETATM   20  C   UNL     1      38.889 -12.513  -0.596  1.00  0.00     0.009 A 
HETATM   21  C   UNL     1      38.996 -13.703  -1.313  1.00  0.00     0.001 A 
HETATM   22  C   UNL     1      39.658 -14.785  -0.750  1.00  0.00     0.002 A 
HETATM   23  C   UNL     1      40.215 -14.679   0.527  1.00  0.00     0.030 A 
ENDBRANCH  14  17
ENDBRANCH   1  13
BRANCH   2  24
HETATM   24  C   UNL     1      41.151 -10.992   5.086  1.00  0.00    -0.028 A 
HETATM   25  C   UNL     1      40.952  -9.674   4.638  1.00  0.00     0.012 A 
HETATM   26  C   UNL     1      39.733  -9.028   4.850  1.00  0.00     0.037 A 
HETATM   27  C   UNL     1      38.682  -9.685   5.490  1.00  0.00     0.068 A 
HETATM   28  C   UNL     1      38.868 -10.989   5.943  1.00  0.00     0.037 A 
HETATM   29  C   UNL     1      40.093 -11.639   5.743  1.00  0.00     0.012 A 
BRANCH  27  30
HETATM   30  O   UNL     1      37.539  -8.946   5.622  1.00  0.00    -0.356 OA
HETATM   31  C   UNL     1      37.396  -7.841   4.737  1.00  0.00     0.210 C 
ENDBRANCH  27  30
ENDBRANCH   2  24
TORSDOF 4
ENDMDL
