MODEL 1
REMARK VINA RESULT:      -8.3      0.000      0.000
REMARK  5 active torsions:
REMARK  status: ('A' for Active; 'I' for Inactive)
REMARK    1  A    between atoms: O_2  and  C_3 
REMARK    2  A    between atoms: C_4  and  C_5 
REMARK    3  A    between atoms: C_6  and  C_7 
REMARK    4  A    between atoms: C_6  and  C_16 
REMARK       I    between atoms: C_7  and  N_8 
REMARK    5  A    between atoms: N_8  and  C_9 
ROOT
HETATM    1  C   UNL     1      43.284 -16.097   4.902  1.00  0.00     0.032 C 
HETATM    2  C   UNL     1      43.241 -16.525   3.622  1.00  0.00     0.043 C 
ENDROOT
BRANCH   2   3
HETATM    3  C   UNL     1      42.915 -15.717   2.387  1.00  0.00     0.257 C 
HETATM    4  N   UNL     1      41.603 -15.312   2.273  1.00  0.00    -0.323 N 
HETATM    5  H   UNL     1      40.963 -15.608   2.995  1.00  0.00     0.169 HD
HETATM    6  O   UNL     1      43.811 -15.456   1.588  1.00  0.00    -0.267 OA
BRANCH   4   7
HETATM    7  C   UNL     1      41.029 -14.556   1.228  1.00  0.00     0.037 A 
HETATM    8  C   UNL     1      40.150 -15.076   0.285  1.00  0.00     0.049 A 
HETATM    9  C   UNL     1      39.663 -14.230  -0.700  1.00  0.00     0.118 A 
HETATM   10  N   UNL     1      39.977 -12.920  -0.794  1.00  0.00    -0.273 NA
HETATM   11  C   UNL     1      40.827 -12.439   0.135  1.00  0.00     0.118 A 
HETATM   12  C   UNL     1      41.381 -13.208   1.146  1.00  0.00     0.049 A 
ENDBRANCH   4   7
ENDBRANCH   2   3
BRANCH   2  13
HETATM   13  C   UNL     1      43.459 -17.978   3.450  1.00  0.00    -0.021 A 
HETATM   14  C   UNL     1      43.080 -18.618   2.263  1.00  0.00     0.012 A 
HETATM   15  C   UNL     1      43.246 -19.997   2.122  1.00  0.00     0.001 A 
HETATM   16  C   UNL     1      43.790 -20.744   3.166  1.00  0.00     0.000 A 
HETATM   17  C   UNL     1      44.173 -20.113   4.350  1.00  0.00     0.001 A 
HETATM   18  C   UNL     1      44.007 -18.736   4.495  1.00  0.00     0.012 A 
ENDBRANCH   2  13
BRANCH   1  19
HETATM   19  C   UNL     1      43.063 -14.748   5.430  1.00  0.00    -0.002 A 
HETATM   20  C   UNL     1      41.773 -14.205   5.551  1.00  0.00     0.078 A 
HETATM   21  C   UNL     1      41.582 -12.940   6.110  1.00  0.00     0.037 A 
HETATM   22  C   UNL     1      42.682 -12.187   6.516  1.00  0.00     0.003 A 
HETATM   23  C   UNL     1      43.969 -12.708   6.383  1.00  0.00     0.001 A 
HETATM   24  C   UNL     1      44.158 -13.985   5.848  1.00  0.00     0.014 A 
BRANCH  20  25
HETATM   25  O   UNL     1      40.646 -14.929   5.259  1.00  0.00    -0.355 OA
HETATM   26  C   UNL     1      40.108 -15.553   6.426  1.00  0.00     0.210 C 
ENDBRANCH  20  25
ENDBRANCH   1  19
TORSDOF 5
ENDMDL
MODEL 2
REMARK VINA RESULT:      -8.0      1.094      1.796
REMARK  5 active torsions:
REMARK  status: ('A' for Active; 'I' for Inactive)
REMARK    1  A    between atoms: O_2  and  C_3 
REMARK    2  A    between atoms: C_4  and  C_5 
REMARK    3  A    between atoms: C_6  and  C_7 
REMARK    4  A    between atoms: C_6  and  C_16 
REMARK       I    between atoms: C_7  and  N_8 
REMARK    5  A    between atoms: N_8  and  C_9 
ROOT
HETATM    1  C   UNL     1      43.233 -14.951   5.195  1.00  0.00     0.032 C 
HETATM    2  C   UNL     1      43.117 -15.443   3.943  1.00  0.00     0.043 C 
ENDROOT
BRANCH   2   3
HETATM    3  C   UNL     1      42.696 -14.703   2.694  1.00  0.00     0.257 C 
HETATM    4  N   UNL     1      41.338 -14.647   2.467  1.00  0.00    -0.323 N 
HETATM    5  H   UNL     1      40.740 -15.125   3.125  1.00  0.00     0.169 HD
HETATM    6  O   UNL     1      43.556 -14.191   1.983  1.00  0.00    -0.267 OA
BRANCH   4   7
HETATM    7  C   UNL     1      40.676 -14.029   1.385  1.00  0.00     0.037 A 
HETATM    8  C   UNL     1      40.358 -12.676   1.338  1.00  0.00     0.049 A 
HETATM    9  C   UNL     1      39.696 -12.193   0.220  1.00  0.00     0.118 A 
HETATM   10  N   UNL     1      39.350 -12.953  -0.841  1.00  0.00    -0.273 NA
HETATM   11  C   UNL     1      39.672 -14.260  -0.774  1.00  0.00     0.118 A 
HETATM   12  C   UNL     1      40.318 -14.840   0.307  1.00  0.00     0.049 A 
ENDBRANCH   4   7
ENDBRANCH   2   3
BRANCH   2  13
HETATM   13  C   UNL     1      43.353 -16.899   3.828  1.00  0.00    -0.021 A 
HETATM   14  C   UNL     1      43.885 -17.619   4.905  1.00  0.00     0.012 A 
HETATM   15  C   UNL     1      44.150 -18.984   4.779  1.00  0.00     0.001 A 
HETATM   16  C   UNL     1      43.884 -19.637   3.576  1.00  0.00     0.000 A 
HETATM   17  C   UNL     1      43.350 -18.927   2.500  1.00  0.00     0.001 A 
HETATM   18  C   UNL     1      43.087 -17.563   2.623  1.00  0.00     0.012 A 
ENDBRANCH   2  13
BRANCH   1  19
HETATM   19  C   UNL     1      43.018 -13.582   5.671  1.00  0.00    -0.002 A 
HETATM   20  C   UNL     1      41.748 -12.983   5.646  1.00  0.00     0.078 A 
HETATM   21  C   UNL     1      41.557 -11.698   6.157  1.00  0.00     0.037 A 
HETATM   22  C   UNL     1      42.642 -10.982   6.659  1.00  0.00     0.003 A 
HETATM   23  C   UNL     1      43.911 -11.559   6.671  1.00  0.00     0.001 A 
HETATM   24  C   UNL     1      44.097 -12.855   6.184  1.00  0.00     0.014 A 
BRANCH  20  25
HETATM   25  O   UNL     1      40.626 -13.666   5.254  1.00  0.00    -0.355 OA
HETATM   26  C   UNL     1      39.524 -12.783   5.040  1.00  0.00     0.210 C 
ENDBRANCH  20  25
ENDBRANCH   1  19
TORSDOF 5
ENDMDL
MODEL 3
REMARK VINA RESULT:      -8.0      1.551      2.310
REMARK  5 active torsions:
REMARK  status: ('A' for Active; 'I' for Inactive)
REMARK    1  A    between atoms: O_2  and  C_3 
REMARK    2  A    between atoms: C_4  and  C_5 
REMARK    3  A    between atoms: C_6  and  C_7 
REMARK    4  A    between atoms: C_6  and  C_16 
REMARK       I    between atoms: C_7  and  N_8 
REMARK    5  A    between atoms: N_8  and  C_9 
ROOT
HETATM    1  C   UNL     1      42.239 -14.917   4.908  1.00  0.00     0.032 C 
HETATM    2  C   UNL     1      42.429 -15.355   3.645  1.00  0.00     0.043 C 
ENDROOT
BRANCH   2   3
HETATM    3  C   UNL     1      42.045 -14.662   2.358  1.00  0.00     0.257 C 
HETATM    4  N   UNL     1      40.697 -14.647   2.072  1.00  0.00    -0.323 N 
HETATM    5  H   UNL     1      40.083 -15.121   2.717  1.00  0.00     0.169 HD
HETATM    6  O   UNL     1      42.923 -14.148   1.669  1.00  0.00    -0.267 OA
BRANCH   4   7
HETATM    7  C   UNL     1      40.068 -14.077   0.945  1.00  0.00     0.037 A 
HETATM    8  C   UNL     1      39.898 -14.736  -0.267  1.00  0.00     0.049 A 
HETATM    9  C   UNL     1      39.271 -14.061  -1.304  1.00  0.00     0.118 A 
HETATM   10  N   UNL     1      38.799 -12.800  -1.207  1.00  0.00    -0.273 NA
HETATM   11  C   UNL     1      38.972 -12.183  -0.021  1.00  0.00     0.118 A 
HETATM   12  C   UNL     1      39.601 -12.768   1.068  1.00  0.00     0.049 A 
ENDBRANCH   4   7
ENDBRANCH   2   3
BRANCH   2  13
HETATM   13  C   UNL     1      43.006 -16.714   3.544  1.00  0.00    -0.021 A 
HETATM   14  C   UNL     1      42.717 -17.528   2.441  1.00  0.00     0.012 A 
HETATM   15  C   UNL     1      43.227 -18.826   2.371  1.00  0.00     0.001 A 
HETATM   16  C   UNL     1      44.027 -19.317   3.402  1.00  0.00     0.000 A 
HETATM   17  C   UNL     1      44.322 -18.511   4.501  1.00  0.00     0.001 A 
HETATM   18  C   UNL     1      43.813 -17.214   4.575  1.00  0.00     0.012 A 
ENDBRANCH   2  13
BRANCH   1  19
HETATM   19  C   UNL     1      41.648 -13.657   5.367  1.00  0.00    -0.002 A 
HETATM   20  C   UNL     1      42.410 -12.482   5.481  1.00  0.00     0.078 A 
HETATM   21  C   UNL     1      41.813 -11.281   5.866  1.00  0.00     0.037 A 
HETATM   22  C   UNL     1      40.456 -11.250   6.182  1.00  0.00     0.003 A 
HETATM   23  C   UNL     1      39.694 -12.414   6.092  1.00  0.00     0.001 A 
HETATM   24  C   UNL     1      40.286 -13.611   5.681  1.00  0.00     0.014 A 
BRANCH  20  25
HETATM   25  O   UNL     1      43.724 -12.425   5.094  1.00  0.00    -0.355 OA
HETATM   26  C   UNL     1      43.891 -11.620   3.927  1.00  0.00     0.210 C 
ENDBRANCH  20  25
ENDBRANCH   1  19
TORSDOF 5
ENDMDL
MODEL 4
REMARK VINA RESULT:      -7.9      1.580      5.357
REMARK  5 active torsions:
REMARK  status: ('A' for Active; 'I' for Inactive)
REMARK    1  A    between atoms: O_2  and  C_3 
REMARK    2  A    between atoms: C_4  and  C_5 
REMARK    3  A    between atoms: C_6  and  C_7 
REMARK    4  A    between atoms: C_6  and  C_16 
REMARK       I    between atoms: C_7  and  N_8 
REMARK    5  A    between atoms: N_8  and  C_9 
ROOT
HETATM    1  C   UNL     1      42.018 -12.737   3.095  1.00  0.00     0.032 C 
HETATM    2  C   UNL     1      42.025 -13.757   2.209  1.00  0.00     0.043 C 
ENDROOT
BRANCH   2   3
HETATM    3  C   UNL     1      42.873 -15.007   2.245  1.00  0.00     0.257 C 
HETATM    4  N   UNL     1      42.400 -16.021   3.049  1.00  0.00    -0.323 N 
HETATM    5  H   UNL     1      41.555 -15.842   3.569  1.00  0.00     0.169 HD
HETATM    6  O   UNL     1      43.893 -15.059   1.563  1.00  0.00    -0.267 OA
BRANCH   4   7
HETATM    7  C   UNL     1      42.990 -17.285   3.268  1.00  0.00     0.037 A 
HETATM    8  C   UNL     1      43.009 -18.308   2.328  1.00  0.00     0.049 A 
HETATM    9  C   UNL     1      43.612 -19.508   2.671  1.00  0.00     0.118 A 
HETATM   10  N   UNL     1      44.199 -19.745   3.863  1.00  0.00    -0.273 NA
HETATM   11  C   UNL     1      44.172 -18.737   4.756  1.00  0.00     0.118 A 
HETATM   12  C   UNL     1      43.579 -17.507   4.514  1.00  0.00     0.049 A 
ENDBRANCH   4   7
ENDBRANCH   2   3
BRANCH   2  13
HETATM   13  C   UNL     1      41.150 -13.557   1.032  1.00  0.00    -0.021 A 
HETATM   14  C   UNL     1      40.520 -14.650   0.423  1.00  0.00     0.012 A 
HETATM   15  C   UNL     1      39.732 -14.464  -0.714  1.00  0.00     0.001 A 
HETATM   16  C   UNL     1      39.569 -13.186  -1.248  1.00  0.00     0.000 A 
HETATM   17  C   UNL     1      40.190 -12.093  -0.644  1.00  0.00     0.001 A 
HETATM   18  C   UNL     1      40.980 -12.276   0.491  1.00  0.00     0.012 A 
ENDBRANCH   2  13
BRANCH   1  19
HETATM   19  C   UNL     1      42.795 -12.582   4.328  1.00  0.00    -0.002 A 
HETATM   20  C   UNL     1      42.534 -13.361   5.467  1.00  0.00     0.078 A 
HETATM   21  C   UNL     1      43.323 -13.235   6.612  1.00  0.00     0.037 A 
HETATM   22  C   UNL     1      44.355 -12.300   6.644  1.00  0.00     0.003 A 
HETATM   23  C   UNL     1      44.612 -11.508   5.525  1.00  0.00     0.001 A 
HETATM   24  C   UNL     1      43.838 -11.652   4.370  1.00  0.00     0.014 A 
BRANCH  20  25
HETATM   25  O   UNL     1      41.597 -14.361   5.468  1.00  0.00    -0.355 OA
HETATM   26  C   UNL     1      40.417 -13.973   6.173  1.00  0.00     0.210 C 
ENDBRANCH  20  25
ENDBRANCH   1  19
TORSDOF 5
ENDMDL
MODEL 5
REMARK VINA RESULT:      -7.7      2.064      5.057
REMARK  5 active torsions:
REMARK  status: ('A' for Active; 'I' for Inactive)
REMARK    1  A    between atoms: O_2  and  C_3 
REMARK    2  A    between atoms: C_4  and  C_5 
REMARK    3  A    between atoms: C_6  and  C_7 
REMARK    4  A    between atoms: C_6  and  C_16 
REMARK       I    between atoms: C_7  and  N_8 
REMARK    5  A    between atoms: N_8  and  C_9 
ROOT
HETATM    1  C   UNL     1      41.212 -15.632   1.898  1.00  0.00     0.032 C 
HETATM    2  C   UNL     1      42.250 -15.563   2.759  1.00  0.00     0.043 C 
ENDROOT
BRANCH   2   3
HETATM    3  C   UNL     1      42.909 -14.323   3.316  1.00  0.00     0.257 C 
HETATM    4  N   UNL     1      42.563 -13.999   4.609  1.00  0.00    -0.323 N 
HETATM    5  H   UNL     1      41.883 -14.586   5.067  1.00  0.00     0.169 HD
HETATM    6  O   UNL     1      43.707 -13.703   2.618  1.00  0.00    -0.267 OA
BRANCH   4   7
HETATM    7  C   UNL     1      43.022 -12.900   5.368  1.00  0.00     0.037 A 
HETATM    8  C   UNL     1      42.611 -11.588   5.163  1.00  0.00     0.049 A 
HETATM    9  C   UNL     1      43.146 -10.596   5.971  1.00  0.00     0.118 A 
HETATM   10  N   UNL     1      44.035 -10.824   6.961  1.00  0.00    -0.273 NA
HETATM   11  C   UNL     1      44.415 -12.105   7.142  1.00  0.00     0.118 A 
HETATM   12  C   UNL     1      43.951 -13.163   6.376  1.00  0.00     0.049 A 
ENDBRANCH   4   7
ENDBRANCH   2   3
BRANCH   2  13
HETATM   13  C   UNL     1      42.845 -16.872   3.113  1.00  0.00    -0.021 A 
HETATM   14  C   UNL     1      43.454 -17.061   4.360  1.00  0.00     0.012 A 
HETATM   15  C   UNL     1      44.054 -18.281   4.673  1.00  0.00     0.001 A 
HETATM   16  C   UNL     1      44.049 -19.320   3.743  1.00  0.00     0.000 A 
HETATM   17  C   UNL     1      43.440 -19.140   2.500  1.00  0.00     0.001 A 
HETATM   18  C   UNL     1      42.842 -17.921   2.183  1.00  0.00     0.012 A 
ENDBRANCH   2  13
BRANCH   1  19
HETATM   19  C   UNL     1      40.433 -14.541   1.305  1.00  0.00    -0.002 A 
HETATM   20  C   UNL     1      39.714 -13.632   2.097  1.00  0.00     0.078 A 
HETATM   21  C   UNL     1      39.025 -12.568   1.513  1.00  0.00     0.037 A 
HETATM   22  C   UNL     1      39.015 -12.425   0.127  1.00  0.00     0.003 A 
HETATM   23  C   UNL     1      39.710 -13.332  -0.671  1.00  0.00     0.001 A 
HETATM   24  C   UNL     1      40.421 -14.383  -0.084  1.00  0.00     0.014 A 
BRANCH  20  25
HETATM   25  O   UNL     1      39.761 -13.661   3.467  1.00  0.00    -0.355 OA
HETATM   26  C   UNL     1      39.291 -12.437   4.033  1.00  0.00     0.210 C 
ENDBRANCH  20  25
ENDBRANCH   1  19
TORSDOF 5
ENDMDL
MODEL 6
REMARK VINA RESULT:      -7.6      1.974      5.914
REMARK  5 active torsions:
REMARK  status: ('A' for Active; 'I' for Inactive)
REMARK    1  A    between atoms: O_2  and  C_3 
REMARK    2  A    between atoms: C_4  and  C_5 
REMARK    3  A    between atoms: C_6  and  C_7 
REMARK    4  A    between atoms: C_6  and  C_16 
REMARK       I    between atoms: C_7  and  N_8 
REMARK    5  A    between atoms: N_8  and  C_9 
ROOT
HETATM    1  C   UNL     1      41.834 -15.958   2.431  1.00  0.00     0.032 C 
HETATM    2  C   UNL     1      41.853 -14.612   2.323  1.00  0.00     0.043 C 
ENDROOT
BRANCH   2   3
HETATM    3  C   UNL     1      42.651 -13.629   3.148  1.00  0.00     0.257 C 
HETATM    4  N   UNL     1      42.147 -13.360   4.401  1.00  0.00    -0.323 N 
HETATM    5  H   UNL     1      41.279 -13.807   4.656  1.00  0.00     0.169 HD
HETATM    6  O   UNL     1      43.684 -13.155   2.681  1.00  0.00    -0.267 OA
BRANCH   4   7
HETATM    7  C   UNL     1      42.685 -12.485   5.370  1.00  0.00     0.037 A 
HETATM    8  C   UNL     1      42.303 -11.156   5.515  1.00  0.00     0.049 A 
HETATM    9  C   UNL     1      42.916 -10.398   6.501  1.00  0.00     0.118 A 
HETATM   10  N   UNL     1      43.856 -10.874   7.346  1.00  0.00    -0.273 NA
HETATM   11  C   UNL     1      44.205 -12.166   7.188  1.00  0.00     0.118 A 
HETATM   12  C   UNL     1      43.664 -12.999   6.221  1.00  0.00     0.049 A 
ENDBRANCH   4   7
ENDBRANCH   2   3
BRANCH   2  13
HETATM   13  C   UNL     1      40.905 -14.060   1.329  1.00  0.00    -0.021 A 
HETATM   14  C   UNL     1      40.466 -14.844   0.255  1.00  0.00     0.012 A 
HETATM   15  C   UNL     1      39.608 -14.306  -0.706  1.00  0.00     0.001 A 
HETATM   16  C   UNL     1      39.185 -12.981  -0.599  1.00  0.00     0.000 A 
HETATM   17  C   UNL     1      39.616 -12.195   0.470  1.00  0.00     0.001 A 
HETATM   18  C   UNL     1      40.474 -12.730   1.431  1.00  0.00     0.012 A 
ENDBRANCH   2  13
BRANCH   1  19
HETATM   19  C   UNL     1      42.594 -16.820   3.340  1.00  0.00    -0.002 A 
HETATM   20  C   UNL     1      42.371 -16.810   4.726  1.00  0.00     0.078 A 
HETATM   21  C   UNL     1      43.068 -17.680   5.566  1.00  0.00     0.037 A 
HETATM   22  C   UNL     1      44.024 -18.542   5.033  1.00  0.00     0.003 A 
HETATM   23  C   UNL     1      44.267 -18.548   3.660  1.00  0.00     0.001 A 
HETATM   24  C   UNL     1      43.551 -17.695   2.817  1.00  0.00     0.014 A 
BRANCH  20  25
HETATM   25  O   UNL     1      41.381 -16.056   5.301  1.00  0.00    -0.355 OA
HETATM   26  C   UNL     1      41.499 -16.032   6.724  1.00  0.00     0.210 C 
ENDBRANCH  20  25
ENDBRANCH   1  19
TORSDOF 5
ENDMDL
MODEL 7
REMARK VINA RESULT:      -7.6      2.406      5.451
REMARK  5 active torsions:
REMARK  status: ('A' for Active; 'I' for Inactive)
REMARK    1  A    between atoms: O_2  and  C_3 
REMARK    2  A    between atoms: C_4  and  C_5 
REMARK    3  A    between atoms: C_6  and  C_7 
REMARK    4  A    between atoms: C_6  and  C_16 
REMARK       I    between atoms: C_7  and  N_8 
REMARK    5  A    between atoms: N_8  and  C_9 
ROOT
HETATM    1  C   UNL     1      40.941 -14.981   2.373  1.00  0.00     0.032 C 
HETATM    2  C   UNL     1      42.071 -15.014   3.112  1.00  0.00     0.043 C 
ENDROOT
BRANCH   2   3
HETATM    3  C   UNL     1      42.806 -13.848   3.730  1.00  0.00     0.257 C 
HETATM    4  N   UNL     1      42.510 -13.595   5.052  1.00  0.00    -0.323 N 
HETATM    5  H   UNL     1      41.812 -14.178   5.489  1.00  0.00     0.169 HD
HETATM    6  O   UNL     1      43.616 -13.222   3.052  1.00  0.00    -0.267 OA
BRANCH   4   7
HETATM    7  C   UNL     1      43.043 -12.574   5.868  1.00  0.00     0.037 A 
HETATM    8  C   UNL     1      44.232 -12.689   6.581  1.00  0.00     0.049 A 
HETATM    9  C   UNL     1      44.642 -11.616   7.356  1.00  0.00     0.118 A 
HETATM   10  N   UNL     1      43.966 -10.451   7.453  1.00  0.00    -0.273 NA
HETATM   11  C   UNL     1      42.820 -10.363   6.750  1.00  0.00     0.118 A 
HETATM   12  C   UNL     1      42.317 -11.386   5.962  1.00  0.00     0.049 A 
ENDBRANCH   4   7
ENDBRANCH   2   3
BRANCH   2  13
HETATM   13  C   UNL     1      42.683 -16.356   3.242  1.00  0.00    -0.021 A 
HETATM   14  C   UNL     1      43.476 -16.669   4.353  1.00  0.00     0.012 A 
HETATM   15  C   UNL     1      44.089 -17.920   4.451  1.00  0.00     0.001 A 
HETATM   16  C   UNL     1      43.913 -18.863   3.439  1.00  0.00     0.000 A 
HETATM   17  C   UNL     1      43.122 -18.559   2.331  1.00  0.00     0.001 A 
HETATM   18  C   UNL     1      42.510 -17.309   2.230  1.00  0.00     0.012 A 
ENDBRANCH   2  13
BRANCH   1  19
HETATM   19  C   UNL     1      40.116 -13.828   2.002  1.00  0.00    -0.002 A 
HETATM   20  C   UNL     1      39.931 -13.453   0.661  1.00  0.00     0.078 A 
HETATM   21  C   UNL     1      39.095 -12.385   0.329  1.00  0.00     0.037 A 
HETATM   22  C   UNL     1      38.469 -11.655   1.337  1.00  0.00     0.003 A 
HETATM   23  C   UNL     1      38.660 -12.006   2.673  1.00  0.00     0.001 A 
HETATM   24  C   UNL     1      39.476 -13.091   3.004  1.00  0.00     0.014 A 
BRANCH  20  25
HETATM   25  O   UNL     1      40.442 -14.186  -0.378  1.00  0.00    -0.355 OA
HETATM   26  C   UNL     1      39.437 -14.492  -1.346  1.00  0.00     0.210 C 
ENDBRANCH  20  25
ENDBRANCH   1  19
TORSDOF 5
ENDMDL
MODEL 8
REMARK VINA RESULT:      -7.2      2.553      6.078
REMARK  5 active torsions:
REMARK  status: ('A' for Active; 'I' for Inactive)
REMARK    1  A    between atoms: O_2  and  C_3 
REMARK    2  A    between atoms: C_4  and  C_5 
REMARK    3  A    between atoms: C_6  and  C_7 
REMARK    4  A    between atoms: C_6  and  C_16 
REMARK       I    between atoms: C_7  and  N_8 
REMARK    5  A    between atoms: N_8  and  C_9 
ROOT
HETATM    1  C   UNL     1      44.001 -13.223   6.974  1.00  0.00     0.032 C 
HETATM    2  C   UNL     1      44.080 -12.065   6.283  1.00  0.00     0.043 C 
ENDROOT
BRANCH   2   3
HETATM    3  C   UNL     1      43.852 -11.852   4.805  1.00  0.00     0.257 C 
HETATM    4  N   UNL     1      42.568 -12.088   4.364  1.00  0.00    -0.323 N 
HETATM    5  H   UNL     1      41.897 -12.410   5.045  1.00  0.00     0.169 HD
HETATM    6  O   UNL     1      44.786 -11.474   4.102  1.00  0.00    -0.267 OA
BRANCH   4   7
HETATM    7  C   UNL     1      42.082 -11.971   3.043  1.00  0.00     0.037 A 
HETATM    8  C   UNL     1      41.748 -13.055   2.239  1.00  0.00     0.049 A 
HETATM    9  C   UNL     1      41.291 -12.807   0.954  1.00  0.00     0.118 A 
HETATM   10  N   UNL     1      41.133 -11.571   0.434  1.00  0.00    -0.273 NA
HETATM   11  C   UNL     1      41.459 -10.537   1.234  1.00  0.00     0.118 A 
HETATM   12  C   UNL     1      41.941 -10.683   2.526  1.00  0.00     0.049 A 
ENDBRANCH   4   7
ENDBRANCH   2   3
BRANCH   2  13
HETATM   13  C   UNL     1      44.529 -10.901   7.080  1.00  0.00    -0.021 A 
HETATM   14  C   UNL     1      43.598  -9.982   7.580  1.00  0.00     0.012 A 
HETATM   15  C   UNL     1      44.027  -8.861   8.293  1.00  0.00     0.001 A 
HETATM   16  C   UNL     1      45.389  -8.653   8.510  1.00  0.00     0.000 A 
HETATM   17  C   UNL     1      46.322  -9.566   8.018  1.00  0.00     0.001 A 
HETATM   18  C   UNL     1      45.896 -10.686   7.304  1.00  0.00     0.012 A 
ENDBRANCH   2  13
BRANCH   1  19
HETATM   19  C   UNL     1      43.646 -14.561   6.492  1.00  0.00    -0.002 A 
HETATM   20  C   UNL     1      42.314 -14.920   6.227  1.00  0.00     0.078 A 
HETATM   21  C   UNL     1      42.005 -16.182   5.716  1.00  0.00     0.037 A 
HETATM   22  C   UNL     1      43.021 -17.111   5.502  1.00  0.00     0.003 A 
HETATM   23  C   UNL     1      44.345 -16.772   5.779  1.00  0.00     0.001 A 
HETATM   24  C   UNL     1      44.656 -15.500   6.267  1.00  0.00     0.014 A 
BRANCH  20  25
HETATM   25  O   UNL     1      41.282 -14.023   6.326  1.00  0.00    -0.355 OA
HETATM   26  C   UNL     1      40.014 -14.679   6.295  1.00  0.00     0.210 C 
ENDBRANCH  20  25
ENDBRANCH   1  19
TORSDOF 5
ENDMDL
MODEL 9
REMARK VINA RESULT:      -7.1      2.195      6.045
REMARK  5 active torsions:
REMARK  status: ('A' for Active; 'I' for Inactive)
REMARK    1  A    between atoms: O_2  and  C_3 
REMARK    2  A    between atoms: C_4  and  C_5 
REMARK    3  A    between atoms: C_6  and  C_7 
REMARK    4  A    between atoms: C_6  and  C_16 
REMARK       I    between atoms: C_7  and  N_8 
REMARK    5  A    between atoms: N_8  and  C_9 
ROOT
HETATM    1  C   UNL     1      41.754 -15.862   3.124  1.00  0.00     0.032 C 
HETATM    2  C   UNL     1      41.874 -14.553   2.814  1.00  0.00     0.043 C 
ENDROOT
BRANCH   2   3
HETATM    3  C   UNL     1      42.641 -13.491   3.568  1.00  0.00     0.257 C 
HETATM    4  N   UNL     1      42.151 -13.182   4.818  1.00  0.00    -0.323 N 
HETATM    5  H   UNL     1      41.313 -13.657   5.117  1.00  0.00     0.169 HD
HETATM    6  O   UNL     1      43.638 -12.992   3.053  1.00  0.00    -0.267 OA
BRANCH   4   7
HETATM    7  C   UNL     1      42.666 -12.233   5.728  1.00  0.00     0.037 A 
HETATM    8  C   UNL     1      42.209 -10.924   5.827  1.00  0.00     0.049 A 
HETATM    9  C   UNL     1      42.806 -10.085   6.756  1.00  0.00     0.118 A 
HETATM   10  N   UNL     1      43.800 -10.465   7.588  1.00  0.00    -0.273 NA
HETATM   11  C   UNL     1      44.222 -11.740   7.475  1.00  0.00     0.118 A 
HETATM   12  C   UNL     1      43.701 -12.648   6.566  1.00  0.00     0.049 A 
ENDBRANCH   4   7
ENDBRANCH   2   3
BRANCH   2  13
HETATM   13  C   UNL     1      41.082 -14.122   1.641  1.00  0.00    -0.021 A 
HETATM   14  C   UNL     1      40.756 -12.771   1.462  1.00  0.00     0.012 A 
HETATM   15  C   UNL     1      39.971 -12.373   0.379  1.00  0.00     0.001 A 
HETATM   16  C   UNL     1      39.506 -13.323  -0.531  1.00  0.00     0.000 A 
HETATM   17  C   UNL     1      39.829 -14.669  -0.361  1.00  0.00     0.001 A 
HETATM   18  C   UNL     1      40.613 -15.070   0.722  1.00  0.00     0.012 A 
ENDBRANCH   2  13
BRANCH   1  19
HETATM   19  C   UNL     1      42.350 -16.604   4.239  1.00  0.00    -0.002 A 
HETATM   20  C   UNL     1      43.319 -17.598   4.029  1.00  0.00     0.078 A 
HETATM   21  C   UNL     1      43.914 -18.252   5.110  1.00  0.00     0.037 A 
HETATM   22  C   UNL     1      43.515 -17.948   6.409  1.00  0.00     0.003 A 
HETATM   23  C   UNL     1      42.539 -16.977   6.629  1.00  0.00     0.001 A 
HETATM   24  C   UNL     1      41.963 -16.304   5.549  1.00  0.00     0.014 A 
BRANCH  20  25
HETATM   25  O   UNL     1      43.822 -17.876   2.785  1.00  0.00    -0.355 OA
HETATM   26  C   UNL     1      43.661 -19.255   2.451  1.00  0.00     0.210 C 
ENDBRANCH  20  25
ENDBRANCH   1  19
TORSDOF 5
ENDMDL
MODEL 10
REMARK VINA RESULT:      -7.0     14.404     15.892
REMARK  5 active torsions:
REMARK  status: ('A' for Active; 'I' for Inactive)
REMARK    1  A    between atoms: O_2  and  C_3 
REMARK    2  A    between atoms: C_4  and  C_5 
REMARK    3  A    between atoms: C_6  and  C_7 
REMARK    4  A    between atoms: C_6  and  C_16 
REMARK       I    between atoms: C_7  and  N_8 
REMARK    5  A    between atoms: N_8  and  C_9 
ROOT
HETATM    1  C   UNL     1      47.087 -29.150   0.017  1.00  0.00     0.032 C 
HETATM    2  C   UNL     1      45.822 -29.571  -0.196  1.00  0.00     0.043 C 
ENDROOT
BRANCH   2   3
HETATM    3  C   UNL     1      44.931 -30.339   0.752  1.00  0.00     0.257 C 
HETATM    4  N   UNL     1      43.722 -29.745   1.041  1.00  0.00    -0.323 N 
HETATM    5  H   UNL     1      43.541 -28.841   0.630  1.00  0.00     0.169 HD
HETATM    6  O   UNL     1      45.309 -31.425   1.184  1.00  0.00    -0.267 OA
BRANCH   4   7
HETATM    7  C   UNL     1      42.709 -30.236   1.893  1.00  0.00     0.037 A 
HETATM    8  C   UNL     1      42.580 -29.885   3.232  1.00  0.00     0.049 A 
HETATM    9  C   UNL     1      41.545 -30.446   3.964  1.00  0.00     0.118 A 
HETATM   10  N   UNL     1      40.639 -31.307   3.454  1.00  0.00    -0.273 NA
HETATM   11  C   UNL     1      40.783 -31.629   2.153  1.00  0.00     0.118 A 
HETATM   12  C   UNL     1      41.793 -31.135   1.344  1.00  0.00     0.049 A 
ENDBRANCH   4   7
ENDBRANCH   2   3
BRANCH   2  13
HETATM   13  C   UNL     1      45.307 -29.311  -1.559  1.00  0.00    -0.021 A 
HETATM   14  C   UNL     1      44.521 -30.266  -2.216  1.00  0.00     0.012 A 
HETATM   15  C   UNL     1      44.074 -30.036  -3.518  1.00  0.00     0.001 A 
HETATM   16  C   UNL     1      44.410 -28.851  -4.171  1.00  0.00     0.000 A 
HETATM   17  C   UNL     1      45.189 -27.893  -3.521  1.00  0.00     0.001 A 
HETATM   18  C   UNL     1      45.638 -28.120  -2.221  1.00  0.00     0.012 A 
ENDBRANCH   2  13
BRANCH   1  19
HETATM   19  C   UNL     1      47.915 -29.290   1.218  1.00  0.00    -0.002 A 
HETATM   20  C   UNL     1      48.943 -30.244   1.298  1.00  0.00     0.078 A 
HETATM   21  C   UNL     1      49.756 -30.322   2.430  1.00  0.00     0.037 A 
HETATM   22  C   UNL     1      49.523 -29.475   3.511  1.00  0.00     0.003 A 
HETATM   23  C   UNL     1      48.493 -28.536   3.451  1.00  0.00     0.001 A 
HETATM   24  C   UNL     1      47.696 -28.441   2.307  1.00  0.00     0.014 A 
BRANCH  20  25
HETATM   25  O   UNL     1      49.284 -31.040   0.235  1.00  0.00    -0.355 OA
HETATM   26  C   UNL     1      50.542 -30.658  -0.323  1.00  0.00     0.210 C 
ENDBRANCH  20  25
ENDBRANCH   1  19
TORSDOF 5
ENDMDL
