MODEL 1
REMARK VINA RESULT:      -8.0      0.000      0.000
REMARK  8 active torsions:
REMARK  status: ('A' for Active; 'I' for Inactive)
REMARK    1  A    between atoms: O_2  and  C_3 
REMARK    2  A    between atoms: C_4  and  N_5 
REMARK    3  A    between atoms: N_5  and  C_6 
REMARK    4  A    between atoms: C_6  and  N_7 
REMARK    5  A    between atoms: N_7  and  N_8 
REMARK       I    between atoms: N_8  and  C_9 
REMARK    6  A    between atoms: C_9  and  C_10 
REMARK    7  A    between atoms: N_13  and  C_15 
REMARK    8  A    between atoms: C_15  and  C_16 
ROOT
HETATM    1  N   UNL     1      39.296 -12.757   3.208  1.00  0.00    -0.268 N 
HETATM    2  C   UNL     1      40.307 -13.204   2.384  1.00  0.00     0.240 C 
HETATM    3  O   UNL     1      41.405 -12.655   2.322  1.00  0.00    -0.271 OA
HETATM    4  H   UNL     1      38.494 -13.320   3.475  1.00  0.00     0.190 HD
ENDROOT
BRANCH   1   5
HETATM    5  N   UNL     1      39.539 -11.611   4.000  1.00  0.00    -0.274 N 
HETATM    6  H   UNL     1      38.892 -10.841   3.821  1.00  0.00     0.189 HD
BRANCH   5   7
HETATM    7  C   UNL     1      39.887 -11.728   5.334  1.00  0.00     0.191 C 
HETATM    8  S   UNL     1      39.011 -11.130   6.633  1.00  0.00    -0.039 SA
BRANCH   7   9
HETATM    9  N   UNL     1      41.078 -12.341   5.596  1.00  0.00    -0.330 N 
HETATM   10  H   UNL     1      41.895 -11.735   5.549  1.00  0.00     0.168 HD
BRANCH   9  11
HETATM   11  C   UNL     1      41.387 -13.663   5.988  1.00  0.00     0.068 A 
HETATM   12  C   UNL     1      42.754 -13.997   6.104  1.00  0.00     0.095 A 
HETATM   13  C   UNL     1      43.118 -15.270   6.550  1.00  0.00     0.039 A 
HETATM   14  C   UNL     1      42.137 -16.204   6.883  1.00  0.00     0.003 A 
HETATM   15  C   UNL     1      40.789 -15.871   6.781  1.00  0.00     0.002 A 
HETATM   16  C   UNL     1      40.413 -14.603   6.337  1.00  0.00     0.032 A 
BRANCH  12  17
HETATM   17  O   UNL     1      43.639 -13.002   5.760  1.00  0.00    -0.354 OA
HETATM   18  C   UNL     1      44.443 -12.472   6.809  1.00  0.00     0.210 C 
ENDBRANCH  12  17
ENDBRANCH   9  11
ENDBRANCH   7   9
ENDBRANCH   5   7
ENDBRANCH   1   5
BRANCH   2  19
HETATM   19  C   UNL     1      39.985 -14.437   1.532  1.00  0.00     0.082 C 
HETATM   20  C   UNL     1      39.681 -15.630   2.452  1.00  0.00     0.042 C 
HETATM   21  C   UNL     1      40.913 -16.053   3.251  1.00  0.00     0.236 C 
HETATM   22  N   UNL     1      42.058 -16.382   2.315  1.00  0.00    -0.067 N 
HETATM   23  H   UNL     1      41.802 -17.245   1.822  1.00  0.00     0.280 HD
HETATM   24  C   UNL     1      42.353 -15.313   1.295  1.00  0.00     0.236 C 
HETATM   25  C   UNL     1      41.097 -14.858   0.571  1.00  0.00     0.042 C 
BRANCH  22  26
HETATM   26  C   UNL     1      43.340 -16.692   3.082  1.00  0.00     0.273 C 
BRANCH  26  27
HETATM   27  C   UNL     1      43.563 -18.155   3.346  1.00  0.00    -0.033 A 
HETATM   28  C   UNL     1      43.363 -19.106   2.336  1.00  0.00     0.009 A 
HETATM   29  C   UNL     1      43.572 -20.462   2.596  1.00  0.00     0.001 A 
HETATM   30  C   UNL     1      43.976 -20.877   3.862  1.00  0.00     0.000 A 
HETATM   31  C   UNL     1      44.177 -19.941   4.872  1.00  0.00     0.001 A 
HETATM   32  C   UNL     1      43.972 -18.585   4.619  1.00  0.00     0.009 A 
ENDBRANCH  26  27
ENDBRANCH  22  26
ENDBRANCH   2  19
TORSDOF 8
ENDMDL
MODEL 2
REMARK VINA RESULT:      -7.8      2.265      4.120
REMARK  8 active torsions:
REMARK  status: ('A' for Active; 'I' for Inactive)
REMARK    1  A    between atoms: O_2  and  C_3 
REMARK    2  A    between atoms: C_4  and  N_5 
REMARK    3  A    between atoms: N_5  and  C_6 
REMARK    4  A    between atoms: C_6  and  N_7 
REMARK    5  A    between atoms: N_7  and  N_8 
REMARK       I    between atoms: N_8  and  C_9 
REMARK    6  A    between atoms: C_9  and  C_10 
REMARK    7  A    between atoms: N_13  and  C_15 
REMARK    8  A    between atoms: C_15  and  C_16 
ROOT
HETATM    1  N   UNL     1      41.434 -12.672   6.399  1.00  0.00    -0.268 N 
HETATM    2  C   UNL     1      40.655 -13.666   5.846  1.00  0.00     0.240 C 
HETATM    3  O   UNL     1      40.028 -13.515   4.800  1.00  0.00    -0.271 OA
HETATM    4  H   UNL     1      42.153 -12.839   7.096  1.00  0.00     0.190 HD
ENDROOT
BRANCH   1   5
HETATM    5  N   UNL     1      41.497 -11.426   5.732  1.00  0.00    -0.274 N 
HETATM    6  H   UNL     1      40.963 -11.397   4.863  1.00  0.00     0.189 HD
BRANCH   5   7
HETATM    7  C   UNL     1      41.448 -10.238   6.438  1.00  0.00     0.191 C 
HETATM    8  S   UNL     1      40.797  -8.793   5.887  1.00  0.00    -0.039 SA
BRANCH   7   9
HETATM    9  N   UNL     1      42.035 -10.243   7.671  1.00  0.00    -0.330 N 
HETATM   10  H   UNL     1      41.498 -10.702   8.404  1.00  0.00     0.168 HD
BRANCH   9  11
HETATM   11  C   UNL     1      43.295  -9.779   8.113  1.00  0.00     0.068 A 
HETATM   12  C   UNL     1      44.358 -10.707   8.113  1.00  0.00     0.095 A 
HETATM   13  C   UNL     1      45.640 -10.288   8.477  1.00  0.00     0.039 A 
HETATM   14  C   UNL     1      45.869  -8.959   8.834  1.00  0.00     0.003 A 
HETATM   15  C   UNL     1      44.823  -8.040   8.821  1.00  0.00     0.002 A 
HETATM   16  C   UNL     1      43.538  -8.447   8.459  1.00  0.00     0.032 A 
BRANCH  12  17
HETATM   17  O   UNL     1      44.028 -11.988   7.736  1.00  0.00    -0.354 OA
HETATM   18  C   UNL     1      44.782 -12.554   6.669  1.00  0.00     0.210 C 
ENDBRANCH  12  17
ENDBRANCH   9  11
ENDBRANCH   7   9
ENDBRANCH   5   7
ENDBRANCH   1   5
BRANCH   2  19
HETATM   19  C   UNL     1      40.606 -14.990   6.618  1.00  0.00     0.082 C 
HETATM   20  C   UNL     1      42.009 -15.328   7.145  1.00  0.00     0.042 C 
HETATM   21  C   UNL     1      42.987 -15.609   6.004  1.00  0.00     0.236 C 
HETATM   22  N   UNL     1      42.463 -16.730   5.129  1.00  0.00    -0.067 N 
HETATM   23  H   UNL     1      42.512 -17.591   5.686  1.00  0.00     0.280 HD
HETATM   24  C   UNL     1      41.044 -16.541   4.660  1.00  0.00     0.236 C 
HETATM   25  C   UNL     1      40.110 -16.186   5.805  1.00  0.00     0.042 C 
BRANCH  22  26
HETATM   26  C   UNL     1      43.354 -16.957   3.912  1.00  0.00     0.273 C 
BRANCH  26  27
HETATM   27  C   UNL     1      43.566 -18.403   3.562  1.00  0.00    -0.033 A 
HETATM   28  C   UNL     1      43.291 -18.878   2.272  1.00  0.00     0.009 A 
HETATM   29  C   UNL     1      43.490 -20.225   1.962  1.00  0.00     0.001 A 
HETATM   30  C   UNL     1      43.959 -21.105   2.934  1.00  0.00     0.000 A 
HETATM   31  C   UNL     1      44.234 -20.644   4.218  1.00  0.00     0.001 A 
HETATM   32  C   UNL     1      44.039 -19.300   4.534  1.00  0.00     0.009 A 
ENDBRANCH  26  27
ENDBRANCH  22  26
ENDBRANCH   2  19
TORSDOF 8
ENDMDL
MODEL 3
REMARK VINA RESULT:      -7.7      2.804      5.837
REMARK  8 active torsions:
REMARK  status: ('A' for Active; 'I' for Inactive)
REMARK    1  A    between atoms: O_2  and  C_3 
REMARK    2  A    between atoms: C_4  and  N_5 
REMARK    3  A    between atoms: N_5  and  C_6 
REMARK    4  A    between atoms: C_6  and  N_7 
REMARK    5  A    between atoms: N_7  and  N_8 
REMARK       I    between atoms: N_8  and  C_9 
REMARK    6  A    between atoms: C_9  and  C_10 
REMARK    7  A    between atoms: N_13  and  C_15 
REMARK    8  A    between atoms: C_15  and  C_16 
ROOT
HETATM    1  N   UNL     1      39.666 -14.042   3.985  1.00  0.00    -0.268 N 
HETATM    2  C   UNL     1      40.285 -13.413   5.044  1.00  0.00     0.240 C 
HETATM    3  O   UNL     1      40.456 -12.197   5.088  1.00  0.00    -0.271 OA
HETATM    4  H   UNL     1      39.283 -14.981   4.031  1.00  0.00     0.190 HD
ENDROOT
BRANCH   1   5
HETATM    5  N   UNL     1      39.225 -13.245   2.902  1.00  0.00    -0.274 N 
HETATM    6  H   UNL     1      38.853 -12.337   3.184  1.00  0.00     0.189 HD
BRANCH   5   7
HETATM    7  C   UNL     1      39.937 -13.196   1.718  1.00  0.00     0.191 C 
HETATM    8  S   UNL     1      41.545 -13.633   1.521  1.00  0.00    -0.039 SA
BRANCH   7   9
HETATM    9  N   UNL     1      39.276 -12.693   0.635  1.00  0.00    -0.330 N 
HETATM   10  H   UNL     1      39.046 -11.703   0.689  1.00  0.00     0.168 HD
BRANCH   9  11
HETATM   11  C   UNL     1      38.900 -13.285  -0.592  1.00  0.00     0.068 A 
HETATM   12  C   UNL     1      37.985 -12.573  -1.397  1.00  0.00     0.095 A 
HETATM   13  C   UNL     1      37.627 -13.078  -2.649  1.00  0.00     0.039 A 
HETATM   14  C   UNL     1      38.175 -14.278  -3.104  1.00  0.00     0.003 A 
HETATM   15  C   UNL     1      39.087 -14.974  -2.316  1.00  0.00     0.002 A 
HETATM   16  C   UNL     1      39.453 -14.479  -1.064  1.00  0.00     0.032 A 
BRANCH  12  17
HETATM   17  O   UNL     1      37.513 -11.398  -0.860  1.00  0.00    -0.354 OA
HETATM   18  C   UNL     1      37.733 -10.214  -1.620  1.00  0.00     0.210 C 
ENDBRANCH  12  17
ENDBRANCH   9  11
ENDBRANCH   7   9
ENDBRANCH   5   7
ENDBRANCH   1   5
BRANCH   2  19
HETATM   19  C   UNL     1      40.762 -14.323   6.182  1.00  0.00     0.082 C 
HETATM   20  C   UNL     1      42.275 -14.144   6.383  1.00  0.00     0.042 C 
HETATM   21  C   UNL     1      43.066 -14.633   5.170  1.00  0.00     0.236 C 
HETATM   22  N   UNL     1      42.737 -16.084   4.881  1.00  0.00    -0.067 N 
HETATM   23  H   UNL     1      43.133 -16.639   5.648  1.00  0.00     0.280 HD
HETATM   24  C   UNL     1      41.263 -16.380   4.784  1.00  0.00     0.236 C 
HETATM   25  C   UNL     1      40.492 -15.813   5.965  1.00  0.00     0.042 C 
BRANCH  22  26
HETATM   26  C   UNL     1      43.418 -16.571   3.606  1.00  0.00     0.273 C 
BRANCH  26  27
HETATM   27  C   UNL     1      43.556 -18.065   3.511  1.00  0.00    -0.033 A 
HETATM   28  C   UNL     1      43.999 -18.816   4.608  1.00  0.00     0.009 A 
HETATM   29  C   UNL     1      44.125 -20.203   4.505  1.00  0.00     0.001 A 
HETATM   30  C   UNL     1      43.815 -20.846   3.308  1.00  0.00     0.000 A 
HETATM   31  C   UNL     1      43.375 -20.109   2.213  1.00  0.00     0.001 A 
HETATM   32  C   UNL     1      43.246 -18.725   2.310  1.00  0.00     0.009 A 
ENDBRANCH  26  27
ENDBRANCH  22  26
ENDBRANCH   2  19
TORSDOF 8
ENDMDL
MODEL 4
REMARK VINA RESULT:      -7.6      2.397      3.739
REMARK  8 active torsions:
REMARK  status: ('A' for Active; 'I' for Inactive)
REMARK    1  A    between atoms: O_2  and  C_3 
REMARK    2  A    between atoms: C_4  and  N_5 
REMARK    3  A    between atoms: N_5  and  C_6 
REMARK    4  A    between atoms: C_6  and  N_7 
REMARK    5  A    between atoms: N_7  and  N_8 
REMARK       I    between atoms: N_8  and  C_9 
REMARK    6  A    between atoms: C_9  and  C_10 
REMARK    7  A    between atoms: N_13  and  C_15 
REMARK    8  A    between atoms: C_15  and  C_16 
ROOT
HETATM    1  N   UNL     1      41.664 -12.503   3.818  1.00  0.00    -0.268 N 
HETATM    2  C   UNL     1      40.471 -13.143   3.561  1.00  0.00     0.240 C 
HETATM    3  O   UNL     1      39.495 -13.054   4.303  1.00  0.00    -0.271 OA
HETATM    4  H   UNL     1      42.382 -12.344   3.118  1.00  0.00     0.190 HD
ENDROOT
BRANCH   1   5
HETATM    5  N   UNL     1      41.763 -11.724   4.995  1.00  0.00    -0.274 N 
HETATM    6  H   UNL     1      40.915 -11.198   5.212  1.00  0.00     0.189 HD
BRANCH   5   7
HETATM    7  C   UNL     1      42.402 -12.212   6.119  1.00  0.00     0.191 C 
HETATM    8  S   UNL     1      42.806 -13.815   6.402  1.00  0.00    -0.039 SA
BRANCH   7   9
HETATM    9  N   UNL     1      42.674 -11.303   7.102  1.00  0.00    -0.330 N 
HETATM   10  H   UNL     1      41.903 -11.112   7.739  1.00  0.00     0.168 HD
BRANCH   9  11
HETATM   11  C   UNL     1      43.861 -10.618   7.444  1.00  0.00     0.068 A 
HETATM   12  C   UNL     1      43.729  -9.457   8.236  1.00  0.00     0.095 A 
HETATM   13  C   UNL     1      44.872  -8.775   8.659  1.00  0.00     0.039 A 
HETATM   14  C   UNL     1      46.139  -9.242   8.304  1.00  0.00     0.003 A 
HETATM   15  C   UNL     1      46.270 -10.394   7.534  1.00  0.00     0.002 A 
HETATM   16  C   UNL     1      45.135 -11.084   7.106  1.00  0.00     0.032 A 
BRANCH  12  17
HETATM   17  O   UNL     1      42.439  -9.089   8.538  1.00  0.00    -0.354 OA
HETATM   18  C   UNL     1      42.066  -9.132   9.912  1.00  0.00     0.210 C 
ENDBRANCH  12  17
ENDBRANCH   9  11
ENDBRANCH   7   9
ENDBRANCH   5   7
ENDBRANCH   1   5
BRANCH   2  19
HETATM   19  C   UNL     1      40.422 -13.990   2.284  1.00  0.00     0.082 C 
HETATM   20  C   UNL     1      39.999 -15.425   2.636  1.00  0.00     0.042 C 
HETATM   21  C   UNL     1      41.048 -16.126   3.497  1.00  0.00     0.236 C 
HETATM   22  N   UNL     1      42.390 -16.126   2.793  1.00  0.00    -0.067 N 
HETATM   23  H   UNL     1      42.304 -16.754   1.986  1.00  0.00     0.280 HD
HETATM   24  C   UNL     1      42.835 -14.772   2.304  1.00  0.00     0.236 C 
HETATM   25  C   UNL     1      41.743 -14.066   1.517  1.00  0.00     0.042 C 
BRANCH  22  26
HETATM   26  C   UNL     1      43.488 -16.712   3.675  1.00  0.00     0.273 C 
BRANCH  26  27
HETATM   27  C   UNL     1      43.616 -18.207   3.590  1.00  0.00    -0.033 A 
HETATM   28  C   UNL     1      44.056 -18.954   4.692  1.00  0.00     0.009 A 
HETATM   29  C   UNL     1      44.174 -20.342   4.598  1.00  0.00     0.001 A 
HETATM   30  C   UNL     1      43.857 -20.992   3.407  1.00  0.00     0.000 A 
HETATM   31  C   UNL     1      43.420 -20.260   2.307  1.00  0.00     0.001 A 
HETATM   32  C   UNL     1      43.300 -18.874   2.395  1.00  0.00     0.009 A 
ENDBRANCH  26  27
ENDBRANCH  22  26
ENDBRANCH   2  19
TORSDOF 8
ENDMDL
MODEL 5
REMARK VINA RESULT:      -7.6      3.542      4.978
REMARK  8 active torsions:
REMARK  status: ('A' for Active; 'I' for Inactive)
REMARK    1  A    between atoms: O_2  and  C_3 
REMARK    2  A    between atoms: C_4  and  N_5 
REMARK    3  A    between atoms: N_5  and  C_6 
REMARK    4  A    between atoms: C_6  and  N_7 
REMARK    5  A    between atoms: N_7  and  N_8 
REMARK       I    between atoms: N_8  and  C_9 
REMARK    6  A    between atoms: C_9  and  C_10 
REMARK    7  A    between atoms: N_13  and  C_15 
REMARK    8  A    between atoms: C_15  and  C_16 
ROOT
HETATM    1  N   UNL     1      42.374 -12.103   6.735  1.00  0.00    -0.268 N 
HETATM    2  C   UNL     1      41.791 -12.446   5.534  1.00  0.00     0.240 C 
HETATM    3  O   UNL     1      42.045 -11.865   4.481  1.00  0.00    -0.271 OA
HETATM    4  H   UNL     1      42.390 -12.709   7.548  1.00  0.00     0.190 HD
ENDROOT
BRANCH   1   5
HETATM    5  N   UNL     1      43.292 -11.027   6.746  1.00  0.00    -0.274 N 
HETATM    6  H   UNL     1      42.906 -10.152   6.388  1.00  0.00     0.189 HD
BRANCH   5   7
HETATM    7  C   UNL     1      44.159 -10.842   7.808  1.00  0.00     0.191 C 
HETATM    8  S   UNL     1      45.824 -10.673   7.698  1.00  0.00    -0.039 SA
BRANCH   7   9
HETATM    9  N   UNL     1      43.600 -10.856   9.054  1.00  0.00    -0.330 N 
HETATM   10  H   UNL     1      43.420 -11.782   9.437  1.00  0.00     0.168 HD
BRANCH   9  11
HETATM   11  C   UNL     1      43.279  -9.811   9.949  1.00  0.00     0.068 A 
HETATM   12  C   UNL     1      42.123  -9.052   9.663  1.00  0.00     0.095 A 
HETATM   13  C   UNL     1      41.719  -8.049  10.548  1.00  0.00     0.039 A 
HETATM   14  C   UNL     1      42.452  -7.801  11.709  1.00  0.00     0.003 A 
HETATM   15  C   UNL     1      43.585  -8.558  11.997  1.00  0.00     0.002 A 
HETATM   16  C   UNL     1      43.997  -9.563  11.122  1.00  0.00     0.032 A 
BRANCH  12  17
HETATM   17  O   UNL     1      41.469  -9.383   8.500  1.00  0.00    -0.354 OA
HETATM   18  C   UNL     1      40.051  -9.495   8.574  1.00  0.00     0.210 C 
ENDBRANCH  12  17
ENDBRANCH   9  11
ENDBRANCH   7   9
ENDBRANCH   5   7
ENDBRANCH   1   5
BRANCH   2  19
HETATM   19  C   UNL     1      40.789 -13.606   5.579  1.00  0.00     0.082 C 
HETATM   20  C   UNL     1      41.371 -14.753   6.420  1.00  0.00     0.042 C 
HETATM   21  C   UNL     1      42.605 -15.366   5.759  1.00  0.00     0.236 C 
HETATM   22  N   UNL     1      42.268 -15.848   4.363  1.00  0.00    -0.067 N 
HETATM   23  H   UNL     1      41.644 -16.656   4.469  1.00  0.00     0.280 HD
HETATM   24  C   UNL     1      41.583 -14.822   3.499  1.00  0.00     0.236 C 
HETATM   25  C   UNL     1      40.406 -14.175   4.212  1.00  0.00     0.042 C 
BRANCH  22  26
HETATM   26  C   UNL     1      43.504 -16.357   3.629  1.00  0.00     0.273 C 
BRANCH  26  27
HETATM   27  C   UNL     1      43.571 -17.852   3.492  1.00  0.00    -0.033 A 
HETATM   28  C   UNL     1      44.101 -18.645   4.519  1.00  0.00     0.009 A 
HETATM   29  C   UNL     1      44.159 -20.033   4.377  1.00  0.00     0.001 A 
HETATM   30  C   UNL     1      43.693 -20.636   3.211  1.00  0.00     0.000 A 
HETATM   31  C   UNL     1      43.165 -19.858   2.185  1.00  0.00     0.001 A 
HETATM   32  C   UNL     1      43.103 -18.472   2.321  1.00  0.00     0.009 A 
ENDBRANCH  26  27
ENDBRANCH  22  26
ENDBRANCH   2  19
TORSDOF 8
ENDMDL
MODEL 6
REMARK VINA RESULT:      -7.6      4.920      9.407
REMARK  8 active torsions:
REMARK  status: ('A' for Active; 'I' for Inactive)
REMARK    1  A    between atoms: O_2  and  C_3 
REMARK    2  A    between atoms: C_4  and  N_5 
REMARK    3  A    between atoms: N_5  and  C_6 
REMARK    4  A    between atoms: C_6  and  N_7 
REMARK    5  A    between atoms: N_7  and  N_8 
REMARK       I    between atoms: N_8  and  C_9 
REMARK    6  A    between atoms: C_9  and  C_10 
REMARK    7  A    between atoms: N_13  and  C_15 
REMARK    8  A    between atoms: C_15  and  C_16 
ROOT
HETATM    1  N   UNL     1      42.836 -11.363   7.219  1.00  0.00    -0.268 N 
HETATM    2  C   UNL     1      44.148 -11.068   7.523  1.00  0.00     0.240 C 
HETATM    3  O   UNL     1      45.039 -11.915   7.517  1.00  0.00    -0.271 OA
HETATM    4  H   UNL     1      42.145 -10.665   6.963  1.00  0.00     0.190 HD
ENDROOT
BRANCH   1   5
HETATM    5  N   UNL     1      42.510 -12.703   6.901  1.00  0.00    -0.274 N 
HETATM    6  H   UNL     1      42.014 -13.193   7.646  1.00  0.00     0.189 HD
BRANCH   5   7
HETATM    7  C   UNL     1      42.069 -13.047   5.637  1.00  0.00     0.191 C 
HETATM    8  S   UNL     1      40.500 -12.885   5.066  1.00  0.00    -0.039 SA
BRANCH   7   9
HETATM    9  N   UNL     1      42.992 -13.618   4.809  1.00  0.00    -0.330 N 
HETATM   10  H   UNL     1      43.801 -13.036   4.596  1.00  0.00     0.168 HD
BRANCH   9  11
HETATM   11  C   UNL     1      43.067 -14.906   4.234  1.00  0.00     0.068 A 
HETATM   12  C   UNL     1      43.505 -15.958   5.067  1.00  0.00     0.095 A 
HETATM   13  C   UNL     1      43.537 -17.264   4.573  1.00  0.00     0.039 A 
HETATM   14  C   UNL     1      43.133 -17.528   3.263  1.00  0.00     0.003 A 
HETATM   15  C   UNL     1      42.689 -16.493   2.445  1.00  0.00     0.002 A 
HETATM   16  C   UNL     1      42.652 -15.185   2.929  1.00  0.00     0.032 A 
BRANCH  12  17
HETATM   17  O   UNL     1      43.871 -15.592   6.342  1.00  0.00    -0.354 OA
HETATM   18  C   UNL     1      43.180 -16.229   7.412  1.00  0.00     0.210 C 
ENDBRANCH  12  17
ENDBRANCH   9  11
ENDBRANCH   7   9
ENDBRANCH   5   7
ENDBRANCH   1   5
BRANCH   2  19
HETATM   19  C   UNL     1      44.444  -9.607   7.879  1.00  0.00     0.082 C 
HETATM   20  C   UNL     1      45.420  -9.556   9.065  1.00  0.00     0.042 C 
HETATM   21  C   UNL     1      44.789 -10.118  10.338  1.00  0.00     0.236 C 
HETATM   22  N   UNL     1      43.513  -9.369  10.666  1.00  0.00    -0.067 N 
HETATM   23  H   UNL     1      43.789  -8.422  10.950  1.00  0.00     0.280 HD
HETATM   24  C   UNL     1      42.541  -9.265   9.520  1.00  0.00     0.236 C 
HETATM   25  C   UNL     1      43.215  -8.776   8.248  1.00  0.00     0.042 C 
BRANCH  22  26
HETATM   26  C   UNL     1      42.794  -9.981  11.864  1.00  0.00     0.273 C 
BRANCH  26  27
HETATM   27  C   UNL     1      42.584  -9.033  13.010  1.00  0.00    -0.033 A 
HETATM   28  C   UNL     1      41.601  -9.282  13.978  1.00  0.00     0.009 A 
HETATM   29  C   UNL     1      41.415  -8.391  15.037  1.00  0.00     0.001 A 
HETATM   30  C   UNL     1      42.205  -7.247  15.135  1.00  0.00     0.000 A 
HETATM   31  C   UNL     1      43.184  -6.991  14.179  1.00  0.00     0.001 A 
HETATM   32  C   UNL     1      43.375  -7.877  13.120  1.00  0.00     0.009 A 
ENDBRANCH  26  27
ENDBRANCH  22  26
ENDBRANCH   2  19
TORSDOF 8
ENDMDL
MODEL 7
REMARK VINA RESULT:      -7.4      4.718      6.215
REMARK  8 active torsions:
REMARK  status: ('A' for Active; 'I' for Inactive)
REMARK    1  A    between atoms: O_2  and  C_3 
REMARK    2  A    between atoms: C_4  and  N_5 
REMARK    3  A    between atoms: N_5  and  C_6 
REMARK    4  A    between atoms: C_6  and  N_7 
REMARK    5  A    between atoms: N_7  and  N_8 
REMARK       I    between atoms: N_8  and  C_9 
REMARK    6  A    between atoms: C_9  and  C_10 
REMARK    7  A    between atoms: N_13  and  C_15 
REMARK    8  A    between atoms: C_15  and  C_16 
ROOT
HETATM    1  N   UNL     1      42.504 -10.484   7.591  1.00  0.00    -0.268 N 
HETATM    2  C   UNL     1      42.665 -10.674   6.236  1.00  0.00     0.240 C 
HETATM    3  O   UNL     1      41.787 -10.412   5.418  1.00  0.00    -0.271 OA
HETATM    4  H   UNL     1      43.274 -10.441   8.251  1.00  0.00     0.190 HD
ENDROOT
BRANCH   1   5
HETATM    5  N   UNL     1      41.265  -9.977   8.050  1.00  0.00    -0.274 N 
HETATM    6  H   UNL     1      40.500 -10.649   7.995  1.00  0.00     0.189 HD
BRANCH   5   7
HETATM    7  C   UNL     1      41.199  -9.168   9.170  1.00  0.00     0.191 C 
HETATM    8  S   UNL     1      40.628  -7.591   9.210  1.00  0.00    -0.039 SA
BRANCH   7   9
HETATM    9  N   UNL     1      41.696  -9.696  10.327  1.00  0.00    -0.330 N 
HETATM   10  H   UNL     1      41.983 -10.671  10.269  1.00  0.00     0.168 HD
BRANCH   9  11
HETATM   11  C   UNL     1      41.948  -9.115  11.590  1.00  0.00     0.068 A 
HETATM   12  C   UNL     1      40.966  -9.294  12.588  1.00  0.00     0.095 A 
HETATM   13  C   UNL     1      41.190  -8.798  13.875  1.00  0.00     0.039 A 
HETATM   14  C   UNL     1      42.380  -8.134  14.173  1.00  0.00     0.003 A 
HETATM   15  C   UNL     1      43.355  -7.969  13.193  1.00  0.00     0.002 A 
HETATM   16  C   UNL     1      43.142  -8.461  11.904  1.00  0.00     0.032 A 
BRANCH  12  17
HETATM   17  O   UNL     1      39.835  -9.970  12.193  1.00  0.00    -0.354 OA
HETATM   18  C   UNL     1      39.385 -11.016  13.048  1.00  0.00     0.210 C 
ENDBRANCH  12  17
ENDBRANCH   9  11
ENDBRANCH   7   9
ENDBRANCH   5   7
ENDBRANCH   1   5
BRANCH   2  19
HETATM   19  C   UNL     1      44.018 -11.244   5.793  1.00  0.00     0.082 C 
HETATM   20  C   UNL     1      43.916 -11.738   4.341  1.00  0.00     0.042 C 
HETATM   21  C   UNL     1      42.963 -12.926   4.216  1.00  0.00     0.236 C 
HETATM   22  N   UNL     1      43.405 -14.051   5.130  1.00  0.00    -0.067 N 
HETATM   23  H   UNL     1      44.281 -14.422   4.744  1.00  0.00     0.280 HD
HETATM   24  C   UNL     1      43.647 -13.634   6.557  1.00  0.00     0.236 C 
HETATM   25  C   UNL     1      44.534 -12.403   6.646  1.00  0.00     0.042 C 
BRANCH  22  26
HETATM   26  C   UNL     1      42.411 -15.208   5.121  1.00  0.00     0.273 C 
BRANCH  26  27
HETATM   27  C   UNL     1      42.900 -16.438   4.410  1.00  0.00    -0.033 A 
HETATM   28  C   UNL     1      43.855 -17.277   5.000  1.00  0.00     0.009 A 
HETATM   29  C   UNL     1      44.303 -18.415   4.327  1.00  0.00     0.001 A 
HETATM   30  C   UNL     1      43.805 -18.722   3.063  1.00  0.00     0.000 A 
HETATM   31  C   UNL     1      42.856 -17.895   2.468  1.00  0.00     0.001 A 
HETATM   32  C   UNL     1      42.404 -16.758   3.135  1.00  0.00     0.009 A 
ENDBRANCH  26  27
ENDBRANCH  22  26
ENDBRANCH   2  19
TORSDOF 8
ENDMDL
MODEL 8
REMARK VINA RESULT:      -7.2      3.072      5.694
REMARK  8 active torsions:
REMARK  status: ('A' for Active; 'I' for Inactive)
REMARK    1  A    between atoms: O_2  and  C_3 
REMARK    2  A    between atoms: C_4  and  N_5 
REMARK    3  A    between atoms: N_5  and  C_6 
REMARK    4  A    between atoms: C_6  and  N_7 
REMARK    5  A    between atoms: N_7  and  N_8 
REMARK       I    between atoms: N_8  and  C_9 
REMARK    6  A    between atoms: C_9  and  C_10 
REMARK    7  A    between atoms: N_13  and  C_15 
REMARK    8  A    between atoms: C_15  and  C_16 
ROOT
HETATM    1  N   UNL     1      42.025 -10.388   2.074  1.00  0.00    -0.268 N 
HETATM    2  C   UNL     1      41.819 -10.606   3.420  1.00  0.00     0.240 C 
HETATM    3  O   UNL     1      40.724 -10.456   3.958  1.00  0.00    -0.271 OA
HETATM    4  H   UNL     1      42.824 -10.744   1.560  1.00  0.00     0.190 HD
ENDROOT
BRANCH   1   5
HETATM    5  N   UNL     1      40.926  -9.960   1.293  1.00  0.00    -0.274 N 
HETATM    6  H   UNL     1      40.466  -9.123   1.653  1.00  0.00     0.189 HD
BRANCH   5   7
HETATM    7  C   UNL     1      40.977 -10.000  -0.089  1.00  0.00     0.191 C 
HETATM    8  S   UNL     1      40.453  -8.791  -1.126  1.00  0.00    -0.039 SA
BRANCH   7   9
HETATM    9  N   UNL     1      41.449 -11.155  -0.643  1.00  0.00    -0.330 N 
HETATM   10  H   UNL     1      42.462 -11.262  -0.623  1.00  0.00     0.168 HD
BRANCH   9  11
HETATM   11  C   UNL     1      40.782 -12.274  -1.190  1.00  0.00     0.068 A 
HETATM   12  C   UNL     1      40.313 -13.250  -0.284  1.00  0.00     0.095 A 
HETATM   13  C   UNL     1      39.589 -14.345  -0.761  1.00  0.00     0.039 A 
HETATM   14  C   UNL     1      39.327 -14.472  -2.126  1.00  0.00     0.003 A 
HETATM   15  C   UNL     1      39.778 -13.503  -3.018  1.00  0.00     0.002 A 
HETATM   16  C   UNL     1      40.501 -12.404  -2.553  1.00  0.00     0.032 A 
BRANCH  12  17
HETATM   17  O   UNL     1      40.617 -13.026   1.039  1.00  0.00    -0.354 OA
HETATM   18  C   UNL     1      39.586 -13.289   1.985  1.00  0.00     0.210 C 
ENDBRANCH  12  17
ENDBRANCH   9  11
ENDBRANCH   7   9
ENDBRANCH   5   7
ENDBRANCH   1   5
BRANCH   2  19
HETATM   19  C   UNL     1      43.046 -11.049   4.225  1.00  0.00     0.082 C 
HETATM   20  C   UNL     1      43.874 -12.043   3.395  1.00  0.00     0.042 C 
HETATM   21  C   UNL     1      43.111 -13.344   3.150  1.00  0.00     0.236 C 
HETATM   22  N   UNL     1      42.700 -13.967   4.469  1.00  0.00    -0.067 N 
HETATM   23  H   UNL     1      43.560 -14.292   4.926  1.00  0.00     0.280 HD
HETATM   24  C   UNL     1      41.983 -13.028   5.403  1.00  0.00     0.236 C 
HETATM   25  C   UNL     1      42.727 -11.712   5.565  1.00  0.00     0.042 C 
BRANCH  22  26
HETATM   26  C   UNL     1      41.834 -15.205   4.260  1.00  0.00     0.273 C 
BRANCH  26  27
HETATM   27  C   UNL     1      42.603 -16.443   3.892  1.00  0.00    -0.033 A 
HETATM   28  C   UNL     1      43.600 -16.948   4.738  1.00  0.00     0.009 A 
HETATM   29  C   UNL     1      44.309 -18.097   4.382  1.00  0.00     0.001 A 
HETATM   30  C   UNL     1      44.030 -18.746   3.181  1.00  0.00     0.000 A 
HETATM   31  C   UNL     1      43.043 -18.252   2.334  1.00  0.00     0.001 A 
HETATM   32  C   UNL     1      42.331 -17.106   2.684  1.00  0.00     0.009 A 
ENDBRANCH  26  27
ENDBRANCH  22  26
ENDBRANCH   2  19
TORSDOF 8
ENDMDL
MODEL 9
REMARK VINA RESULT:      -7.1      2.850      6.339
REMARK  8 active torsions:
REMARK  status: ('A' for Active; 'I' for Inactive)
REMARK    1  A    between atoms: O_2  and  C_3 
REMARK    2  A    between atoms: C_4  and  N_5 
REMARK    3  A    between atoms: N_5  and  C_6 
REMARK    4  A    between atoms: C_6  and  N_7 
REMARK    5  A    between atoms: N_7  and  N_8 
REMARK       I    between atoms: N_8  and  C_9 
REMARK    6  A    between atoms: C_9  and  C_10 
REMARK    7  A    between atoms: N_13  and  C_15 
REMARK    8  A    between atoms: C_15  and  C_16 
ROOT
HETATM    1  N   UNL     1      40.949 -15.169   5.123  1.00  0.00    -0.268 N 
HETATM    2  C   UNL     1      41.710 -14.201   4.504  1.00  0.00     0.240 C 
HETATM    3  O   UNL     1      42.882 -14.383   4.180  1.00  0.00    -0.271 OA
HETATM    4  H   UNL     1      39.935 -15.149   5.166  1.00  0.00     0.190 HD
ENDROOT
BRANCH   1   5
HETATM    5  N   UNL     1      41.556 -16.416   5.404  1.00  0.00    -0.274 N 
HETATM    6  H   UNL     1      41.605 -17.040   4.599  1.00  0.00     0.189 HD
BRANCH   5   7
HETATM    7  C   UNL     1      42.667 -16.497   6.223  1.00  0.00     0.191 C 
HETATM    8  S   UNL     1      42.873 -15.695   7.682  1.00  0.00    -0.039 SA
BRANCH   7   9
HETATM    9  N   UNL     1      43.702 -17.260   5.763  1.00  0.00    -0.330 N 
HETATM   10  H   UNL     1      44.630 -16.878   5.937  1.00  0.00     0.168 HD
BRANCH   9  11
HETATM   11  C   UNL     1      43.729 -18.527   5.140  1.00  0.00     0.068 A 
HETATM   12  C   UNL     1      43.775 -18.549   3.729  1.00  0.00     0.095 A 
HETATM   13  C   UNL     1      43.869 -19.772   3.059  1.00  0.00     0.039 A 
HETATM   14  C   UNL     1      43.920 -20.965   3.782  1.00  0.00     0.003 A 
HETATM   15  C   UNL     1      43.887 -20.943   5.173  1.00  0.00     0.002 A 
HETATM   16  C   UNL     1      43.795 -19.728   5.853  1.00  0.00     0.032 A 
BRANCH  12  17
HETATM   17  O   UNL     1      43.729 -17.319   3.115  1.00  0.00    -0.354 OA
HETATM   18  C   UNL     1      42.787 -17.169   2.057  1.00  0.00     0.210 C 
ENDBRANCH  12  17
ENDBRANCH   9  11
ENDBRANCH   7   9
ENDBRANCH   5   7
ENDBRANCH   1   5
BRANCH   2  19
HETATM   19  C   UNL     1      41.011 -12.862   4.240  1.00  0.00     0.082 C 
HETATM   20  C   UNL     1      39.606 -13.120   3.673  1.00  0.00     0.042 C 
HETATM   21  C   UNL     1      39.668 -13.776   2.294  1.00  0.00     0.236 C 
HETATM   22  N   UNL     1      40.476 -12.919   1.341  1.00  0.00    -0.067 N 
HETATM   23  H   UNL     1      39.926 -12.070   1.163  1.00  0.00     0.280 HD
HETATM   24  C   UNL     1      41.829 -12.515   1.864  1.00  0.00     0.236 C 
HETATM   25  C   UNL     1      41.745 -11.938   3.268  1.00  0.00     0.042 C 
BRANCH  22  26
HETATM   26  C   UNL     1      40.658 -13.600  -0.012  1.00  0.00     0.273 C 
BRANCH  26  27
HETATM   27  C   UNL     1      39.482 -13.463  -0.937  1.00  0.00    -0.033 A 
HETATM   28  C   UNL     1      39.209 -14.442  -1.902  1.00  0.00     0.009 A 
HETATM   29  C   UNL     1      38.113 -14.300  -2.757  1.00  0.00     0.001 A 
HETATM   30  C   UNL     1      37.288 -13.182  -2.656  1.00  0.00     0.000 A 
HETATM   31  C   UNL     1      37.551 -12.204  -1.702  1.00  0.00     0.001 A 
HETATM   32  C   UNL     1      38.642 -12.340  -0.845  1.00  0.00     0.009 A 
ENDBRANCH  26  27
ENDBRANCH  22  26
ENDBRANCH   2  19
TORSDOF 8
ENDMDL
MODEL 10
REMARK VINA RESULT:      -7.1      2.556      3.831
REMARK  8 active torsions:
REMARK  status: ('A' for Active; 'I' for Inactive)
REMARK    1  A    between atoms: O_2  and  C_3 
REMARK    2  A    between atoms: C_4  and  N_5 
REMARK    3  A    between atoms: N_5  and  C_6 
REMARK    4  A    between atoms: C_6  and  N_7 
REMARK    5  A    between atoms: N_7  and  N_8 
REMARK       I    between atoms: N_8  and  C_9 
REMARK    6  A    between atoms: C_9  and  C_10 
REMARK    7  A    between atoms: N_13  and  C_15 
REMARK    8  A    between atoms: C_15  and  C_16 
ROOT
HETATM    1  N   UNL     1      41.441 -11.475   5.529  1.00  0.00    -0.268 N 
HETATM    2  C   UNL     1      40.460 -11.806   4.619  1.00  0.00     0.240 C 
HETATM    3  O   UNL     1      39.262 -11.765   4.887  1.00  0.00    -0.271 OA
HETATM    4  H   UNL     1      42.397 -11.250   5.272  1.00  0.00     0.190 HD
ENDROOT
BRANCH   1   5
HETATM    5  N   UNL     1      41.039 -11.085   6.828  1.00  0.00    -0.274 N 
HETATM    6  H   UNL     1      41.392 -11.693   7.568  1.00  0.00     0.189 HD
BRANCH   5   7
HETATM    7  C   UNL     1      41.006  -9.751   7.191  1.00  0.00     0.191 C 
HETATM    8  S   UNL     1      39.630  -8.798   7.307  1.00  0.00    -0.039 SA
BRANCH   7   9
HETATM    9  N   UNL     1      42.214  -9.156   7.421  1.00  0.00    -0.330 N 
HETATM   10  H   UNL     1      42.440  -8.383   6.799  1.00  0.00     0.168 HD
BRANCH   9  11
HETATM   11  C   UNL     1      43.194  -9.376   8.414  1.00  0.00     0.068 A 
HETATM   12  C   UNL     1      44.262 -10.239   8.084  1.00  0.00     0.095 A 
HETATM   13  C   UNL     1      45.294 -10.443   9.003  1.00  0.00     0.039 A 
HETATM   14  C   UNL     1      45.272  -9.794  10.239  1.00  0.00     0.003 A 
HETATM   15  C   UNL     1      44.226  -8.934  10.559  1.00  0.00     0.002 A 
HETATM   16  C   UNL     1      43.189  -8.721   9.649  1.00  0.00     0.032 A 
BRANCH  12  17
HETATM   17  O   UNL     1      44.193 -10.819   6.840  1.00  0.00    -0.354 OA
HETATM   18  C   UNL     1      45.421 -11.260   6.271  1.00  0.00     0.210 C 
ENDBRANCH  12  17
ENDBRANCH   9  11
ENDBRANCH   7   9
ENDBRANCH   5   7
ENDBRANCH   1   5
BRANCH   2  19
HETATM   19  C   UNL     1      40.949 -12.241   3.232  1.00  0.00     0.082 C 
HETATM   20  C   UNL     1      40.263 -13.559   2.837  1.00  0.00     0.042 C 
HETATM   21  C   UNL     1      40.687 -14.710   3.748  1.00  0.00     0.236 C 
HETATM   22  N   UNL     1      42.193 -14.868   3.727  1.00  0.00    -0.067 N 
HETATM   23  H   UNL     1      42.444 -15.215   2.794  1.00  0.00     0.280 HD
HETATM   24  C   UNL     1      42.956 -13.595   3.988  1.00  0.00     0.236 C 
HETATM   25  C   UNL     1      42.459 -12.449   3.122  1.00  0.00     0.042 C 
BRANCH  22  26
HETATM   26  C   UNL     1      42.661 -15.930   4.717  1.00  0.00     0.273 C 
BRANCH  26  27
HETATM   27  C   UNL     1      43.088 -17.223   4.081  1.00  0.00    -0.033 A 
HETATM   28  C   UNL     1      42.724 -17.529   2.763  1.00  0.00     0.009 A 
HETATM   29  C   UNL     1      43.126 -18.736   2.185  1.00  0.00     0.001 A 
HETATM   30  C   UNL     1      43.887 -19.643   2.918  1.00  0.00     0.000 A 
HETATM   31  C   UNL     1      44.253 -19.348   4.229  1.00  0.00     0.001 A 
HETATM   32  C   UNL     1      43.857 -18.145   4.810  1.00  0.00     0.009 A 
ENDBRANCH  26  27
ENDBRANCH  22  26
ENDBRANCH   2  19
TORSDOF 8
ENDMDL
