MODEL 1
REMARK VINA RESULT:      -9.8      0.000      0.000
REMARK  4 active torsions:
REMARK  status: ('A' for Active; 'I' for Inactive)
REMARK       I    between atoms: N_2  and  C_4 
REMARK       I    between atoms: C_4  and  N_6 
REMARK    1  A    between atoms: N_6  and  C_7 
REMARK    2  A    between atoms: C_12  and  C_13 
REMARK    3  A    between atoms: C_15  and  N_16 
REMARK    4  A    between atoms: N_16  and  C_17 
ROOT
HETATM    1  C   UNL     1      40.269 -13.772   0.996  1.00  0.00     0.164 A 
HETATM    2  N   UNL     1      41.456 -14.361   1.195  1.00  0.00    -0.210 NA
HETATM    3  C   UNL     1      41.959 -14.383   2.439  1.00  0.00     0.143 A 
HETATM    4  C   UNL     1      41.280 -13.802   3.522  1.00  0.00     0.039 A 
HETATM    5  C   UNL     1      41.746 -13.785   4.862  1.00  0.00     0.018 A 
HETATM    6  C   UNL     1      41.001 -13.172   5.867  1.00  0.00     0.001 A 
HETATM    7  C   UNL     1      39.787 -12.580   5.548  1.00  0.00     0.002 A 
HETATM    8  C   UNL     1      39.324 -12.611   4.230  1.00  0.00     0.032 A 
HETATM    9  C   UNL     1      40.047 -13.216   3.209  1.00  0.00     0.073 A 
HETATM   10  N   UNL     1      39.533 -13.211   1.973  1.00  0.00    -0.228 NA
ENDROOT
BRANCH   1  11
HETATM   11  C   UNL     1      39.762 -13.738  -0.396  1.00  0.00     0.039 A 
HETATM   12  C   UNL     1      39.532 -12.543  -1.130  1.00  0.00     0.050 A 
HETATM   13  C   UNL     1      39.013 -12.622  -2.434  1.00  0.00     0.030 A 
HETATM   14  C   UNL     1      38.745 -13.852  -3.036  1.00  0.00     0.002 A 
HETATM   15  C   UNL     1      38.976 -15.028  -2.340  1.00  0.00     0.001 A 
HETATM   16  C   UNL     1      39.473 -14.968  -1.039  1.00  0.00     0.018 A 
BRANCH  12  17
HETATM   17  N   UNL     1      39.775 -11.291  -0.512  1.00  0.00    -0.308 N 
HETATM   18  C   UNL     1      40.730 -10.351  -0.822  1.00  0.00     0.322 C 
HETATM   19  N   UNL     1      40.551  -9.123  -0.181  1.00  0.00    -0.343 N 
HETATM   20  O   UNL     1      41.677 -10.541  -1.580  1.00  0.00    -0.247 OA
HETATM   21  C   UNL     1      41.565  -8.104  -0.395  1.00  0.00     0.154 C 
HETATM   22  C   UNL     1      39.282  -8.641   0.353  1.00  0.00     0.154 C 
HETATM   23  H   UNL     1      39.352 -11.188   0.405  1.00  0.00     0.170 HD
ENDBRANCH  12  17
ENDBRANCH   1  11
BRANCH   3  24
HETATM   24  N   UNL     1      43.226 -14.994   2.646  1.00  0.00    -0.340 N 
HETATM   25  H   UNL     1      43.850 -14.716   1.897  1.00  0.00     0.167 HD
BRANCH  24  26
HETATM   26  C   UNL     1      43.446 -16.336   3.047  1.00  0.00     0.034 A 
HETATM   27  C   UNL     1      43.763 -16.616   4.386  1.00  0.00     0.032 A 
HETATM   28  C   UNL     1      43.968 -17.926   4.846  1.00  0.00     0.034 A 
HETATM   29  C   UNL     1      43.815 -18.955   3.914  1.00  0.00     0.062 A 
HETATM   30  N   UNL     1      43.942 -20.316   4.023  1.00  0.00    -0.278 N 
HETATM   31  C   UNL     1      43.467 -18.727   2.590  1.00  0.00     0.013 A 
HETATM   32  H   UNL     1      44.192 -20.850   4.846  1.00  0.00     0.189 HD
HETATM   33  N   UNL     1      43.693 -20.985   2.883  1.00  0.00    -0.186 NA
HETATM   34  C   UNL     1      43.404 -20.014   2.012  1.00  0.00     0.152 A 
HETATM   35  C   UNL     1      43.266 -17.407   2.152  1.00  0.00     0.044 A 
ENDBRANCH  24  26
ENDBRANCH   3  24
TORSDOF 4
ENDMDL
MODEL 2
REMARK VINA RESULT:      -9.3      8.264     11.816
REMARK  4 active torsions:
REMARK  status: ('A' for Active; 'I' for Inactive)
REMARK       I    between atoms: N_2  and  C_4 
REMARK       I    between atoms: C_4  and  N_6 
REMARK    1  A    between atoms: N_6  and  C_7 
REMARK    2  A    between atoms: C_12  and  C_13 
REMARK    3  A    between atoms: C_15  and  N_16 
REMARK    4  A    between atoms: N_16  and  C_17 
ROOT
HETATM    1  C   UNL     1      42.926  -9.676   8.982  1.00  0.00     0.164 A 
HETATM    2  N   UNL     1      42.872  -9.965  10.289  1.00  0.00    -0.210 NA
HETATM    3  C   UNL     1      41.800  -9.564  10.990  1.00  0.00     0.143 A 
HETATM    4  C   UNL     1      40.750  -8.851  10.391  1.00  0.00     0.039 A 
HETATM    5  C   UNL     1      39.586  -8.394  11.063  1.00  0.00     0.018 A 
HETATM    6  C   UNL     1      38.602  -7.684  10.381  1.00  0.00     0.001 A 
HETATM    7  C   UNL     1      38.764  -7.428   9.026  1.00  0.00     0.002 A 
HETATM    8  C   UNL     1      39.904  -7.892   8.363  1.00  0.00     0.032 A 
HETATM    9  C   UNL     1      40.900  -8.603   9.020  1.00  0.00     0.073 A 
HETATM   10  N   UNL     1      41.959  -9.021   8.315  1.00  0.00    -0.228 NA
ENDROOT
BRANCH   1  11
HETATM   11  C   UNL     1      44.141 -10.106   8.250  1.00  0.00     0.039 A 
HETATM   12  C   UNL     1      44.163 -11.159   7.296  1.00  0.00     0.050 A 
HETATM   13  C   UNL     1      45.378 -11.512   6.685  1.00  0.00     0.030 A 
HETATM   14  C   UNL     1      46.562 -10.831   6.974  1.00  0.00     0.002 A 
HETATM   15  C   UNL     1      46.556  -9.792   7.891  1.00  0.00     0.001 A 
HETATM   16  C   UNL     1      45.363  -9.440   8.520  1.00  0.00     0.018 A 
BRANCH  12  17
HETATM   17  N   UNL     1      42.970 -11.873   7.022  1.00  0.00    -0.308 N 
HETATM   18  C   UNL     1      42.070 -11.682   6.000  1.00  0.00     0.322 C 
HETATM   19  N   UNL     1      41.127 -12.705   5.871  1.00  0.00    -0.343 N 
HETATM   20  O   UNL     1      42.055 -10.706   5.255  1.00  0.00    -0.247 OA
HETATM   21  C   UNL     1      40.092 -12.535   4.864  1.00  0.00     0.154 C 
HETATM   22  C   UNL     1      41.305 -14.066   6.363  1.00  0.00     0.154 C 
HETATM   23  H   UNL     1      42.626 -12.427   7.800  1.00  0.00     0.170 HD
ENDBRANCH  12  17
ENDBRANCH   1  11
BRANCH   3  24
HETATM   24  N   UNL     1      41.752  -9.857  12.380  1.00  0.00    -0.340 N 
HETATM   25  H   UNL     1      40.940 -10.437  12.564  1.00  0.00     0.167 HD
BRANCH  24  26
HETATM   26  C   UNL     1      41.997  -8.940  13.433  1.00  0.00     0.034 A 
HETATM   27  C   UNL     1      42.999  -7.968  13.284  1.00  0.00     0.032 A 
HETATM   28  C   UNL     1      43.272  -7.019  14.282  1.00  0.00     0.034 A 
HETATM   29  C   UNL     1      42.478  -7.062  15.430  1.00  0.00     0.062 A 
HETATM   30  N   UNL     1      42.476  -6.303  16.571  1.00  0.00    -0.278 N 
HETATM   31  C   UNL     1      41.454  -7.982  15.603  1.00  0.00     0.013 A 
HETATM   32  H   UNL     1      43.092  -5.533  16.803  1.00  0.00     0.189 HD
HETATM   33  N   UNL     1      41.528  -6.648  17.461  1.00  0.00    -0.186 NA
HETATM   34  C   UNL     1      40.907  -7.672  16.868  1.00  0.00     0.152 A 
HETATM   35  C   UNL     1      41.199  -8.923  14.591  1.00  0.00     0.044 A 
ENDBRANCH  24  26
ENDBRANCH   3  24
TORSDOF 4
ENDMDL
MODEL 3
REMARK VINA RESULT:      -9.2      3.735      6.478
REMARK  4 active torsions:
REMARK  status: ('A' for Active; 'I' for Inactive)
REMARK       I    between atoms: N_2  and  C_4 
REMARK       I    between atoms: C_4  and  N_6 
REMARK    1  A    between atoms: N_6  and  C_7 
REMARK    2  A    between atoms: C_12  and  C_13 
REMARK    3  A    between atoms: C_15  and  N_16 
REMARK    4  A    between atoms: N_16  and  C_17 
ROOT
HETATM    1  C   UNL     1      43.359 -11.667   5.288  1.00  0.00     0.164 A 
HETATM    2  N   UNL     1      42.905 -12.920   5.430  1.00  0.00    -0.210 NA
HETATM    3  C   UNL     1      42.172 -13.452   4.440  1.00  0.00     0.143 A 
HETATM    4  C   UNL     1      41.867 -12.731   3.276  1.00  0.00     0.039 A 
HETATM    5  C   UNL     1      41.101 -13.224   2.187  1.00  0.00     0.018 A 
HETATM    6  C   UNL     1      40.845 -12.424   1.076  1.00  0.00     0.001 A 
HETATM    7  C   UNL     1      41.354 -11.134   1.036  1.00  0.00     0.002 A 
HETATM    8  C   UNL     1      42.121 -10.656   2.103  1.00  0.00     0.032 A 
HETATM    9  C   UNL     1      42.392 -11.433   3.222  1.00  0.00     0.073 A 
HETATM   10  N   UNL     1      43.141 -10.908   4.199  1.00  0.00    -0.228 NA
ENDROOT
BRANCH   1  11
HETATM   11  C   UNL     1      44.136 -11.103   6.416  1.00  0.00     0.039 A 
HETATM   12  C   UNL     1      43.556 -10.406   7.511  1.00  0.00     0.050 A 
HETATM   13  C   UNL     1      44.388  -9.877   8.511  1.00  0.00     0.030 A 
HETATM   14  C   UNL     1      45.774 -10.045   8.469  1.00  0.00     0.002 A 
HETATM   15  C   UNL     1      46.354 -10.734   7.416  1.00  0.00     0.001 A 
HETATM   16  C   UNL     1      45.546 -11.249   6.405  1.00  0.00     0.018 A 
BRANCH  12  17
HETATM   17  N   UNL     1      42.153 -10.207   7.543  1.00  0.00    -0.308 N 
HETATM   18  C   UNL     1      41.422  -9.158   7.038  1.00  0.00     0.322 C 
HETATM   19  N   UNL     1      40.043  -9.379   7.020  1.00  0.00    -0.343 N 
HETATM   20  O   UNL     1      41.901  -8.099   6.641  1.00  0.00    -0.247 OA
HETATM   21  C   UNL     1      39.197  -8.284   6.576  1.00  0.00     0.154 C 
HETATM   22  C   UNL     1      39.412 -10.694   7.030  1.00  0.00     0.154 C 
HETATM   23  H   UNL     1      41.664 -10.786   8.219  1.00  0.00     0.170 HD
ENDBRANCH  12  17
ENDBRANCH   1  11
BRANCH   3  24
HETATM   24  N   UNL     1      41.678 -14.776   4.601  1.00  0.00    -0.340 N 
HETATM   25  H   UNL     1      41.111 -14.814   5.441  1.00  0.00     0.167 HD
BRANCH  24  26
HETATM   26  C   UNL     1      42.419 -15.969   4.407  1.00  0.00     0.034 A 
HETATM   27  C   UNL     1      43.276 -16.424   5.422  1.00  0.00     0.032 A 
HETATM   28  C   UNL     1      44.016 -17.611   5.297  1.00  0.00     0.034 A 
HETATM   29  C   UNL     1      43.844 -18.343   4.121  1.00  0.00     0.062 A 
HETATM   30  N   UNL     1      44.400 -19.517   3.683  1.00  0.00    -0.278 N 
HETATM   31  C   UNL     1      42.980 -17.949   3.108  1.00  0.00     0.013 A 
HETATM   32  H   UNL     1      45.083 -20.093   4.159  1.00  0.00     0.189 HD
HETATM   33  N   UNL     1      43.959 -19.919   2.477  1.00  0.00    -0.186 NA
HETATM   34  C   UNL     1      43.094 -18.962   2.130  1.00  0.00     0.152 A 
HETATM   35  C   UNL     1      42.249 -16.758   3.255  1.00  0.00     0.044 A 
ENDBRANCH  24  26
ENDBRANCH   3  24
TORSDOF 4
ENDMDL
MODEL 4
REMARK VINA RESULT:      -9.1      2.491      5.479
REMARK  4 active torsions:
REMARK  status: ('A' for Active; 'I' for Inactive)
REMARK       I    between atoms: N_2  and  C_4 
REMARK       I    between atoms: C_4  and  N_6 
REMARK    1  A    between atoms: N_6  and  C_7 
REMARK    2  A    between atoms: C_12  and  C_13 
REMARK    3  A    between atoms: C_15  and  N_16 
REMARK    4  A    between atoms: N_16  and  C_17 
ROOT
HETATM    1  C   UNL     1      40.718 -14.709   1.162  1.00  0.00     0.164 A 
HETATM    2  N   UNL     1      40.202 -14.266   2.317  1.00  0.00    -0.210 NA
HETATM    3  C   UNL     1      40.654 -14.795   3.465  1.00  0.00     0.143 A 
HETATM    4  C   UNL     1      41.639 -15.795   3.481  1.00  0.00     0.039 A 
HETATM    5  C   UNL     1      42.168 -16.401   4.651  1.00  0.00     0.018 A 
HETATM    6  C   UNL     1      43.139 -17.394   4.561  1.00  0.00     0.001 A 
HETATM    7  C   UNL     1      43.596 -17.787   3.311  1.00  0.00     0.002 A 
HETATM    8  C   UNL     1      43.085 -17.178   2.161  1.00  0.00     0.032 A 
HETATM    9  C   UNL     1      42.117 -16.184   2.223  1.00  0.00     0.073 A 
HETATM   10  N   UNL     1      41.682 -15.643   1.078  1.00  0.00    -0.228 NA
ENDROOT
BRANCH   1  11
HETATM   11  C   UNL     1      40.170 -14.125  -0.084  1.00  0.00     0.039 A 
HETATM   12  C   UNL     1      40.271 -12.750  -0.431  1.00  0.00     0.050 A 
HETATM   13  C   UNL     1      39.682 -12.293  -1.622  1.00  0.00     0.030 A 
HETATM   14  C   UNL     1      39.022 -13.165  -2.489  1.00  0.00     0.002 A 
HETATM   15  C   UNL     1      38.926 -14.511  -2.173  1.00  0.00     0.001 A 
HETATM   16  C   UNL     1      39.488 -14.980  -0.987  1.00  0.00     0.018 A 
BRANCH  12  17
HETATM   17  N   UNL     1      40.914 -11.855   0.460  1.00  0.00    -0.308 N 
HETATM   18  C   UNL     1      40.349 -10.940   1.316  1.00  0.00     0.322 C 
HETATM   19  N   UNL     1      41.246 -10.383   2.231  1.00  0.00    -0.343 N 
HETATM   20  O   UNL     1      39.168 -10.604   1.299  1.00  0.00    -0.247 OA
HETATM   21  C   UNL     1      40.740  -9.347   3.115  1.00  0.00     0.154 C 
HETATM   22  C   UNL     1      42.502 -10.998   2.641  1.00  0.00     0.154 C 
HETATM   23  H   UNL     1      41.902 -11.714   0.270  1.00  0.00     0.170 HD
ENDBRANCH  12  17
ENDBRANCH   1  11
BRANCH   3  24
HETATM   24  N   UNL     1      40.094 -14.336   4.688  1.00  0.00    -0.340 N 
HETATM   25  H   UNL     1      39.109 -14.578   4.709  1.00  0.00     0.167 HD
BRANCH  24  26
HETATM   26  C   UNL     1      40.342 -13.080   5.297  1.00  0.00     0.034 A 
HETATM   27  C   UNL     1      39.263 -12.243   5.623  1.00  0.00     0.032 A 
HETATM   28  C   UNL     1      39.446 -10.999   6.248  1.00  0.00     0.034 A 
HETATM   29  C   UNL     1      40.757 -10.635   6.562  1.00  0.00     0.062 A 
HETATM   30  N   UNL     1      41.279  -9.517   7.158  1.00  0.00    -0.278 N 
HETATM   31  C   UNL     1      41.849 -11.447   6.291  1.00  0.00     0.013 A 
HETATM   32  H   UNL     1      40.778  -8.702   7.490  1.00  0.00     0.189 HD
HETATM   33  N   UNL     1      42.616  -9.545   7.305  1.00  0.00    -0.186 NA
HETATM   34  C   UNL     1      42.960 -10.722   6.775  1.00  0.00     0.152 A 
HETATM   35  C   UNL     1      41.643 -12.689   5.665  1.00  0.00     0.044 A 
ENDBRANCH  24  26
ENDBRANCH   3  24
TORSDOF 4
ENDMDL
MODEL 5
REMARK VINA RESULT:      -9.0      4.277      6.770
REMARK  4 active torsions:
REMARK  status: ('A' for Active; 'I' for Inactive)
REMARK       I    between atoms: N_2  and  C_4 
REMARK       I    between atoms: C_4  and  N_6 
REMARK    1  A    between atoms: N_6  and  C_7 
REMARK    2  A    between atoms: C_12  and  C_13 
REMARK    3  A    between atoms: C_15  and  N_16 
REMARK    4  A    between atoms: N_16  and  C_17 
ROOT
HETATM    1  C   UNL     1      42.927 -11.423   6.158  1.00  0.00     0.164 A 
HETATM    2  N   UNL     1      42.693 -12.711   6.448  1.00  0.00    -0.210 NA
HETATM    3  C   UNL     1      41.727 -13.354   5.774  1.00  0.00     0.143 A 
HETATM    4  C   UNL     1      40.961 -12.713   4.788  1.00  0.00     0.039 A 
HETATM    5  C   UNL     1      39.926 -13.324   4.033  1.00  0.00     0.018 A 
HETATM    6  C   UNL     1      39.214 -12.598   3.081  1.00  0.00     0.001 A 
HETATM    7  C   UNL     1      39.531 -11.264   2.868  1.00  0.00     0.002 A 
HETATM    8  C   UNL     1      40.561 -10.668   3.602  1.00  0.00     0.032 A 
HETATM    9  C   UNL     1      41.287 -11.370   4.556  1.00  0.00     0.073 A 
HETATM   10  N   UNL     1      42.263 -10.733   5.213  1.00  0.00    -0.228 NA
ENDROOT
BRANCH   1  11
HETATM   11  C   UNL     1      43.978 -10.738   6.946  1.00  0.00     0.039 A 
HETATM   12  C   UNL     1      43.730  -9.648   7.824  1.00  0.00     0.050 A 
HETATM   13  C   UNL     1      44.805  -9.045   8.497  1.00  0.00     0.030 A 
HETATM   14  C   UNL     1      46.112  -9.511   8.345  1.00  0.00     0.002 A 
HETATM   15  C   UNL     1      46.370 -10.582   7.504  1.00  0.00     0.001 A 
HETATM   16  C   UNL     1      45.318 -11.181   6.813  1.00  0.00     0.018 A 
BRANCH  12  17
HETATM   17  N   UNL     1      42.409  -9.152   7.959  1.00  0.00    -0.308 N 
HETATM   18  C   UNL     1      41.887  -7.961   7.511  1.00  0.00     0.322 C 
HETATM   19  N   UNL     1      40.496  -7.880   7.594  1.00  0.00    -0.343 N 
HETATM   20  O   UNL     1      42.555  -7.024   7.082  1.00  0.00    -0.247 OA
HETATM   21  C   UNL     1      39.877  -6.620   7.215  1.00  0.00     0.154 C 
HETATM   22  C   UNL     1      39.598  -9.028   7.647  1.00  0.00     0.154 C 
HETATM   23  H   UNL     1      41.855  -9.624   8.668  1.00  0.00     0.170 HD
ENDBRANCH  12  17
ENDBRANCH   1  11
BRANCH   3  24
HETATM   24  N   UNL     1      41.469 -14.715   6.094  1.00  0.00    -0.340 N 
HETATM   25  H   UNL     1      41.205 -14.776   7.072  1.00  0.00     0.167 HD
BRANCH  24  26
HETATM   26  C   UNL     1      42.247 -15.827   5.685  1.00  0.00     0.034 A 
HETATM   27  C   UNL     1      42.817 -16.667   6.655  1.00  0.00     0.032 A 
HETATM   28  C   UNL     1      43.577 -17.797   6.310  1.00  0.00     0.034 A 
HETATM   29  C   UNL     1      43.722 -18.070   4.949  1.00  0.00     0.062 A 
HETATM   30  N   UNL     1      44.385 -19.066   4.280  1.00  0.00    -0.278 N 
HETATM   31  C   UNL     1      43.146 -17.288   3.958  1.00  0.00     0.013 A 
HETATM   32  H   UNL     1      44.928 -19.823   4.678  1.00  0.00     0.189 HD
HETATM   33  N   UNL     1      44.275 -18.998   2.941  1.00  0.00    -0.186 NA
HETATM   34  C   UNL     1      43.519 -17.913   2.749  1.00  0.00     0.152 A 
HETATM   35  C   UNL     1      42.389 -16.162   4.326  1.00  0.00     0.044 A 
ENDBRANCH  24  26
ENDBRANCH   3  24
TORSDOF 4
ENDMDL
MODEL 6
REMARK VINA RESULT:      -9.0      3.309      7.554
REMARK  4 active torsions:
REMARK  status: ('A' for Active; 'I' for Inactive)
REMARK       I    between atoms: N_2  and  C_4 
REMARK       I    between atoms: C_4  and  N_6 
REMARK    1  A    between atoms: N_6  and  C_7 
REMARK    2  A    between atoms: C_12  and  C_13 
REMARK    3  A    between atoms: C_15  and  N_16 
REMARK    4  A    between atoms: N_16  and  C_17 
ROOT
HETATM    1  C   UNL     1      42.551 -16.180   2.554  1.00  0.00     0.164 A 
HETATM    2  N   UNL     1      43.161 -15.067   2.984  1.00  0.00    -0.210 NA
HETATM    3  C   UNL     1      42.748 -13.884   2.503  1.00  0.00     0.143 A 
HETATM    4  C   UNL     1      41.709 -13.789   1.565  1.00  0.00     0.039 A 
HETATM    5  C   UNL     1      41.217 -12.578   1.012  1.00  0.00     0.018 A 
HETATM    6  C   UNL     1      40.185 -12.590   0.077  1.00  0.00     0.001 A 
HETATM    7  C   UNL     1      39.631 -13.803  -0.309  1.00  0.00     0.002 A 
HETATM    8  C   UNL     1      40.107 -14.993   0.248  1.00  0.00     0.032 A 
HETATM    9  C   UNL     1      41.135 -15.009   1.183  1.00  0.00     0.073 A 
HETATM   10  N   UNL     1      41.531 -16.188   1.677  1.00  0.00    -0.228 NA
ENDROOT
BRANCH   1  11
HETATM   11  C   UNL     1      43.057 -17.469   3.082  1.00  0.00     0.039 A 
HETATM   12  C   UNL     1      43.079 -17.809   4.462  1.00  0.00     0.050 A 
HETATM   13  C   UNL     1      43.616 -19.045   4.860  1.00  0.00     0.030 A 
HETATM   14  C   UNL     1      44.103 -19.961   3.926  1.00  0.00     0.002 A 
HETATM   15  C   UNL     1      44.077 -19.652   2.576  1.00  0.00     0.001 A 
HETATM   16  C   UNL     1      43.565 -18.422   2.164  1.00  0.00     0.018 A 
BRANCH  12  17
HETATM   17  N   UNL     1      42.613 -16.871   5.416  1.00  0.00    -0.308 N 
HETATM   18  C   UNL     1      43.342 -16.025   6.218  1.00  0.00     0.322 C 
HETATM   19  N   UNL     1      42.577 -15.057   6.873  1.00  0.00    -0.343 N 
HETATM   20  O   UNL     1      44.558 -16.091   6.380  1.00  0.00    -0.247 OA
HETATM   21  C   UNL     1      43.267 -14.177   7.802  1.00  0.00     0.154 C 
HETATM   22  C   UNL     1      41.264 -14.600   6.434  1.00  0.00     0.154 C 
HETATM   23  H   UNL     1      41.649 -17.011   5.703  1.00  0.00     0.170 HD
ENDBRANCH  12  17
ENDBRANCH   1  11
BRANCH   3  24
HETATM   24  N   UNL     1      43.407 -12.705   2.949  1.00  0.00    -0.340 N 
HETATM   25  H   UNL     1      44.401 -12.798   2.767  1.00  0.00     0.167 HD
BRANCH  24  26
HETATM   26  C   UNL     1      43.153 -12.019   4.163  1.00  0.00     0.034 A 
HETATM   27  C   UNL     1      41.838 -11.646   4.485  1.00  0.00     0.032 A 
HETATM   28  C   UNL     1      41.522 -10.986   5.683  1.00  0.00     0.034 A 
HETATM   29  C   UNL     1      42.575 -10.737   6.565  1.00  0.00     0.062 A 
HETATM   30  N   UNL     1      42.618 -10.126   7.791  1.00  0.00    -0.278 N 
HETATM   31  C   UNL     1      43.883 -11.120   6.304  1.00  0.00     0.013 A 
HETATM   32  H   UNL     1      41.848  -9.713   8.304  1.00  0.00     0.189 HD
HETATM   33  N   UNL     1      43.842 -10.093   8.348  1.00  0.00    -0.186 NA
HETATM   34  C   UNL     1      44.610 -10.700   7.439  1.00  0.00     0.152 A 
HETATM   35  C   UNL     1      44.177 -11.780   5.098  1.00  0.00     0.044 A 
ENDBRANCH  24  26
ENDBRANCH   3  24
TORSDOF 4
ENDMDL
MODEL 7
REMARK VINA RESULT:      -9.0      3.946      6.881
REMARK  4 active torsions:
REMARK  status: ('A' for Active; 'I' for Inactive)
REMARK       I    between atoms: N_2  and  C_4 
REMARK       I    between atoms: C_4  and  N_6 
REMARK    1  A    between atoms: N_6  and  C_7 
REMARK    2  A    between atoms: C_12  and  C_13 
REMARK    3  A    between atoms: C_15  and  N_16 
REMARK    4  A    between atoms: N_16  and  C_17 
ROOT
HETATM    1  C   UNL     1      42.151 -13.826   3.882  1.00  0.00     0.164 A 
HETATM    2  N   UNL     1      43.100 -13.002   4.347  1.00  0.00    -0.210 NA
HETATM    3  C   UNL     1      42.753 -11.751   4.685  1.00  0.00     0.143 A 
HETATM    4  C   UNL     1      41.434 -11.289   4.557  1.00  0.00     0.039 A 
HETATM    5  C   UNL     1      40.990  -9.984   4.893  1.00  0.00     0.018 A 
HETATM    6  C   UNL     1      39.657  -9.618   4.719  1.00  0.00     0.001 A 
HETATM    7  C   UNL     1      38.757 -10.547   4.218  1.00  0.00     0.002 A 
HETATM    8  C   UNL     1      39.193 -11.837   3.901  1.00  0.00     0.032 A 
HETATM    9  C   UNL     1      40.517 -12.228   4.066  1.00  0.00     0.073 A 
HETATM   10  N   UNL     1      40.857 -13.483   3.748  1.00  0.00    -0.228 NA
ENDROOT
BRANCH   1  11
HETATM   11  C   UNL     1      42.579 -15.188   3.488  1.00  0.00     0.039 A 
HETATM   12  C   UNL     1      42.506 -15.692   2.161  1.00  0.00     0.050 A 
HETATM   13  C   UNL     1      42.904 -17.014   1.901  1.00  0.00     0.030 A 
HETATM   14  C   UNL     1      43.398 -17.837   2.914  1.00  0.00     0.002 A 
HETATM   15  C   UNL     1      43.490 -17.358   4.211  1.00  0.00     0.001 A 
HETATM   16  C   UNL     1      43.082 -16.055   4.491  1.00  0.00     0.018 A 
BRANCH  12  17
HETATM   17  N   UNL     1      41.977 -14.870   1.134  1.00  0.00    -0.308 N 
HETATM   18  C   UNL     1      40.717 -14.886   0.584  1.00  0.00     0.322 C 
HETATM   19  N   UNL     1      40.440 -13.791  -0.238  1.00  0.00    -0.343 N 
HETATM   20  O   UNL     1      39.887 -15.772   0.764  1.00  0.00    -0.247 OA
HETATM   21  C   UNL     1      39.156 -13.777  -0.920  1.00  0.00     0.154 C 
HETATM   22  C   UNL     1      41.128 -12.507  -0.171  1.00  0.00     0.154 C 
HETATM   23  H   UNL     1      42.679 -14.380   0.588  1.00  0.00     0.170 HD
ENDBRANCH  12  17
ENDBRANCH   1  11
BRANCH   3  24
HETATM   24  N   UNL     1      43.764 -10.873   5.164  1.00  0.00    -0.340 N 
HETATM   25  H   UNL     1      44.553 -10.905   4.526  1.00  0.00     0.167 HD
BRANCH  24  26
HETATM   26  C   UNL     1      44.179 -10.739   6.513  1.00  0.00     0.034 A 
HETATM   27  C   UNL     1      45.538 -10.880   6.836  1.00  0.00     0.032 A 
HETATM   28  C   UNL     1      46.010 -10.734   8.150  1.00  0.00     0.034 A 
HETATM   29  C   UNL     1      45.069 -10.413   9.130  1.00  0.00     0.062 A 
HETATM   30  N   UNL     1      45.185 -10.205  10.480  1.00  0.00    -0.278 N 
HETATM   31  C   UNL     1      43.722 -10.229   8.848  1.00  0.00     0.013 A 
HETATM   32  H   UNL     1      46.025 -10.260  11.044  1.00  0.00     0.189 HD
HETATM   33  N   UNL     1      44.028  -9.892  11.091  1.00  0.00    -0.186 NA
HETATM   34  C   UNL     1      43.139  -9.907  10.093  1.00  0.00     0.152 A 
HETATM   35  C   UNL     1      43.271 -10.379   7.525  1.00  0.00     0.044 A 
ENDBRANCH  24  26
ENDBRANCH   3  24
TORSDOF 4
ENDMDL
MODEL 8
REMARK VINA RESULT:      -8.9      3.750      7.739
REMARK  4 active torsions:
REMARK  status: ('A' for Active; 'I' for Inactive)
REMARK       I    between atoms: N_2  and  C_4 
REMARK       I    between atoms: C_4  and  N_6 
REMARK    1  A    between atoms: N_6  and  C_7 
REMARK    2  A    between atoms: C_12  and  C_13 
REMARK    3  A    between atoms: C_15  and  N_16 
REMARK    4  A    between atoms: N_16  and  C_17 
ROOT
HETATM    1  C   UNL     1      43.759 -12.227   6.682  1.00  0.00     0.164 A 
HETATM    2  N   UNL     1      43.589 -12.188   5.353  1.00  0.00    -0.210 NA
HETATM    3  C   UNL     1      43.230 -13.315   4.720  1.00  0.00     0.143 A 
HETATM    4  C   UNL     1      43.038 -14.522   5.409  1.00  0.00     0.039 A 
HETATM    5  C   UNL     1      42.658 -15.752   4.812  1.00  0.00     0.018 A 
HETATM    6  C   UNL     1      42.502 -16.901   5.584  1.00  0.00     0.001 A 
HETATM    7  C   UNL     1      42.715 -16.833   6.954  1.00  0.00     0.002 A 
HETATM    8  C   UNL     1      43.074 -15.617   7.542  1.00  0.00     0.032 A 
HETATM    9  C   UNL     1      43.235 -14.456   6.795  1.00  0.00     0.073 A 
HETATM   10  N   UNL     1      43.573 -13.328   7.431  1.00  0.00    -0.228 NA
ENDROOT
BRANCH   1  11
HETATM   11  C   UNL     1      44.188 -10.971   7.341  1.00  0.00     0.039 A 
HETATM   12  C   UNL     1      43.304  -9.916   7.693  1.00  0.00     0.050 A 
HETATM   13  C   UNL     1      43.820  -8.749   8.281  1.00  0.00     0.030 A 
HETATM   14  C   UNL     1      45.182  -8.614   8.554  1.00  0.00     0.002 A 
HETATM   15  C   UNL     1      46.057  -9.639   8.230  1.00  0.00     0.001 A 
HETATM   16  C   UNL     1      45.565 -10.796   7.629  1.00  0.00     0.018 A 
BRANCH  12  17
HETATM   17  N   UNL     1      41.924 -10.036   7.391  1.00  0.00    -0.308 N 
HETATM   18  C   UNL     1      41.223  -9.490   6.342  1.00  0.00     0.322 C 
HETATM   19  N   UNL     1      39.929  -9.995   6.196  1.00  0.00    -0.343 N 
HETATM   20  O   UNL     1      41.657  -8.625   5.587  1.00  0.00    -0.247 OA
HETATM   21  C   UNL     1      39.097  -9.409   5.158  1.00  0.00     0.154 C 
HETATM   22  C   UNL     1      39.477 -11.284   6.707  1.00  0.00     0.154 C 
HETATM   23  H   UNL     1      41.354 -10.364   8.165  1.00  0.00     0.170 HD
ENDBRANCH  12  17
ENDBRANCH   1  11
BRANCH   3  24
HETATM   24  N   UNL     1      43.066 -13.275   3.308  1.00  0.00    -0.340 N 
HETATM   25  H   UNL     1      43.832 -12.747   2.905  1.00  0.00     0.167 HD
BRANCH  24  26
HETATM   26  C   UNL     1      41.848 -13.051   2.618  1.00  0.00     0.034 A 
HETATM   27  C   UNL     1      40.797 -12.383   3.268  1.00  0.00     0.032 A 
HETATM   28  C   UNL     1      39.577 -12.112   2.628  1.00  0.00     0.034 A 
HETATM   29  C   UNL     1      39.458 -12.513   1.297  1.00  0.00     0.062 A 
HETATM   30  N   UNL     1      38.429 -12.409   0.397  1.00  0.00    -0.278 N 
HETATM   31  C   UNL     1      40.483 -13.144   0.605  1.00  0.00     0.013 A 
HETATM   32  H   UNL     1      37.512 -12.006   0.550  1.00  0.00     0.189 HD
HETATM   33  N   UNL     1      38.708 -12.910  -0.820  1.00  0.00    -0.186 NA
HETATM   34  C   UNL     1      39.960 -13.356  -0.689  1.00  0.00     0.152 A 
HETATM   35  C   UNL     1      41.696 -13.405   1.265  1.00  0.00     0.044 A 
ENDBRANCH  24  26
ENDBRANCH   3  24
TORSDOF 4
ENDMDL
MODEL 9
REMARK VINA RESULT:      -8.8     15.362     18.152
REMARK  4 active torsions:
REMARK  status: ('A' for Active; 'I' for Inactive)
REMARK       I    between atoms: N_2  and  C_4 
REMARK       I    between atoms: C_4  and  N_6 
REMARK    1  A    between atoms: N_6  and  C_7 
REMARK    2  A    between atoms: C_12  and  C_13 
REMARK    3  A    between atoms: C_15  and  N_16 
REMARK    4  A    between atoms: N_16  and  C_17 
ROOT
HETATM    1  C   UNL     1      46.669 -29.935   2.142  1.00  0.00     0.164 A 
HETATM    2  N   UNL     1      46.379 -29.176   1.076  1.00  0.00    -0.210 NA
HETATM    3  C   UNL     1      45.092 -29.028   0.727  1.00  0.00     0.143 A 
HETATM    4  C   UNL     1      44.055 -29.649   1.440  1.00  0.00     0.039 A 
HETATM    5  C   UNL     1      42.674 -29.539   1.134  1.00  0.00     0.018 A 
HETATM    6  C   UNL     1      41.719 -30.205   1.900  1.00  0.00     0.001 A 
HETATM    7  C   UNL     1      42.130 -30.976   2.978  1.00  0.00     0.002 A 
HETATM    8  C   UNL     1      43.490 -31.070   3.287  1.00  0.00     0.032 A 
HETATM    9  C   UNL     1      44.462 -30.416   2.540  1.00  0.00     0.073 A 
HETATM   10  N   UNL     1      45.744 -30.548   2.903  1.00  0.00    -0.228 NA
ENDROOT
BRANCH   1  11
HETATM   11  C   UNL     1      48.102 -30.102   2.477  1.00  0.00     0.039 A 
HETATM   12  C   UNL     1      49.006 -30.904   1.728  1.00  0.00     0.050 A 
HETATM   13  C   UNL     1      50.339 -31.025   2.154  1.00  0.00     0.030 A 
HETATM   14  C   UNL     1      50.805 -30.351   3.284  1.00  0.00     0.002 A 
HETATM   15  C   UNL     1      49.942 -29.553   4.018  1.00  0.00     0.001 A 
HETATM   16  C   UNL     1      48.611 -29.437   3.621  1.00  0.00     0.018 A 
BRANCH  12  17
HETATM   17  N   UNL     1      48.530 -31.614   0.597  1.00  0.00    -0.308 N 
HETATM   18  C   UNL     1      48.546 -31.236  -0.725  1.00  0.00     0.322 C 
HETATM   19  N   UNL     1      48.221 -32.261  -1.616  1.00  0.00    -0.343 N 
HETATM   20  O   UNL     1      48.804 -30.103  -1.124  1.00  0.00    -0.247 OA
HETATM   21  C   UNL     1      48.138 -31.917  -3.026  1.00  0.00     0.154 C 
HETATM   22  C   UNL     1      48.341 -33.684  -1.324  1.00  0.00     0.154 C 
HETATM   23  H   UNL     1      47.898 -32.378   0.818  1.00  0.00     0.170 HD
ENDBRANCH  12  17
ENDBRANCH   1  11
BRANCH   3  24
HETATM   24  N   UNL     1      44.788 -28.235  -0.414  1.00  0.00    -0.340 N 
HETATM   25  H   UNL     1      43.987 -27.650  -0.202  1.00  0.00     0.167 HD
BRANCH  24  26
HETATM   26  C   UNL     1      44.774 -28.684  -1.759  1.00  0.00     0.034 A 
HETATM   27  C   UNL     1      45.110 -27.792  -2.789  1.00  0.00     0.032 A 
HETATM   28  C   UNL     1      45.138 -28.186  -4.137  1.00  0.00     0.034 A 
HETATM   29  C   UNL     1      44.840 -29.521  -4.412  1.00  0.00     0.062 A 
HETATM   30  N   UNL     1      44.774 -30.222  -5.589  1.00  0.00    -0.278 N 
HETATM   31  C   UNL     1      44.537 -30.445  -3.422  1.00  0.00     0.013 A 
HETATM   32  H   UNL     1      44.931 -29.872  -6.526  1.00  0.00     0.189 HD
HETATM   33  N   UNL     1      44.466 -31.523  -5.439  1.00  0.00    -0.186 NA
HETATM   34  C   UNL     1      44.323 -31.655  -4.118  1.00  0.00     0.152 A 
HETATM   35  C   UNL     1      44.517 -30.029  -2.079  1.00  0.00     0.044 A 
ENDBRANCH  24  26
ENDBRANCH   3  24
TORSDOF 4
ENDMDL
MODEL 10
REMARK VINA RESULT:      -8.5      5.002      7.975
REMARK  4 active torsions:
REMARK  status: ('A' for Active; 'I' for Inactive)
REMARK       I    between atoms: N_2  and  C_4 
REMARK       I    between atoms: C_4  and  N_6 
REMARK    1  A    between atoms: N_6  and  C_7 
REMARK    2  A    between atoms: C_12  and  C_13 
REMARK    3  A    between atoms: C_15  and  N_16 
REMARK    4  A    between atoms: N_16  and  C_17 
ROOT
HETATM    1  C   UNL     1      42.564 -10.501   7.100  1.00  0.00     0.164 A 
HETATM    2  N   UNL     1      42.806 -11.608   6.386  1.00  0.00    -0.210 NA
HETATM    3  C   UNL     1      41.938 -11.950   5.421  1.00  0.00     0.143 A 
HETATM    4  C   UNL     1      40.792 -11.187   5.152  1.00  0.00     0.039 A 
HETATM    5  C   UNL     1      39.831 -11.482   4.150  1.00  0.00     0.018 A 
HETATM    6  C   UNL     1      38.719 -10.664   3.968  1.00  0.00     0.001 A 
HETATM    7  C   UNL     1      38.558  -9.545   4.772  1.00  0.00     0.002 A 
HETATM    8  C   UNL     1      39.514  -9.248   5.748  1.00  0.00     0.032 A 
HETATM    9  C   UNL     1      40.633 -10.046   5.950  1.00  0.00     0.073 A 
HETATM   10  N   UNL     1      41.508  -9.692   6.899  1.00  0.00    -0.228 NA
ENDROOT
BRANCH   1  11
HETATM   11  C   UNL     1      43.526 -10.174   8.179  1.00  0.00     0.039 A 
HETATM   12  C   UNL     1      43.148  -9.823   9.503  1.00  0.00     0.050 A 
HETATM   13  C   UNL     1      44.141  -9.494  10.441  1.00  0.00     0.030 A 
HETATM   14  C   UNL     1      45.496  -9.532  10.109  1.00  0.00     0.002 A 
HETATM   15  C   UNL     1      45.884  -9.885   8.826  1.00  0.00     0.001 A 
HETATM   16  C   UNL     1      44.911 -10.196   7.877  1.00  0.00     0.018 A 
BRANCH  12  17
HETATM   17  N   UNL     1      41.772  -9.755   9.837  1.00  0.00    -0.308 N 
HETATM   18  C   UNL     1      40.995  -8.643  10.059  1.00  0.00     0.322 C 
HETATM   19  N   UNL     1      39.625  -8.907  10.130  1.00  0.00    -0.343 N 
HETATM   20  O   UNL     1      41.431  -7.503  10.200  1.00  0.00    -0.247 OA
HETATM   21  C   UNL     1      38.746  -7.793  10.443  1.00  0.00     0.154 C 
HETATM   22  C   UNL     1      38.974 -10.076   9.551  1.00  0.00     0.154 C 
HETATM   23  H   UNL     1      41.381 -10.628  10.180  1.00  0.00     0.170 HD
ENDBRANCH  12  17
ENDBRANCH   1  11
BRANCH   3  24
HETATM   24  N   UNL     1      42.189 -13.135   4.675  1.00  0.00    -0.340 N 
HETATM   25  H   UNL     1      41.552 -13.165   3.886  1.00  0.00     0.167 HD
BRANCH  24  26
HETATM   26  C   UNL     1      42.424 -14.424   5.215  1.00  0.00     0.034 A 
HETATM   27  C   UNL     1      41.857 -14.770   6.452  1.00  0.00     0.032 A 
HETATM   28  C   UNL     1      42.036 -16.039   7.026  1.00  0.00     0.034 A 
HETATM   29  C   UNL     1      42.785 -16.964   6.296  1.00  0.00     0.062 A 
HETATM   30  N   UNL     1      43.146 -18.260   6.556  1.00  0.00    -0.278 N 
HETATM   31  C   UNL     1      43.333 -16.676   5.053  1.00  0.00     0.013 A 
HETATM   32  H   UNL     1      42.928 -18.809   7.378  1.00  0.00     0.189 HD
HETATM   33  N   UNL     1      43.872 -18.836   5.580  1.00  0.00    -0.186 NA
HETATM   34  C   UNL     1      43.983 -17.868   4.667  1.00  0.00     0.152 A 
HETATM   35  C   UNL     1      43.141 -15.399   4.498  1.00  0.00     0.044 A 
ENDBRANCH  24  26
ENDBRANCH   3  24
TORSDOF 4
ENDMDL
