MODEL 1
REMARK VINA RESULT:      -8.3      0.000      0.000
REMARK  4 active torsions:
REMARK  status: ('A' for Active; 'I' for Inactive)
REMARK    1  A    between atoms: C_5  and  N_6 
REMARK    2  A    between atoms: C_11  and  C_12 
REMARK    3  A    between atoms: C_13  and  O_14 
REMARK    4  A    between atoms: C_18  and  C_19 
REMARK       I    between atoms: C_19  and  N_20 
ROOT
HETATM    1  C   UNL     1      42.693 -11.241   6.200  1.00  0.00     0.023 A 
HETATM    2  C   UNL     1      41.402 -10.930   6.462  1.00  0.00     0.153 A 
HETATM    3  N   UNL     1      41.071 -10.073   7.457  1.00  0.00    -0.303 N 
HETATM    4  C   UNL     1      41.966  -9.411   8.243  1.00  0.00     0.263 A 
HETATM    5  O   UNL     1      41.581  -8.651   9.129  1.00  0.00    -0.267 OA
HETATM    6  C   UNL     1      43.419  -9.667   7.972  1.00  0.00     0.106 A 
HETATM    7  C   UNL     1      43.745 -10.586   7.024  1.00  0.00    -0.026 A 
HETATM    8  C   UNL     1      45.164 -11.024   6.730  1.00  0.00     0.050 C 
HETATM    9  H   UNL     1      40.089  -9.888   7.618  1.00  0.00     0.171 HD
ENDROOT
BRANCH   1  10
HETATM   10  C   UNL     1      42.991 -12.173   5.119  1.00  0.00     0.035 C 
HETATM   11  C   UNL     1      43.219 -13.488   5.221  1.00  0.00     0.061 A 
HETATM   12  C   UNL     1      43.309 -14.424   6.352  1.00  0.00     0.067 A 
HETATM   13  C   UNL     1      43.335 -14.347   4.015  1.00  0.00     0.281 A 
HETATM   14  N   UNL     1      43.382 -15.666   5.954  1.00  0.00    -0.168 NA
HETATM   15  C   UNL     1      43.306 -14.034   7.792  1.00  0.00     0.073 C 
HETATM   16  N   UNL     1      43.387 -15.638   4.558  1.00  0.00    -0.197 N 
HETATM   17  O   UNL     1      43.313 -13.935   2.869  1.00  0.00    -0.265 OA
BRANCH  16  18
HETATM   18  C   UNL     1      43.360 -16.870   3.857  1.00  0.00     0.062 A 
HETATM   19  C   UNL     1      44.118 -17.973   4.268  1.00  0.00     0.032 A 
HETATM   20  C   UNL     1      44.118 -19.165   3.532  1.00  0.00     0.009 A 
HETATM   21  C   UNL     1      43.356 -19.284   2.370  1.00  0.00    -0.062 A 
HETATM   22  C   UNL     1      43.370 -20.545   1.558  1.00  0.00     0.048 C 
HETATM   23  C   UNL     1      42.582 -18.195   1.959  1.00  0.00     0.009 A 
HETATM   24  C   UNL     1      42.582 -17.006   2.697  1.00  0.00     0.032 A 
ENDBRANCH  16  18
ENDBRANCH   1  10
BRANCH   2  25
HETATM   25  O   UNL     1      40.304 -11.401   5.797  1.00  0.00    -0.345 OA
HETATM   26  H   UNL     1      40.588 -11.977   5.068  1.00  0.00     0.219 HD
ENDBRANCH   2  25
BRANCH   6  27
HETATM   27  C   UNL     1      44.465  -8.888   8.714  1.00  0.00     0.255 C 
HETATM   28  N   UNL     1      44.722  -9.272   9.994  1.00  0.00    -0.366 N 
HETATM   29  H   UNL     1      44.091  -9.904  10.483  1.00  0.00     0.159 HD
HETATM   30  H   UNL     1      45.321  -8.677  10.549  1.00  0.00     0.159 HD
HETATM   31  O   UNL     1      45.052  -7.920   8.243  1.00  0.00    -0.268 OA
ENDBRANCH   6  27
TORSDOF 4
ENDMDL
MODEL 2
REMARK VINA RESULT:      -8.2      2.678      8.717
REMARK  4 active torsions:
REMARK  status: ('A' for Active; 'I' for Inactive)
REMARK    1  A    between atoms: C_5  and  N_6 
REMARK    2  A    between atoms: C_11  and  C_12 
REMARK    3  A    between atoms: C_13  and  O_14 
REMARK    4  A    between atoms: C_18  and  C_19 
REMARK       I    between atoms: C_19  and  N_20 
ROOT
HETATM    1  C   UNL     1      43.368 -12.802   4.728  1.00  0.00     0.023 A 
HETATM    2  C   UNL     1      43.307 -12.137   3.550  1.00  0.00     0.153 A 
HETATM    3  N   UNL     1      42.766 -12.705   2.446  1.00  0.00    -0.303 N 
HETATM    4  C   UNL     1      42.195 -13.942   2.409  1.00  0.00     0.263 A 
HETATM    5  O   UNL     1      41.728 -14.386   1.362  1.00  0.00    -0.267 OA
HETATM    6  C   UNL     1      42.179 -14.716   3.695  1.00  0.00     0.106 A 
HETATM    7  C   UNL     1      42.792 -14.172   4.780  1.00  0.00    -0.026 A 
HETATM    8  C   UNL     1      42.950 -14.891   6.103  1.00  0.00     0.050 C 
HETATM    9  H   UNL     1      42.759 -12.167   1.589  1.00  0.00     0.171 HD
ENDROOT
BRANCH   1  10
HETATM   10  C   UNL     1      43.966 -12.142   5.882  1.00  0.00     0.035 C 
HETATM   11  C   UNL     1      43.396 -11.232   6.682  1.00  0.00     0.061 A 
HETATM   12  C   UNL     1      42.091 -10.556   6.692  1.00  0.00     0.067 A 
HETATM   13  C   UNL     1      44.063 -10.775   7.927  1.00  0.00     0.281 A 
HETATM   14  N   UNL     1      41.909  -9.859   7.781  1.00  0.00    -0.168 NA
HETATM   15  C   UNL     1      41.069 -10.646   5.608  1.00  0.00     0.073 C 
HETATM   16  N   UNL     1      43.076  -9.988   8.537  1.00  0.00    -0.197 N 
HETATM   17  O   UNL     1      45.180 -11.113   8.278  1.00  0.00    -0.265 OA
BRANCH  16  18
HETATM   18  C   UNL     1      43.113  -9.406   9.829  1.00  0.00     0.062 A 
HETATM   19  C   UNL     1      43.227 -10.183  10.988  1.00  0.00     0.032 A 
HETATM   20  C   UNL     1      43.209  -9.592  12.259  1.00  0.00     0.009 A 
HETATM   21  C   UNL     1      43.081  -8.210  12.399  1.00  0.00    -0.062 A 
HETATM   22  C   UNL     1      43.032  -7.570  13.755  1.00  0.00     0.048 C 
HETATM   23  C   UNL     1      42.983  -7.423  11.248  1.00  0.00     0.009 A 
HETATM   24  C   UNL     1      43.003  -8.015   9.980  1.00  0.00     0.032 A 
ENDBRANCH  16  18
ENDBRANCH   1  10
BRANCH   2  25
HETATM   25  O   UNL     1      43.750 -10.865   3.314  1.00  0.00    -0.345 OA
HETATM   26  H   UNL     1      42.990 -10.279   3.161  1.00  0.00     0.219 HD
ENDBRANCH   2  25
BRANCH   6  27
HETATM   27  C   UNL     1      41.464 -16.033   3.763  1.00  0.00     0.255 C 
HETATM   28  N   UNL     1      40.159 -16.003   4.148  1.00  0.00    -0.366 N 
HETATM   29  H   UNL     1      39.762 -15.167   4.572  1.00  0.00     0.159 HD
HETATM   30  H   UNL     1      39.705 -16.888   4.329  1.00  0.00     0.159 HD
HETATM   31  O   UNL     1      42.002 -17.110   3.531  1.00  0.00    -0.268 OA
ENDBRANCH   6  27
TORSDOF 4
ENDMDL
MODEL 3
REMARK VINA RESULT:      -8.2      2.986      8.647
REMARK  4 active torsions:
REMARK  status: ('A' for Active; 'I' for Inactive)
REMARK    1  A    between atoms: C_5  and  N_6 
REMARK    2  A    between atoms: C_11  and  C_12 
REMARK    3  A    between atoms: C_13  and  O_14 
REMARK    4  A    between atoms: C_18  and  C_19 
REMARK       I    between atoms: C_19  and  N_20 
ROOT
HETATM    1  C   UNL     1      43.519 -16.725   3.587  1.00  0.00     0.023 A 
HETATM    2  C   UNL     1      43.268 -17.161   2.331  1.00  0.00     0.153 A 
HETATM    3  N   UNL     1      43.327 -18.477   2.016  1.00  0.00    -0.303 N 
HETATM    4  C   UNL     1      43.583 -19.478   2.905  1.00  0.00     0.263 A 
HETATM    5  O   UNL     1      43.622 -20.650   2.535  1.00  0.00    -0.267 OA
HETATM    6  C   UNL     1      43.818 -19.071   4.329  1.00  0.00     0.106 A 
HETATM    7  C   UNL     1      43.833 -17.743   4.625  1.00  0.00    -0.026 A 
HETATM    8  C   UNL     1      44.171 -17.191   5.993  1.00  0.00     0.050 C 
HETATM    9  H   UNL     1      43.144 -18.746   1.057  1.00  0.00     0.171 HD
ENDROOT
BRANCH   1  10
HETATM   10  C   UNL     1      43.445 -15.296   3.867  1.00  0.00     0.035 C 
HETATM   11  C   UNL     1      42.390 -14.613   4.330  1.00  0.00     0.061 A 
HETATM   12  C   UNL     1      41.004 -14.975   4.658  1.00  0.00     0.067 A 
HETATM   13  C   UNL     1      42.511 -13.190   4.736  1.00  0.00     0.281 A 
HETATM   14  N   UNL     1      40.369 -13.997   5.247  1.00  0.00    -0.168 NA
HETATM   15  C   UNL     1      40.372 -16.297   4.377  1.00  0.00     0.073 C 
HETATM   16  N   UNL     1      41.261 -12.925   5.312  1.00  0.00    -0.197 N 
HETATM   17  O   UNL     1      43.521 -12.520   4.615  1.00  0.00    -0.265 OA
BRANCH  16  18
HETATM   18  C   UNL     1      40.859 -11.752   6.000  1.00  0.00     0.062 A 
HETATM   19  C   UNL     1      41.774 -10.756   6.361  1.00  0.00     0.032 A 
HETATM   20  C   UNL     1      41.366  -9.628   7.086  1.00  0.00     0.009 A 
HETATM   21  C   UNL     1      40.032  -9.470   7.465  1.00  0.00    -0.062 A 
HETATM   22  C   UNL     1      39.590  -8.282   8.266  1.00  0.00     0.048 C 
HETATM   23  C   UNL     1      39.108 -10.450   7.096  1.00  0.00     0.009 A 
HETATM   24  C   UNL     1      39.517 -11.574   6.369  1.00  0.00     0.032 A 
ENDBRANCH  16  18
ENDBRANCH   1  10
BRANCH   2  25
HETATM   25  O   UNL     1      42.931 -16.386   1.255  1.00  0.00    -0.345 OA
HETATM   26  H   UNL     1      42.709 -15.490   1.558  1.00  0.00     0.219 HD
ENDBRANCH   2  25
BRANCH   6  27
HETATM   27  C   UNL     1      43.988 -20.121   5.387  1.00  0.00     0.255 C 
HETATM   28  N   UNL     1      44.876 -21.118   5.122  1.00  0.00    -0.366 N 
HETATM   29  H   UNL     1      45.235 -21.258   4.179  1.00  0.00     0.159 HD
HETATM   30  H   UNL     1      44.904 -21.902   5.760  1.00  0.00     0.159 HD
HETATM   31  O   UNL     1      43.350 -20.142   6.433  1.00  0.00    -0.268 OA
ENDBRANCH   6  27
TORSDOF 4
ENDMDL
MODEL 4
REMARK VINA RESULT:      -8.0      4.814      7.872
REMARK  4 active torsions:
REMARK  status: ('A' for Active; 'I' for Inactive)
REMARK    1  A    between atoms: C_5  and  N_6 
REMARK    2  A    between atoms: C_11  and  C_12 
REMARK    3  A    between atoms: C_13  and  O_14 
REMARK    4  A    between atoms: C_18  and  C_19 
REMARK       I    between atoms: C_19  and  N_20 
ROOT
HETATM    1  C   UNL     1      41.471 -16.220   3.761  1.00  0.00     0.023 A 
HETATM    2  C   UNL     1      41.082 -15.871   5.009  1.00  0.00     0.153 A 
HETATM    3  N   UNL     1      41.658 -16.416   6.107  1.00  0.00    -0.303 N 
HETATM    4  C   UNL     1      42.692 -17.304   6.082  1.00  0.00     0.263 A 
HETATM    5  O   UNL     1      43.157 -17.755   7.127  1.00  0.00    -0.267 OA
HETATM    6  C   UNL     1      43.211 -17.696   4.730  1.00  0.00     0.106 A 
HETATM    7  C   UNL     1      42.579 -17.205   3.631  1.00  0.00    -0.026 A 
HETATM    8  C   UNL     1      42.925 -17.608   2.213  1.00  0.00     0.050 C 
HETATM    9  H   UNL     1      41.317 -16.128   7.016  1.00  0.00     0.171 HD
ENDROOT
BRANCH   1  10
HETATM   10  C   UNL     1      40.812 -15.604   2.616  1.00  0.00     0.035 C 
HETATM   11  C   UNL     1      41.049 -14.392   2.098  1.00  0.00     0.061 A 
HETATM   12  C   UNL     1      41.939 -13.281   2.466  1.00  0.00     0.067 A 
HETATM   13  C   UNL     1      40.425 -13.964   0.821  1.00  0.00     0.281 A 
HETATM   14  N   UNL     1      41.956 -12.346   1.555  1.00  0.00    -0.168 NA
HETATM   15  C   UNL     1      42.750 -13.208   3.716  1.00  0.00     0.073 C 
HETATM   16  N   UNL     1      41.063 -12.744   0.558  1.00  0.00    -0.197 N 
HETATM   17  O   UNL     1      39.611 -14.620   0.195  1.00  0.00    -0.265 OA
BRANCH  16  18
HETATM   18  C   UNL     1      40.958 -11.951  -0.612  1.00  0.00     0.062 A 
HETATM   19  C   UNL     1      40.996 -12.513  -1.894  1.00  0.00     0.032 A 
HETATM   20  C   UNL     1      40.943 -11.707  -3.039  1.00  0.00     0.009 A 
HETATM   21  C   UNL     1      40.848 -10.319  -2.929  1.00  0.00    -0.062 A 
HETATM   22  C   UNL     1      40.820  -9.444  -4.147  1.00  0.00     0.048 C 
HETATM   23  C   UNL     1      40.794  -9.748  -1.654  1.00  0.00     0.009 A 
HETATM   24  C   UNL     1      40.844 -10.555  -0.512  1.00  0.00     0.032 A 
ENDBRANCH  16  18
ENDBRANCH   1  10
BRANCH   2  25
HETATM   25  O   UNL     1      40.110 -14.963   5.331  1.00  0.00    -0.345 OA
HETATM   26  H   UNL     1      39.623 -15.272   6.113  1.00  0.00     0.219 HD
ENDBRANCH   2  25
BRANCH   6  27
HETATM   27  C   UNL     1      44.422 -18.575   4.623  1.00  0.00     0.255 C 
HETATM   28  N   UNL     1      44.279 -19.866   5.031  1.00  0.00    -0.366 N 
HETATM   29  H   UNL     1      43.467 -20.152   5.575  1.00  0.00     0.159 HD
HETATM   30  H   UNL     1      45.114 -20.432   5.093  1.00  0.00     0.159 HD
HETATM   31  O   UNL     1      45.515 -18.181   4.233  1.00  0.00    -0.268 OA
ENDBRANCH   6  27
TORSDOF 4
ENDMDL
MODEL 5
REMARK VINA RESULT:      -8.0      2.218      3.360
REMARK  4 active torsions:
REMARK  status: ('A' for Active; 'I' for Inactive)
REMARK    1  A    between atoms: C_5  and  N_6 
REMARK    2  A    between atoms: C_11  and  C_12 
REMARK    3  A    between atoms: C_13  and  O_14 
REMARK    4  A    between atoms: C_18  and  C_19 
REMARK       I    between atoms: C_19  and  N_20 
ROOT
HETATM    1  C   UNL     1      41.644 -10.936   6.232  1.00  0.00     0.023 A 
HETATM    2  C   UNL     1      42.647 -10.605   7.077  1.00  0.00     0.153 A 
HETATM    3  N   UNL     1      42.926  -9.312   7.370  1.00  0.00    -0.303 N 
HETATM    4  C   UNL     1      42.221  -8.241   6.907  1.00  0.00     0.263 A 
HETATM    5  O   UNL     1      42.542  -7.096   7.219  1.00  0.00    -0.267 OA
HETATM    6  C   UNL     1      41.059  -8.538   6.006  1.00  0.00     0.106 A 
HETATM    7  C   UNL     1      40.831  -9.832   5.654  1.00  0.00    -0.026 A 
HETATM    8  C   UNL     1      39.769 -10.259   4.664  1.00  0.00     0.050 C 
HETATM    9  H   UNL     1      43.697  -9.121   7.998  1.00  0.00     0.171 HD
ENDROOT
BRANCH   1  10
HETATM   10  C   UNL     1      41.393 -12.344   5.951  1.00  0.00     0.035 C 
HETATM   11  C   UNL     1      41.967 -13.098   5.005  1.00  0.00     0.061 A 
HETATM   12  C   UNL     1      42.942 -12.830   3.938  1.00  0.00     0.067 A 
HETATM   13  C   UNL     1      41.744 -14.565   4.946  1.00  0.00     0.281 A 
HETATM   14  N   UNL     1      43.344 -13.927   3.355  1.00  0.00    -0.168 NA
HETATM   15  C   UNL     1      43.445 -11.478   3.554  1.00  0.00     0.073 C 
HETATM   16  N   UNL     1      42.644 -14.976   3.954  1.00  0.00    -0.197 N 
HETATM   17  O   UNL     1      40.985 -15.178   5.676  1.00  0.00    -0.265 OA
BRANCH  16  18
HETATM   18  C   UNL     1      42.962 -16.304   3.574  1.00  0.00     0.062 A 
HETATM   19  C   UNL     1      42.479 -16.871   2.388  1.00  0.00     0.032 A 
HETATM   20  C   UNL     1      42.761 -18.203   2.056  1.00  0.00     0.009 A 
HETATM   21  C   UNL     1      43.537 -18.998   2.901  1.00  0.00    -0.062 A 
HETATM   22  C   UNL     1      43.822 -20.433   2.570  1.00  0.00     0.048 C 
HETATM   23  C   UNL     1      44.037 -18.438   4.080  1.00  0.00     0.009 A 
HETATM   24  C   UNL     1      43.756 -17.107   4.408  1.00  0.00     0.032 A 
ENDBRANCH  16  18
ENDBRANCH   1  10
BRANCH   2  25
HETATM   25  O   UNL     1      43.478 -11.474   7.730  1.00  0.00    -0.345 OA
HETATM   26  H   UNL     1      42.948 -12.150   8.185  1.00  0.00     0.219 HD
ENDBRANCH   2  25
BRANCH   6  27
HETATM   27  C   UNL     1      40.164  -7.423   5.551  1.00  0.00     0.255 C 
HETATM   28  N   UNL     1      40.667  -6.580   4.609  1.00  0.00    -0.366 N 
HETATM   29  H   UNL     1      41.662  -6.578   4.390  1.00  0.00     0.159 HD
HETATM   30  H   UNL     1      40.133  -5.749   4.391  1.00  0.00     0.159 HD
HETATM   31  O   UNL     1      39.045  -7.220   6.009  1.00  0.00    -0.268 OA
ENDBRANCH   6  27
TORSDOF 4
ENDMDL
MODEL 6
REMARK VINA RESULT:      -7.9      3.116      4.134
REMARK  4 active torsions:
REMARK  status: ('A' for Active; 'I' for Inactive)
REMARK    1  A    between atoms: C_5  and  N_6 
REMARK    2  A    between atoms: C_11  and  C_12 
REMARK    3  A    between atoms: C_13  and  O_14 
REMARK    4  A    between atoms: C_18  and  C_19 
REMARK       I    between atoms: C_19  and  N_20 
ROOT
HETATM    1  C   UNL     1      41.597 -10.841   4.866  1.00  0.00     0.023 A 
HETATM    2  C   UNL     1      42.126 -10.296   3.746  1.00  0.00     0.153 A 
HETATM    3  N   UNL     1      41.565  -9.215   3.153  1.00  0.00    -0.303 N 
HETATM    4  C   UNL     1      40.476  -8.546   3.628  1.00  0.00     0.263 A 
HETATM    5  O   UNL     1      40.026  -7.574   3.026  1.00  0.00    -0.267 OA
HETATM    6  C   UNL     1      39.869  -9.064   4.898  1.00  0.00     0.106 A 
HETATM    7  C   UNL     1      40.390 -10.194   5.447  1.00  0.00    -0.026 A 
HETATM    8  C   UNL     1      39.803 -10.887   6.658  1.00  0.00     0.050 C 
HETATM    9  H   UNL     1      41.995  -8.858   2.309  1.00  0.00     0.171 HD
ENDROOT
BRANCH   1  10
HETATM   10  C   UNL     1      42.242 -12.006   5.458  1.00  0.00     0.035 C 
HETATM   11  C   UNL     1      42.018 -13.294   5.166  1.00  0.00     0.061 A 
HETATM   12  C   UNL     1      41.090 -13.989   4.263  1.00  0.00     0.067 A 
HETATM   13  C   UNL     1      42.875 -14.371   5.723  1.00  0.00     0.281 A 
HETATM   14  N   UNL     1      41.350 -15.266   4.181  1.00  0.00    -0.168 NA
HETATM   15  C   UNL     1      39.981 -13.339   3.505  1.00  0.00     0.073 C 
HETATM   16  N   UNL     1      42.424 -15.510   5.040  1.00  0.00    -0.197 N 
HETATM   17  O   UNL     1      43.773 -14.194   6.527  1.00  0.00    -0.265 OA
BRANCH  16  18
HETATM   18  C   UNL     1      42.982 -16.812   5.073  1.00  0.00     0.062 A 
HETATM   19  C   UNL     1      43.539 -17.407   3.934  1.00  0.00     0.032 A 
HETATM   20  C   UNL     1      44.039 -18.716   3.974  1.00  0.00     0.009 A 
HETATM   21  C   UNL     1      43.997 -19.458   5.155  1.00  0.00    -0.062 A 
HETATM   22  C   UNL     1      44.503 -20.870   5.202  1.00  0.00     0.048 C 
HETATM   23  C   UNL     1      43.458 -18.868   6.301  1.00  0.00     0.009 A 
HETATM   24  C   UNL     1      42.962 -17.560   6.260  1.00  0.00     0.032 A 
ENDBRANCH  16  18
ENDBRANCH   1  10
BRANCH   2  25
HETATM   25  O   UNL     1      43.246 -10.725   3.087  1.00  0.00    -0.345 OA
HETATM   26  H   UNL     1      43.549 -10.031   2.477  1.00  0.00     0.219 HD
ENDBRANCH   2  25
BRANCH   6  27
HETATM   27  C   UNL     1      38.743  -8.313   5.546  1.00  0.00     0.255 C 
HETATM   28  N   UNL     1      39.055  -7.122   6.126  1.00  0.00    -0.366 N 
HETATM   29  H   UNL     1      40.026  -6.866   6.298  1.00  0.00     0.159 HD
HETATM   30  H   UNL     1      38.341  -6.671   6.681  1.00  0.00     0.159 HD
HETATM   31  O   UNL     1      37.593  -8.734   5.609  1.00  0.00    -0.268 OA
ENDBRANCH   6  27
TORSDOF 4
ENDMDL
MODEL 7
REMARK VINA RESULT:      -7.7      6.431      8.224
REMARK  4 active torsions:
REMARK  status: ('A' for Active; 'I' for Inactive)
REMARK    1  A    between atoms: C_5  and  N_6 
REMARK    2  A    between atoms: C_11  and  C_12 
REMARK    3  A    between atoms: C_13  and  O_14 
REMARK    4  A    between atoms: C_18  and  C_19 
REMARK       I    between atoms: C_19  and  N_20 
ROOT
HETATM    1  C   UNL     1      38.497 -12.035  -0.838  1.00  0.00     0.023 A 
HETATM    2  C   UNL     1      37.651 -11.380  -0.009  1.00  0.00     0.153 A 
HETATM    3  N   UNL     1      37.142 -10.168  -0.334  1.00  0.00    -0.303 N 
HETATM    4  C   UNL     1      37.372  -9.518  -1.510  1.00  0.00     0.263 A 
HETATM    5  O   UNL     1      36.873  -8.416  -1.726  1.00  0.00    -0.267 OA
HETATM    6  C   UNL     1      38.260 -10.212  -2.501  1.00  0.00     0.106 A 
HETATM    7  C   UNL     1      38.829 -11.393  -2.138  1.00  0.00    -0.026 A 
HETATM    8  C   UNL     1      39.832 -12.140  -2.992  1.00  0.00     0.050 C 
HETATM    9  H   UNL     1      36.525  -9.716   0.330  1.00  0.00     0.171 HD
ENDROOT
BRANCH   1  10
HETATM   10  C   UNL     1      39.017 -13.335  -0.433  1.00  0.00     0.035 C 
HETATM   11  C   UNL     1      40.129 -13.582   0.271  1.00  0.00     0.061 A 
HETATM   12  C   UNL     1      41.198 -12.735   0.819  1.00  0.00     0.067 A 
HETATM   13  C   UNL     1      40.444 -14.947   0.763  1.00  0.00     0.281 A 
HETATM   14  N   UNL     1      42.007 -13.408   1.593  1.00  0.00    -0.168 NA
HETATM   15  C   UNL     1      41.360 -11.276   0.553  1.00  0.00     0.073 C 
HETATM   16  N   UNL     1      41.562 -14.732   1.580  1.00  0.00    -0.197 N 
HETATM   17  O   UNL     1      39.785 -15.941   0.512  1.00  0.00    -0.265 OA
BRANCH  16  18
HETATM   18  C   UNL     1      42.208 -15.670   2.423  1.00  0.00     0.062 A 
HETATM   19  C   UNL     1      42.986 -16.715   1.910  1.00  0.00     0.032 A 
HETATM   20  C   UNL     1      43.573 -17.664   2.758  1.00  0.00     0.009 A 
HETATM   21  C   UNL     1      43.398 -17.587   4.141  1.00  0.00    -0.062 A 
HETATM   22  C   UNL     1      43.997 -18.613   5.056  1.00  0.00     0.048 C 
HETATM   23  C   UNL     1      42.636 -16.539   4.665  1.00  0.00     0.009 A 
HETATM   24  C   UNL     1      42.053 -15.592   3.816  1.00  0.00     0.032 A 
ENDBRANCH  16  18
ENDBRANCH   1  10
BRANCH   2  25
HETATM   25  O   UNL     1      37.203 -11.820   1.207  1.00  0.00    -0.345 OA
HETATM   26  H   UNL     1      37.170 -11.075   1.830  1.00  0.00     0.219 HD
ENDBRANCH   2  25
BRANCH   6  27
HETATM   27  C   UNL     1      38.465  -9.617  -3.863  1.00  0.00     0.255 C 
HETATM   28  N   UNL     1      37.405  -9.658  -4.715  1.00  0.00    -0.366 N 
HETATM   29  H   UNL     1      36.600 -10.249  -4.515  1.00  0.00     0.159 HD
HETATM   30  H   UNL     1      37.566  -9.386  -5.675  1.00  0.00     0.159 HD
HETATM   31  O   UNL     1      39.530  -9.145  -4.244  1.00  0.00    -0.268 OA
ENDBRANCH   6  27
TORSDOF 4
ENDMDL
MODEL 8
REMARK VINA RESULT:      -7.6      6.065      8.475
REMARK  4 active torsions:
REMARK  status: ('A' for Active; 'I' for Inactive)
REMARK    1  A    between atoms: C_5  and  N_6 
REMARK    2  A    between atoms: C_11  and  C_12 
REMARK    3  A    between atoms: C_13  and  O_14 
REMARK    4  A    between atoms: C_18  and  C_19 
REMARK       I    between atoms: C_19  and  N_20 
ROOT
HETATM    1  C   UNL     1      41.446 -13.969   2.902  1.00  0.00     0.023 A 
HETATM    2  C   UNL     1      40.439 -13.974   3.807  1.00  0.00     0.153 A 
HETATM    3  N   UNL     1      40.329 -14.953   4.736  1.00  0.00    -0.303 N 
HETATM    4  C   UNL     1      41.216 -15.977   4.894  1.00  0.00     0.263 A 
HETATM    5  O   UNL     1      41.041 -16.829   5.763  1.00  0.00    -0.267 OA
HETATM    6  C   UNL     1      42.388 -16.004   3.959  1.00  0.00     0.106 A 
HETATM    7  C   UNL     1      42.452 -15.062   2.979  1.00  0.00    -0.026 A 
HETATM    8  C   UNL     1      43.514 -15.042   1.901  1.00  0.00     0.050 C 
HETATM    9  H   UNL     1      39.548 -14.915   5.378  1.00  0.00     0.171 HD
ENDROOT
BRANCH   1  10
HETATM   10  C   UNL     1      41.511 -12.891   1.923  1.00  0.00     0.035 C 
HETATM   11  C   UNL     1      40.944 -12.862   0.710  1.00  0.00     0.061 A 
HETATM   12  C   UNL     1      40.155 -13.824  -0.072  1.00  0.00     0.067 A 
HETATM   13  C   UNL     1      40.947 -11.625  -0.113  1.00  0.00     0.281 A 
HETATM   14  N   UNL     1      39.663 -13.288  -1.156  1.00  0.00    -0.168 NA
HETATM   15  C   UNL     1      39.914 -15.247   0.308  1.00  0.00     0.073 C 
HETATM   16  N   UNL     1      40.118 -11.968  -1.190  1.00  0.00    -0.197 N 
HETATM   17  O   UNL     1      41.511 -10.591   0.197  1.00  0.00    -0.265 OA
BRANCH  16  18
HETATM   18  C   UNL     1      39.649 -11.117  -2.222  1.00  0.00     0.062 A 
HETATM   19  C   UNL     1      40.525 -10.396  -3.043  1.00  0.00     0.032 A 
HETATM   20  C   UNL     1      40.040  -9.520  -4.023  1.00  0.00     0.009 A 
HETATM   21  C   UNL     1      38.668  -9.347  -4.208  1.00  0.00    -0.062 A 
HETATM   22  C   UNL     1      38.138  -8.391  -5.235  1.00  0.00     0.048 C 
HETATM   23  C   UNL     1      37.784 -10.074  -3.405  1.00  0.00     0.009 A 
HETATM   24  C   UNL     1      38.271 -10.950  -2.428  1.00  0.00     0.032 A 
ENDBRANCH  16  18
ENDBRANCH   1  10
BRANCH   2  25
HETATM   25  O   UNL     1      39.443 -13.042   3.917  1.00  0.00    -0.345 OA
HETATM   26  H   UNL     1      38.624 -13.476   4.208  1.00  0.00     0.219 HD
ENDBRANCH   2  25
BRANCH   6  27
HETATM   27  C   UNL     1      43.468 -17.029   4.146  1.00  0.00     0.255 C 
HETATM   28  N   UNL     1      44.291 -16.863   5.217  1.00  0.00    -0.366 N 
HETATM   29  H   UNL     1      44.307 -15.982   5.729  1.00  0.00     0.159 HD
HETATM   30  H   UNL     1      45.101 -17.463   5.281  1.00  0.00     0.159 HD
HETATM   31  O   UNL     1      43.660 -17.961   3.373  1.00  0.00    -0.268 OA
ENDBRANCH   6  27
TORSDOF 4
ENDMDL
MODEL 9
REMARK VINA RESULT:      -7.5      2.740      3.747
REMARK  4 active torsions:
REMARK  status: ('A' for Active; 'I' for Inactive)
REMARK    1  A    between atoms: C_5  and  N_6 
REMARK    2  A    between atoms: C_11  and  C_12 
REMARK    3  A    between atoms: C_13  and  O_14 
REMARK    4  A    between atoms: C_18  and  C_19 
REMARK       I    between atoms: C_19  and  N_20 
ROOT
HETATM    1  C   UNL     1      40.115 -11.396   4.797  1.00  0.00     0.023 A 
HETATM    2  C   UNL     1      39.626 -11.148   6.035  1.00  0.00     0.153 A 
HETATM    3  N   UNL     1      39.433  -9.883   6.478  1.00  0.00    -0.303 N 
HETATM    4  C   UNL     1      39.650  -8.759   5.738  1.00  0.00     0.263 A 
HETATM    5  O   UNL     1      39.452  -7.645   6.218  1.00  0.00    -0.267 OA
HETATM    6  C   UNL     1      40.142  -8.961   4.335  1.00  0.00     0.106 A 
HETATM    7  C   UNL     1      40.407 -10.229   3.922  1.00  0.00    -0.026 A 
HETATM    8  C   UNL     1      41.015 -10.565   2.576  1.00  0.00     0.050 C 
HETATM    9  H   UNL     1      39.078  -9.757   7.418  1.00  0.00     0.171 HD
ENDROOT
BRANCH   1  10
HETATM   10  C   UNL     1      40.306 -12.778   4.376  1.00  0.00     0.035 C 
HETATM   11  C   UNL     1      41.368 -13.559   4.611  1.00  0.00     0.061 A 
HETATM   12  C   UNL     1      42.664 -13.348   5.272  1.00  0.00     0.067 A 
HETATM   13  C   UNL     1      41.352 -15.005   4.273  1.00  0.00     0.281 A 
HETATM   14  N   UNL     1      43.327 -14.463   5.416  1.00  0.00    -0.168 NA
HETATM   15  C   UNL     1      43.181 -12.031   5.747  1.00  0.00     0.073 C 
HETATM   16  N   UNL     1      42.551 -15.467   4.833  1.00  0.00    -0.197 N 
HETATM   17  O   UNL     1      40.437 -15.571   3.702  1.00  0.00    -0.265 OA
BRANCH  16  18
HETATM   18  C   UNL     1      42.994 -16.810   4.936  1.00  0.00     0.062 A 
HETATM   19  C   UNL     1      42.974 -17.505   6.151  1.00  0.00     0.032 A 
HETATM   20  C   UNL     1      43.465 -18.815   6.242  1.00  0.00     0.009 A 
HETATM   21  C   UNL     1      43.983 -19.461   5.119  1.00  0.00    -0.062 A 
HETATM   22  C   UNL     1      44.537 -20.852   5.212  1.00  0.00     0.048 C 
HETATM   23  C   UNL     1      43.993 -18.782   3.898  1.00  0.00     0.009 A 
HETATM   24  C   UNL     1      43.500 -17.475   3.808  1.00  0.00     0.032 A 
ENDBRANCH  16  18
ENDBRANCH   1  10
BRANCH   2  25
HETATM   25  O   UNL     1      39.268 -12.084   6.967  1.00  0.00    -0.345 OA
HETATM   26  H   UNL     1      39.324 -11.695   7.856  1.00  0.00     0.219 HD
ENDBRANCH   2  25
BRANCH   6  27
HETATM   27  C   UNL     1      40.291  -7.781   3.421  1.00  0.00     0.255 C 
HETATM   28  N   UNL     1      41.373  -6.981   3.624  1.00  0.00    -0.366 N 
HETATM   29  H   UNL     1      41.923  -7.058   4.478  1.00  0.00     0.159 HD
HETATM   30  H   UNL     1      41.417  -6.112   3.110  1.00  0.00     0.159 HD
HETATM   31  O   UNL     1      39.480  -7.490   2.549  1.00  0.00    -0.268 OA
ENDBRANCH   6  27
TORSDOF 4
ENDMDL
MODEL 10
REMARK VINA RESULT:      -7.4      3.499      4.186
REMARK  4 active torsions:
REMARK  status: ('A' for Active; 'I' for Inactive)
REMARK    1  A    between atoms: C_5  and  N_6 
REMARK    2  A    between atoms: C_11  and  C_12 
REMARK    3  A    between atoms: C_13  and  O_14 
REMARK    4  A    between atoms: C_18  and  C_19 
REMARK       I    between atoms: C_19  and  N_20 
ROOT
HETATM    1  C   UNL     1      42.415 -10.077   6.313  1.00  0.00     0.023 A 
HETATM    2  C   UNL     1      41.568  -9.054   6.575  1.00  0.00     0.153 A 
HETATM    3  N   UNL     1      41.414  -8.569   7.830  1.00  0.00    -0.303 N 
HETATM    4  C   UNL     1      42.106  -9.003   8.921  1.00  0.00     0.263 A 
HETATM    5  O   UNL     1      41.904  -8.510  10.029  1.00  0.00    -0.267 OA
HETATM    6  C   UNL     1      43.104 -10.101   8.694  1.00  0.00     0.106 A 
HETATM    7  C   UNL     1      43.199 -10.636   7.447  1.00  0.00    -0.026 A 
HETATM    8  C   UNL     1      44.077 -11.821   7.106  1.00  0.00     0.050 C 
HETATM    9  H   UNL     1      40.757  -7.813   7.971  1.00  0.00     0.171 HD
ENDROOT
BRANCH   1  10
HETATM   10  C   UNL     1      42.537 -10.561   4.943  1.00  0.00     0.035 C 
HETATM   11  C   UNL     1      41.785 -11.491   4.340  1.00  0.00     0.061 A 
HETATM   12  C   UNL     1      40.680 -12.354   4.783  1.00  0.00     0.067 A 
HETATM   13  C   UNL     1      41.908 -11.759   2.885  1.00  0.00     0.281 A 
HETATM   14  N   UNL     1      40.132 -12.996   3.787  1.00  0.00    -0.168 NA
HETATM   15  C   UNL     1      40.208 -12.491   6.192  1.00  0.00     0.073 C 
HETATM   16  N   UNL     1      40.848 -12.642   2.641  1.00  0.00    -0.197 N 
HETATM   17  O   UNL     1      42.728 -11.233   2.153  1.00  0.00    -0.265 OA
BRANCH  16  18
HETATM   18  C   UNL     1      40.399 -13.124   1.387  1.00  0.00     0.062 A 
HETATM   19  C   UNL     1      39.923 -12.264   0.390  1.00  0.00     0.032 A 
HETATM   20  C   UNL     1      39.434 -12.765  -0.825  1.00  0.00     0.009 A 
HETATM   21  C   UNL     1      39.414 -14.138  -1.072  1.00  0.00    -0.062 A 
HETATM   22  C   UNL     1      38.867 -14.687  -2.356  1.00  0.00     0.048 C 
HETATM   23  C   UNL     1      39.901 -15.005  -0.090  1.00  0.00     0.009 A 
HETATM   24  C   UNL     1      40.391 -14.502   1.121  1.00  0.00     0.032 A 
ENDBRANCH  16  18
ENDBRANCH   1  10
BRANCH   2  25
HETATM   25  O   UNL     1      40.792  -8.391   5.664  1.00  0.00    -0.345 OA
HETATM   26  H   UNL     1      40.036  -7.983   6.119  1.00  0.00     0.219 HD
ENDBRANCH   2  25
BRANCH   6  27
HETATM   27  C   UNL     1      43.987 -10.550   9.820  1.00  0.00     0.255 C 
HETATM   28  N   UNL     1      43.366 -11.005  10.942  1.00  0.00    -0.366 N 
HETATM   29  H   UNL     1      42.371 -10.845  11.086  1.00  0.00     0.159 HD
HETATM   30  H   UNL     1      43.940 -11.183  11.755  1.00  0.00     0.159 HD
HETATM   31  O   UNL     1      45.212 -10.488   9.789  1.00  0.00    -0.268 OA
ENDBRANCH   6  27
TORSDOF 4
ENDMDL
