MODEL 1
REMARK VINA RESULT:      -8.8      0.000      0.000
REMARK  5 active torsions:
REMARK  status: ('A' for Active; 'I' for Inactive)
REMARK    1  A    between atoms: C_2  and  C_3 
REMARK    2  A    between atoms: C_7  and  C_8 
REMARK       I    between atoms: C_8  and  N_9 
REMARK    3  A    between atoms: N_9  and  C_10 
REMARK    4  A    between atoms: C_12  and  N_13 
REMARK       I    between atoms: N_13  and  C_14 
REMARK    5  A    between atoms: C_14  and  C_15 
ROOT
HETATM    1  C   UNL     1      42.858 -11.306   6.345  1.00  0.00     0.037 A 
HETATM    2  C   UNL     1      43.059 -12.646   5.989  1.00  0.00     0.059 A 
HETATM    3  C   UNL     1      42.984 -13.055   4.651  1.00  0.00     0.037 A 
HETATM    4  C   UNL     1      42.705 -12.103   3.664  1.00  0.00     0.029 A 
HETATM    5  C   UNL     1      42.477 -10.771   4.009  1.00  0.00     0.004 A 
HETATM    6  C   UNL     1      42.549 -10.377   5.345  1.00  0.00     0.029 A 
ENDROOT
BRANCH   1   7
HETATM    7  N   UNL     1      42.942 -10.816   7.668  1.00  0.00    -0.322 N 
HETATM    8  C   UNL     1      44.035 -10.846   8.512  1.00  0.00     0.274 C 
HETATM    9  O   UNL     1      45.151 -11.257   8.221  1.00  0.00    -0.266 OA
HETATM   10  H   UNL     1      42.122 -10.339   8.013  1.00  0.00     0.169 HD
BRANCH   8  11
HETATM   11  C   UNL     1      43.790 -10.303   9.828  1.00  0.00     0.120 A 
HETATM   12  N   UNL     1      43.389 -11.117  10.856  1.00  0.00    -0.273 N 
HETATM   13  N   UNL     1      43.198 -10.478  12.021  1.00  0.00    -0.179 NA
HETATM   14  H   UNL     1      43.232 -12.120  10.806  1.00  0.00     0.189 HD
HETATM   15  C   UNL     1      43.473  -9.202  11.737  1.00  0.00     0.056 A 
HETATM   16  C   UNL     1      43.851  -9.039  10.382  1.00  0.00     0.065 A 
BRANCH  15  17
HETATM   17  C   UNL     1      43.356  -8.153  12.790  1.00  0.00     0.056 C 
HETATM   18  C   UNL     1      42.421  -8.568  13.915  1.00  0.00     0.011 C 
ENDBRANCH  15  17
ENDBRANCH   8  11
ENDBRANCH   1   7
BRANCH   3  19
HETATM   19  N   UNL     1      43.201 -14.382   4.216  1.00  0.00    -0.323 N 
HETATM   20  C   UNL     1      42.316 -15.443   4.288  1.00  0.00     0.256 C 
HETATM   21  O   UNL     1      41.154 -15.404   4.674  1.00  0.00    -0.267 OA
HETATM   22  H   UNL     1      44.124 -14.573   3.852  1.00  0.00     0.169 HD
BRANCH  20  23
HETATM   23  C   UNL     1      42.862 -16.765   3.864  1.00  0.00     0.032 A 
HETATM   24  C   UNL     1      43.724 -17.428   4.748  1.00  0.00     0.017 A 
HETATM   25  C   UNL     1      44.275 -18.662   4.401  1.00  0.00     0.001 A 
HETATM   26  C   UNL     1      43.961 -19.244   3.174  1.00  0.00     0.000 A 
HETATM   27  C   UNL     1      43.086 -18.599   2.298  1.00  0.00     0.001 A 
HETATM   28  C   UNL     1      42.530 -17.364   2.642  1.00  0.00     0.017 A 
ENDBRANCH  20  23
ENDBRANCH   3  19
TORSDOF 5
ENDMDL
MODEL 2
REMARK VINA RESULT:      -8.6      2.022      9.552
REMARK  5 active torsions:
REMARK  status: ('A' for Active; 'I' for Inactive)
REMARK    1  A    between atoms: C_2  and  C_3 
REMARK    2  A    between atoms: C_7  and  C_8 
REMARK       I    between atoms: C_8  and  N_9 
REMARK    3  A    between atoms: N_9  and  C_10 
REMARK    4  A    between atoms: C_12  and  N_13 
REMARK       I    between atoms: N_13  and  C_14 
REMARK    5  A    between atoms: C_14  and  C_15 
ROOT
HETATM    1  C   UNL     1      44.426 -11.673   6.991  1.00  0.00     0.037 A 
HETATM    2  C   UNL     1      43.819 -11.157   8.144  1.00  0.00     0.059 A 
HETATM    3  C   UNL     1      44.502 -10.264   8.980  1.00  0.00     0.037 A 
HETATM    4  C   UNL     1      45.809  -9.888   8.649  1.00  0.00     0.029 A 
HETATM    5  C   UNL     1      46.433 -10.415   7.519  1.00  0.00     0.004 A 
HETATM    6  C   UNL     1      45.745 -11.307   6.697  1.00  0.00     0.029 A 
ENDROOT
BRANCH   1   7
HETATM    7  N   UNL     1      43.792 -12.556   6.089  1.00  0.00    -0.322 N 
HETATM    8  C   UNL     1      43.320 -13.829   6.343  1.00  0.00     0.274 C 
HETATM    9  O   UNL     1      43.322 -14.386   7.434  1.00  0.00    -0.266 OA
HETATM   10  H   UNL     1      43.616 -12.189   5.165  1.00  0.00     0.169 HD
BRANCH   8  11
HETATM   11  C   UNL     1      42.761 -14.502   5.194  1.00  0.00     0.120 A 
HETATM   12  N   UNL     1      41.803 -13.892   4.426  1.00  0.00    -0.273 N 
HETATM   13  N   UNL     1      41.373 -14.633   3.392  1.00  0.00    -0.179 NA
HETATM   14  H   UNL     1      41.411 -12.965   4.571  1.00  0.00     0.189 HD
HETATM   15  C   UNL     1      42.067 -15.770   3.500  1.00  0.00     0.056 A 
HETATM   16  C   UNL     1      42.951 -15.738   4.607  1.00  0.00     0.065 A 
BRANCH  15  17
HETATM   17  C   UNL     1      41.856 -16.878   2.526  1.00  0.00     0.056 C 
HETATM   18  C   UNL     1      43.095 -17.744   2.361  1.00  0.00     0.011 C 
ENDBRANCH  15  17
ENDBRANCH   8  11
ENDBRANCH   1   7
BRANCH   3  19
HETATM   19  N   UNL     1      43.944  -9.684  10.142  1.00  0.00    -0.323 N 
HETATM   20  C   UNL     1      43.693 -10.307  11.352  1.00  0.00     0.256 C 
HETATM   21  O   UNL     1      43.980 -11.458  11.658  1.00  0.00    -0.267 OA
HETATM   22  H   UNL     1      43.664  -8.717  10.051  1.00  0.00     0.169 HD
BRANCH  20  23
HETATM   23  C   UNL     1      42.981  -9.477  12.366  1.00  0.00     0.032 A 
HETATM   24  C   UNL     1      43.505  -8.209  12.656  1.00  0.00     0.017 A 
HETATM   25  C   UNL     1      42.887  -7.392  13.603  1.00  0.00     0.001 A 
HETATM   26  C   UNL     1      41.740  -7.834  14.261  1.00  0.00     0.000 A 
HETATM   27  C   UNL     1      41.202  -9.087  13.963  1.00  0.00     0.001 A 
HETATM   28  C   UNL     1      41.815  -9.907  13.012  1.00  0.00     0.017 A 
ENDBRANCH  20  23
ENDBRANCH   3  19
TORSDOF 5
ENDMDL
MODEL 3
REMARK VINA RESULT:      -8.3      2.011      3.021
REMARK  5 active torsions:
REMARK  status: ('A' for Active; 'I' for Inactive)
REMARK    1  A    between atoms: C_2  and  C_3 
REMARK    2  A    between atoms: C_7  and  C_8 
REMARK       I    between atoms: C_8  and  N_9 
REMARK    3  A    between atoms: N_9  and  C_10 
REMARK    4  A    between atoms: C_12  and  N_13 
REMARK       I    between atoms: N_13  and  C_14 
REMARK    5  A    between atoms: C_14  and  C_15 
ROOT
HETATM    1  C   UNL     1      44.108 -10.636   8.832  1.00  0.00     0.037 A 
HETATM    2  C   UNL     1      43.572 -11.527   7.894  1.00  0.00     0.059 A 
HETATM    3  C   UNL     1      44.325 -11.953   6.791  1.00  0.00     0.037 A 
HETATM    4  C   UNL     1      45.632 -11.475   6.635  1.00  0.00     0.029 A 
HETATM    5  C   UNL     1      46.167 -10.567   7.548  1.00  0.00     0.004 A 
HETATM    6  C   UNL     1      45.406 -10.146   8.639  1.00  0.00     0.029 A 
ENDROOT
BRANCH   1   7
HETATM    7  N   UNL     1      43.419 -10.182   9.979  1.00  0.00    -0.322 N 
HETATM    8  C   UNL     1      43.509 -10.673  11.267  1.00  0.00     0.274 C 
HETATM    9  O   UNL     1      44.264 -11.561  11.642  1.00  0.00    -0.266 OA
HETATM   10  H   UNL     1      42.836  -9.369   9.848  1.00  0.00     0.169 HD
BRANCH   8  11
HETATM   11  C   UNL     1      42.637 -10.023  12.218  1.00  0.00     0.120 A 
HETATM   12  N   UNL     1      41.378 -10.509  12.456  1.00  0.00    -0.273 N 
HETATM   13  N   UNL     1      40.679  -9.806  13.362  1.00  0.00    -0.179 NA
HETATM   14  H   UNL     1      40.952 -11.323  12.021  1.00  0.00     0.189 HD
HETATM   15  C   UNL     1      41.509  -8.820  13.714  1.00  0.00     0.056 A 
HETATM   16  C   UNL     1      42.747  -8.912  13.030  1.00  0.00     0.065 A 
BRANCH  15  17
HETATM   17  C   UNL     1      41.083  -7.795  14.708  1.00  0.00     0.056 C 
HETATM   18  C   UNL     1      42.266  -7.065  15.326  1.00  0.00     0.011 C 
ENDBRANCH  15  17
ENDBRANCH   8  11
ENDBRANCH   1   7
BRANCH   3  19
HETATM   19  N   UNL     1      43.860 -12.870   5.821  1.00  0.00    -0.323 N 
HETATM   20  C   UNL     1      43.475 -14.184   6.025  1.00  0.00     0.256 C 
HETATM   21  O   UNL     1      43.398 -14.767   7.100  1.00  0.00    -0.267 OA
HETATM   22  H   UNL     1      43.852 -12.527   4.871  1.00  0.00     0.169 HD
BRANCH  20  23
HETATM   23  C   UNL     1      43.146 -14.955   4.793  1.00  0.00     0.032 A 
HETATM   24  C   UNL     1      43.123 -16.353   4.884  1.00  0.00     0.017 A 
HETATM   25  C   UNL     1      42.832 -17.128   3.761  1.00  0.00     0.001 A 
HETATM   26  C   UNL     1      42.554 -16.510   2.543  1.00  0.00     0.000 A 
HETATM   27  C   UNL     1      42.555 -15.117   2.449  1.00  0.00     0.001 A 
HETATM   28  C   UNL     1      42.843 -14.337   3.573  1.00  0.00     0.017 A 
ENDBRANCH  20  23
ENDBRANCH   3  19
TORSDOF 5
ENDMDL
MODEL 4
REMARK VINA RESULT:      -8.2      5.772      9.515
REMARK  5 active torsions:
REMARK  status: ('A' for Active; 'I' for Inactive)
REMARK    1  A    between atoms: C_2  and  C_3 
REMARK    2  A    between atoms: C_7  and  C_8 
REMARK       I    between atoms: C_8  and  N_9 
REMARK    3  A    between atoms: N_9  and  C_10 
REMARK    4  A    between atoms: C_12  and  N_13 
REMARK       I    between atoms: N_13  and  C_14 
REMARK    5  A    between atoms: C_14  and  C_15 
ROOT
HETATM    1  C   UNL     1      40.020 -13.435   1.795  1.00  0.00     0.037 A 
HETATM    2  C   UNL     1      40.606 -14.690   2.004  1.00  0.00     0.059 A 
HETATM    3  C   UNL     1      41.452 -14.917   3.098  1.00  0.00     0.037 A 
HETATM    4  C   UNL     1      41.707 -13.868   3.989  1.00  0.00     0.029 A 
HETATM    5  C   UNL     1      41.149 -12.608   3.777  1.00  0.00     0.004 A 
HETATM    6  C   UNL     1      40.314 -12.392   2.681  1.00  0.00     0.029 A 
ENDROOT
BRANCH   1   7
HETATM    7  N   UNL     1      39.139 -13.138   0.730  1.00  0.00    -0.322 N 
HETATM    8  C   UNL     1      39.444 -13.029  -0.613  1.00  0.00     0.274 C 
HETATM    9  O   UNL     1      40.541 -13.237  -1.115  1.00  0.00    -0.266 OA
HETATM   10  H   UNL     1      38.165 -13.051   0.978  1.00  0.00     0.169 HD
BRANCH   8  11
HETATM   11  C   UNL     1      38.326 -12.667  -1.453  1.00  0.00     0.120 A 
HETATM   12  N   UNL     1      37.617 -13.629  -2.125  1.00  0.00    -0.273 N 
HETATM   13  N   UNL     1      36.607 -13.148  -2.867  1.00  0.00    -0.179 NA
HETATM   14  H   UNL     1      37.788 -14.630  -2.106  1.00  0.00     0.189 HD
HETATM   15  C   UNL     1      36.670 -11.826  -2.682  1.00  0.00     0.056 A 
HETATM   16  C   UNL     1      37.725 -11.474  -1.803  1.00  0.00     0.065 A 
BRANCH  15  17
HETATM   17  C   UNL     1      35.705 -10.921  -3.368  1.00  0.00     0.056 C 
HETATM   18  C   UNL     1      34.565 -11.684  -4.022  1.00  0.00     0.011 C 
ENDBRANCH  15  17
ENDBRANCH   8  11
ENDBRANCH   1   7
BRANCH   3  19
HETATM   19  N   UNL     1      42.056 -16.162   3.386  1.00  0.00    -0.323 N 
HETATM   20  C   UNL     1      43.004 -16.829   2.630  1.00  0.00     0.256 C 
HETATM   21  O   UNL     1      43.547 -16.422   1.609  1.00  0.00    -0.267 OA
HETATM   22  H   UNL     1      41.718 -16.625   4.218  1.00  0.00     0.169 HD
BRANCH  20  23
HETATM   23  C   UNL     1      43.373 -18.190   3.116  1.00  0.00     0.032 A 
HETATM   24  C   UNL     1      43.262 -19.257   2.214  1.00  0.00     0.017 A 
HETATM   25  C   UNL     1      43.582 -20.554   2.616  1.00  0.00     0.001 A 
HETATM   26  C   UNL     1      44.021 -20.791   3.917  1.00  0.00     0.000 A 
HETATM   27  C   UNL     1      44.153 -19.730   4.814  1.00  0.00     0.001 A 
HETATM   28  C   UNL     1      43.837 -18.428   4.416  1.00  0.00     0.017 A 
ENDBRANCH  20  23
ENDBRANCH   3  19
TORSDOF 5
ENDMDL
MODEL 5
REMARK VINA RESULT:      -8.0      2.027      9.617
REMARK  5 active torsions:
REMARK  status: ('A' for Active; 'I' for Inactive)
REMARK    1  A    between atoms: C_2  and  C_3 
REMARK    2  A    between atoms: C_7  and  C_8 
REMARK       I    between atoms: C_8  and  N_9 
REMARK    3  A    between atoms: N_9  and  C_10 
REMARK    4  A    between atoms: C_12  and  N_13 
REMARK       I    between atoms: N_13  and  C_14 
REMARK    5  A    between atoms: C_14  and  C_15 
ROOT
HETATM    1  C   UNL     1      44.670 -11.571   7.046  1.00  0.00     0.037 A 
HETATM    2  C   UNL     1      43.983 -11.302   8.236  1.00  0.00     0.059 A 
HETATM    3  C   UNL     1      44.506 -10.415   9.187  1.00  0.00     0.037 A 
HETATM    4  C   UNL     1      45.735  -9.794   8.932  1.00  0.00     0.029 A 
HETATM    5  C   UNL     1      46.440 -10.074   7.762  1.00  0.00     0.004 A 
HETATM    6  C   UNL     1      45.911 -10.962   6.826  1.00  0.00     0.029 A 
ENDROOT
BRANCH   1   7
HETATM    7  N   UNL     1      44.193 -12.433   6.032  1.00  0.00    -0.322 N 
HETATM    8  C   UNL     1      43.615 -12.082   4.828  1.00  0.00     0.274 C 
HETATM    9  O   UNL     1      43.474 -10.940   4.410  1.00  0.00    -0.266 OA
HETATM   10  H   UNL     1      44.346 -13.419   6.186  1.00  0.00     0.169 HD
BRANCH   8  11
HETATM   11  C   UNL     1      43.186 -13.200   4.021  1.00  0.00     0.120 A 
HETATM   12  N   UNL     1      43.115 -13.090   2.657  1.00  0.00    -0.273 N 
HETATM   13  N   UNL     1      42.701 -14.206   2.035  1.00  0.00    -0.179 NA
HETATM   14  H   UNL     1      43.340 -12.267   2.104  1.00  0.00     0.189 HD
HETATM   15  C   UNL     1      42.483 -15.068   3.033  1.00  0.00     0.056 A 
HETATM   16  C   UNL     1      42.774 -14.490   4.294  1.00  0.00     0.065 A 
BRANCH  15  17
HETATM   17  C   UNL     1      41.986 -16.443   2.747  1.00  0.00     0.056 C 
HETATM   18  C   UNL     1      43.097 -17.370   2.277  1.00  0.00     0.011 C 
ENDBRANCH  15  17
ENDBRANCH   8  11
ENDBRANCH   1   7
BRANCH   3  19
HETATM   19  N   UNL     1      43.857 -10.076  10.396  1.00  0.00    -0.323 N 
HETATM   20  C   UNL     1      42.897  -9.097  10.586  1.00  0.00     0.256 C 
HETATM   21  O   UNL     1      42.382  -8.397   9.723  1.00  0.00    -0.267 OA
HETATM   22  H   UNL     1      44.168 -10.585  11.211  1.00  0.00     0.169 HD
BRANCH  20  23
HETATM   23  C   UNL     1      42.478  -8.877  12.000  1.00  0.00     0.032 A 
HETATM   24  C   UNL     1      43.218  -7.966  12.766  1.00  0.00     0.017 A 
HETATM   25  C   UNL     1      42.879  -7.727  14.098  1.00  0.00     0.001 A 
HETATM   26  C   UNL     1      41.795  -8.390  14.670  1.00  0.00     0.000 A 
HETATM   27  C   UNL     1      41.040  -9.283  13.907  1.00  0.00     0.001 A 
HETATM   28  C   UNL     1      41.374  -9.523  12.571  1.00  0.00     0.017 A 
ENDBRANCH  20  23
ENDBRANCH   3  19
TORSDOF 5
ENDMDL
MODEL 6
REMARK VINA RESULT:      -7.9      1.962      2.327
REMARK  5 active torsions:
REMARK  status: ('A' for Active; 'I' for Inactive)
REMARK    1  A    between atoms: C_2  and  C_3 
REMARK    2  A    between atoms: C_7  and  C_8 
REMARK       I    between atoms: C_8  and  N_9 
REMARK    3  A    between atoms: N_9  and  C_10 
REMARK    4  A    between atoms: C_12  and  N_13 
REMARK       I    between atoms: N_13  and  C_14 
REMARK    5  A    between atoms: C_14  and  C_15 
ROOT
HETATM    1  C   UNL     1      41.563 -12.491   5.786  1.00  0.00     0.037 A 
HETATM    2  C   UNL     1      42.120 -13.766   5.621  1.00  0.00     0.059 A 
HETATM    3  C   UNL     1      41.610 -14.657   4.667  1.00  0.00     0.037 A 
HETATM    4  C   UNL     1      40.528 -14.257   3.874  1.00  0.00     0.029 A 
HETATM    5  C   UNL     1      39.949 -13.001   4.048  1.00  0.00     0.004 A 
HETATM    6  C   UNL     1      40.462 -12.124   5.003  1.00  0.00     0.029 A 
ENDROOT
BRANCH   1   7
HETATM    7  N   UNL     1      42.039 -11.531   6.707  1.00  0.00    -0.322 N 
HETATM    8  C   UNL     1      43.281 -10.928   6.733  1.00  0.00     0.274 C 
HETATM    9  O   UNL     1      44.169 -11.087   5.905  1.00  0.00    -0.266 OA
HETATM   10  H   UNL     1      41.371 -11.211   7.393  1.00  0.00     0.169 HD
BRANCH   8  11
HETATM   11  C   UNL     1      43.482 -10.017   7.836  1.00  0.00     0.120 A 
HETATM   12  N   UNL     1      44.725  -9.500   8.097  1.00  0.00    -0.273 N 
HETATM   13  N   UNL     1      44.764  -8.670   9.151  1.00  0.00    -0.179 NA
HETATM   14  H   UNL     1      45.579  -9.689   7.579  1.00  0.00     0.189 HD
HETATM   15  C   UNL     1      43.505  -8.656   9.599  1.00  0.00     0.056 A 
HETATM   16  C   UNL     1      42.664  -9.479   8.809  1.00  0.00     0.065 A 
BRANCH  15  17
HETATM   17  C   UNL     1      43.138  -7.847  10.795  1.00  0.00     0.056 C 
HETATM   18  C   UNL     1      42.630  -6.464  10.420  1.00  0.00     0.011 C 
ENDBRANCH  15  17
ENDBRANCH   8  11
ENDBRANCH   1   7
BRANCH   3  19
HETATM   19  N   UNL     1      42.137 -15.947   4.427  1.00  0.00    -0.323 N 
HETATM   20  C   UNL     1      42.968 -16.333   3.389  1.00  0.00     0.256 C 
HETATM   21  O   UNL     1      43.457 -15.607   2.532  1.00  0.00    -0.267 OA
HETATM   22  H   UNL     1      41.831 -16.665   5.068  1.00  0.00     0.169 HD
BRANCH  20  23
HETATM   23  C   UNL     1      43.267 -17.792   3.316  1.00  0.00     0.032 A 
HETATM   24  C   UNL     1      43.862 -18.393   4.434  1.00  0.00     0.017 A 
HETATM   25  C   UNL     1      44.175 -19.752   4.418  1.00  0.00     0.001 A 
HETATM   26  C   UNL     1      43.888 -20.520   3.291  1.00  0.00     0.000 A 
HETATM   27  C   UNL     1      43.277 -19.932   2.182  1.00  0.00     0.001 A 
HETATM   28  C   UNL     1      42.959 -18.571   2.194  1.00  0.00     0.017 A 
ENDBRANCH  20  23
ENDBRANCH   3  19
TORSDOF 5
ENDMDL
MODEL 7
REMARK VINA RESULT:      -7.8      1.332      9.252
REMARK  5 active torsions:
REMARK  status: ('A' for Active; 'I' for Inactive)
REMARK    1  A    between atoms: C_2  and  C_3 
REMARK    2  A    between atoms: C_7  and  C_8 
REMARK       I    between atoms: C_8  and  N_9 
REMARK    3  A    between atoms: N_9  and  C_10 
REMARK    4  A    between atoms: C_12  and  N_13 
REMARK       I    between atoms: N_13  and  C_14 
REMARK    5  A    between atoms: C_14  and  C_15 
ROOT
HETATM    1  C   UNL     1      42.926 -12.781   4.730  1.00  0.00     0.037 A 
HETATM    2  C   UNL     1      43.026 -12.313   6.046  1.00  0.00     0.059 A 
HETATM    3  C   UNL     1      42.796 -10.964   6.351  1.00  0.00     0.037 A 
HETATM    4  C   UNL     1      42.460 -10.082   5.317  1.00  0.00     0.029 A 
HETATM    5  C   UNL     1      42.382 -10.532   3.999  1.00  0.00     0.004 A 
HETATM    6  C   UNL     1      42.619 -11.875   3.708  1.00  0.00     0.029 A 
ENDROOT
BRANCH   1   7
HETATM    7  N   UNL     1      43.119 -14.129   4.351  1.00  0.00    -0.322 N 
HETATM    8  C   UNL     1      42.157 -15.105   4.180  1.00  0.00     0.274 C 
HETATM    9  O   UNL     1      40.947 -14.939   4.272  1.00  0.00    -0.266 OA
HETATM   10  H   UNL     1      44.068 -14.390   4.127  1.00  0.00     0.169 HD
BRANCH   8  11
HETATM   11  C   UNL     1      42.679 -16.406   3.832  1.00  0.00     0.120 A 
HETATM   12  N   UNL     1      43.561 -17.049   4.661  1.00  0.00    -0.273 N 
HETATM   13  N   UNL     1      43.963 -18.249   4.212  1.00  0.00    -0.179 NA
HETATM   14  H   UNL     1      43.918 -16.704   5.548  1.00  0.00     0.189 HD
HETATM   15  C   UNL     1      43.329 -18.385   3.044  1.00  0.00     0.056 A 
HETATM   16  C   UNL     1      42.512 -17.262   2.761  1.00  0.00     0.065 A 
BRANCH  15  17
HETATM   17  C   UNL     1      43.534 -19.604   2.212  1.00  0.00     0.056 C 
HETATM   18  C   UNL     1      43.837 -20.832   3.055  1.00  0.00     0.011 C 
ENDBRANCH  15  17
ENDBRANCH   8  11
ENDBRANCH   1   7
BRANCH   3  19
HETATM   19  N   UNL     1      42.853 -10.427   7.657  1.00  0.00    -0.323 N 
HETATM   20  C   UNL     1      43.893 -10.536   8.563  1.00  0.00     0.256 C 
HETATM   21  O   UNL     1      44.985 -11.058   8.368  1.00  0.00    -0.267 OA
HETATM   22  H   UNL     1      42.019  -9.947   7.964  1.00  0.00     0.169 HD
BRANCH  20  23
HETATM   23  C   UNL     1      43.627  -9.973   9.918  1.00  0.00     0.032 A 
HETATM   24  C   UNL     1      43.509 -10.871  10.987  1.00  0.00     0.017 A 
HETATM   25  C   UNL     1      43.249 -10.403  12.275  1.00  0.00     0.001 A 
HETATM   26  C   UNL     1      43.112  -9.034  12.503  1.00  0.00     0.000 A 
HETATM   27  C   UNL     1      43.248  -8.133  11.446  1.00  0.00     0.001 A 
HETATM   28  C   UNL     1      43.512  -8.597  10.155  1.00  0.00     0.017 A 
ENDBRANCH  20  23
ENDBRANCH   3  19
TORSDOF 5
ENDMDL
MODEL 8
REMARK VINA RESULT:      -7.5      3.693      9.682
REMARK  5 active torsions:
REMARK  status: ('A' for Active; 'I' for Inactive)
REMARK    1  A    between atoms: C_2  and  C_3 
REMARK    2  A    between atoms: C_7  and  C_8 
REMARK       I    between atoms: C_8  and  N_9 
REMARK    3  A    between atoms: N_9  and  C_10 
REMARK    4  A    between atoms: C_12  and  N_13 
REMARK       I    between atoms: N_13  and  C_14 
REMARK    5  A    between atoms: C_14  and  C_15 
ROOT
HETATM    1  C   UNL     1      41.514 -14.588   4.170  1.00  0.00     0.037 A 
HETATM    2  C   UNL     1      42.160 -13.606   4.930  1.00  0.00     0.059 A 
HETATM    3  C   UNL     1      42.598 -13.876   6.234  1.00  0.00     0.037 A 
HETATM    4  C   UNL     1      42.381 -15.149   6.774  1.00  0.00     0.029 A 
HETATM    5  C   UNL     1      41.715 -16.127   6.035  1.00  0.00     0.004 A 
HETATM    6  C   UNL     1      41.279 -15.845   4.741  1.00  0.00     0.029 A 
ENDROOT
BRANCH   1   7
HETATM    7  N   UNL     1      41.067 -14.397   2.842  1.00  0.00    -0.322 N 
HETATM    8  C   UNL     1      39.947 -13.710   2.418  1.00  0.00     0.274 C 
HETATM    9  O   UNL     1      39.175 -13.090   3.138  1.00  0.00    -0.266 OA
HETATM   10  H   UNL     1      41.671 -14.761   2.119  1.00  0.00     0.169 HD
BRANCH   8  11
HETATM   11  C   UNL     1      39.735 -13.734   0.989  1.00  0.00     0.120 A 
HETATM   12  N   UNL     1      38.925 -12.805   0.388  1.00  0.00    -0.273 N 
HETATM   13  N   UNL     1      38.820 -12.948  -0.943  1.00  0.00    -0.179 NA
HETATM   14  H   UNL     1      38.422 -12.053   0.850  1.00  0.00     0.189 HD
HETATM   15  C   UNL     1      39.577 -14.015  -1.214  1.00  0.00     0.056 A 
HETATM   16  C   UNL     1      40.174 -14.541  -0.042  1.00  0.00     0.065 A 
BRANCH  15  17
HETATM   17  C   UNL     1      39.704 -14.513  -2.613  1.00  0.00     0.056 C 
HETATM   18  C   UNL     1      38.355 -14.654  -3.299  1.00  0.00     0.011 C 
ENDBRANCH  15  17
ENDBRANCH   8  11
ENDBRANCH   1   7
BRANCH   3  19
HETATM   19  N   UNL     1      43.280 -12.944   7.049  1.00  0.00    -0.323 N 
HETATM   20  C   UNL     1      43.252 -11.563   6.948  1.00  0.00     0.256 C 
HETATM   21  O   UNL     1      42.569 -10.898   6.178  1.00  0.00    -0.267 OA
HETATM   22  H   UNL     1      43.883 -13.345   7.753  1.00  0.00     0.169 HD
BRANCH  20  23
HETATM   23  C   UNL     1      44.171 -10.834   7.868  1.00  0.00     0.032 A 
HETATM   24  C   UNL     1      45.355 -10.313   7.328  1.00  0.00     0.017 A 
HETATM   25  C   UNL     1      46.259  -9.631   8.143  1.00  0.00     0.001 A 
HETATM   26  C   UNL     1      45.982  -9.458   9.498  1.00  0.00     0.000 A 
HETATM   27  C   UNL     1      44.795  -9.956  10.037  1.00  0.00     0.001 A 
HETATM   28  C   UNL     1      43.885 -10.638   9.225  1.00  0.00     0.017 A 
ENDBRANCH  20  23
ENDBRANCH   3  19
TORSDOF 5
ENDMDL
MODEL 9
REMARK VINA RESULT:      -7.5      3.927      5.736
REMARK  5 active torsions:
REMARK  status: ('A' for Active; 'I' for Inactive)
REMARK    1  A    between atoms: C_2  and  C_3 
REMARK    2  A    between atoms: C_7  and  C_8 
REMARK       I    between atoms: C_8  and  N_9 
REMARK    3  A    between atoms: N_9  and  C_10 
REMARK    4  A    between atoms: C_12  and  N_13 
REMARK       I    between atoms: N_13  and  C_14 
REMARK    5  A    between atoms: C_14  and  C_15 
ROOT
HETATM    1  C   UNL     1      42.749 -14.484   4.196  1.00  0.00     0.037 A 
HETATM    2  C   UNL     1      42.001 -14.135   3.065  1.00  0.00     0.059 A 
HETATM    3  C   UNL     1      41.381 -15.116   2.279  1.00  0.00     0.037 A 
HETATM    4  C   UNL     1      41.518 -16.462   2.641  1.00  0.00     0.029 A 
HETATM    5  C   UNL     1      42.280 -16.823   3.750  1.00  0.00     0.004 A 
HETATM    6  C   UNL     1      42.897 -15.838   4.521  1.00  0.00     0.029 A 
ENDROOT
BRANCH   1   7
HETATM    7  N   UNL     1      43.380 -13.551   5.049  1.00  0.00    -0.322 N 
HETATM    8  C   UNL     1      42.781 -12.664   5.922  1.00  0.00     0.274 C 
HETATM    9  O   UNL     1      41.580 -12.584   6.147  1.00  0.00    -0.266 OA
HETATM   10  H   UNL     1      44.389 -13.577   5.058  1.00  0.00     0.169 HD
BRANCH   8  11
HETATM   11  C   UNL     1      43.702 -11.801   6.626  1.00  0.00     0.120 A 
HETATM   12  N   UNL     1      45.056 -11.967   6.490  1.00  0.00    -0.273 N 
HETATM   13  N   UNL     1      45.790 -11.096   7.201  1.00  0.00    -0.179 NA
HETATM   14  H   UNL     1      45.525 -12.664   5.919  1.00  0.00     0.189 HD
HETATM   15  C   UNL     1      44.880 -10.347   7.832  1.00  0.00     0.056 A 
HETATM   16  C   UNL     1      43.561 -10.745   7.504  1.00  0.00     0.065 A 
BRANCH  15  17
HETATM   17  C   UNL     1      45.308  -9.257   8.753  1.00  0.00     0.056 C 
HETATM   18  C   UNL     1      45.247  -9.679  10.213  1.00  0.00     0.011 C 
ENDBRANCH  15  17
ENDBRANCH   8  11
ENDBRANCH   1   7
BRANCH   3  19
HETATM   19  N   UNL     1      40.591 -14.836   1.141  1.00  0.00    -0.323 N 
HETATM   20  C   UNL     1      40.618 -13.692   0.362  1.00  0.00     0.256 C 
HETATM   21  O   UNL     1      41.387 -12.745   0.477  1.00  0.00    -0.267 OA
HETATM   22  H   UNL     1      39.907 -15.541   0.906  1.00  0.00     0.169 HD
BRANCH  20  23
HETATM   23  C   UNL     1      39.581 -13.619  -0.707  1.00  0.00     0.032 A 
HETATM   24  C   UNL     1      38.720 -12.514  -0.705  1.00  0.00     0.017 A 
HETATM   25  C   UNL     1      37.723 -12.397  -1.674  1.00  0.00     0.001 A 
HETATM   26  C   UNL     1      37.586 -13.379  -2.654  1.00  0.00     0.000 A 
HETATM   27  C   UNL     1      38.454 -14.472  -2.674  1.00  0.00     0.001 A 
HETATM   28  C   UNL     1      39.456 -14.592  -1.706  1.00  0.00     0.017 A 
ENDBRANCH  20  23
ENDBRANCH   3  19
TORSDOF 5
ENDMDL
MODEL 10
REMARK VINA RESULT:      -7.4     17.690     18.796
REMARK  5 active torsions:
REMARK  status: ('A' for Active; 'I' for Inactive)
REMARK    1  A    between atoms: C_2  and  C_3 
REMARK    2  A    between atoms: C_7  and  C_8 
REMARK       I    between atoms: C_8  and  N_9 
REMARK    3  A    between atoms: N_9  and  C_10 
REMARK    4  A    between atoms: C_12  and  N_13 
REMARK       I    between atoms: N_13  and  C_14 
REMARK    5  A    between atoms: C_14  and  C_15 
ROOT
HETATM    1  C   UNL     1      41.436 -31.211   4.364  1.00  0.00     0.037 A 
HETATM    2  C   UNL     1      42.226 -30.590   3.389  1.00  0.00     0.059 A 
HETATM    3  C   UNL     1      41.892 -30.672   2.030  1.00  0.00     0.037 A 
HETATM    4  C   UNL     1      40.749 -31.388   1.654  1.00  0.00     0.029 A 
HETATM    5  C   UNL     1      39.969 -32.031   2.614  1.00  0.00     0.004 A 
HETATM    6  C   UNL     1      40.315 -31.947   3.962  1.00  0.00     0.029 A 
ENDROOT
BRANCH   1   7
HETATM    7  N   UNL     1      41.695 -31.151   5.752  1.00  0.00    -0.322 N 
HETATM    8  C   UNL     1      42.114 -32.175   6.578  1.00  0.00     0.274 C 
HETATM    9  O   UNL     1      42.393 -33.313   6.220  1.00  0.00    -0.266 OA
HETATM   10  H   UNL     1      41.617 -30.237   6.174  1.00  0.00     0.169 HD
BRANCH   8  11
HETATM   11  C   UNL     1      42.247 -31.807   7.969  1.00  0.00     0.120 A 
HETATM   12  N   UNL     1      42.855 -30.631   8.324  1.00  0.00    -0.273 N 
HETATM   13  N   UNL     1      42.910 -30.419   9.649  1.00  0.00    -0.179 NA
HETATM   14  H   UNL     1      43.251 -29.940   7.693  1.00  0.00     0.189 HD
HETATM   15  C   UNL     1      42.328 -31.502  10.173  1.00  0.00     0.056 A 
HETATM   16  C   UNL     1      41.893 -32.398   9.165  1.00  0.00     0.065 A 
BRANCH  15  17
HETATM   17  C   UNL     1      42.208 -31.654  11.651  1.00  0.00     0.056 C 
HETATM   18  C   UNL     1      43.215 -30.797  12.401  1.00  0.00     0.011 C 
ENDBRANCH  15  17
ENDBRANCH   8  11
ENDBRANCH   1   7
BRANCH   3  19
HETATM   19  N   UNL     1      42.626 -30.050   0.995  1.00  0.00    -0.323 N 
HETATM   20  C   UNL     1      43.502 -30.653   0.109  1.00  0.00     0.256 C 
HETATM   21  O   UNL     1      43.740 -31.851   0.014  1.00  0.00    -0.267 OA
HETATM   22  H   UNL     1      42.523 -29.047   0.934  1.00  0.00     0.169 HD
BRANCH  20  23
HETATM   23  C   UNL     1      44.234 -29.726  -0.801  1.00  0.00     0.032 A 
HETATM   24  C   UNL     1      44.016 -29.858  -2.180  1.00  0.00     0.017 A 
HETATM   25  C   UNL     1      44.681 -29.026  -3.080  1.00  0.00     0.001 A 
HETATM   26  C   UNL     1      45.562 -28.054  -2.609  1.00  0.00     0.000 A 
HETATM   27  C   UNL     1      45.768 -27.904  -1.237  1.00  0.00     0.001 A 
HETATM   28  C   UNL     1      45.101 -28.733  -0.330  1.00  0.00     0.017 A 
ENDBRANCH  20  23
ENDBRANCH   3  19
TORSDOF 5
ENDMDL
