MODEL 1
REMARK VINA RESULT:      -9.1      0.000      0.000
REMARK  5 active torsions:
REMARK  status: ('A' for Active; 'I' for Inactive)
REMARK    1  A    between atoms: C_2  and  C_3 
REMARK    2  A    between atoms: C_7  and  N_8 
REMARK    3  A    between atoms: C_13  and  N_14 
REMARK       I    between atoms: N_14  and  C_15 
REMARK    4  A    between atoms: C_15  and  C_16 
REMARK       I    between atoms: C_16  and  N_17 
REMARK    5  A    between atoms: N_17  and  C_18 
ROOT
HETATM    1  N   UNL     1      41.233 -13.897   4.638  1.00  0.00    -0.045 N 
HETATM    2  N   UNL     1      40.167 -13.891   3.776  1.00  0.00    -0.156 NA
HETATM    3  C   UNL     1      39.826 -12.600   3.679  1.00  0.00     0.055 C 
HETATM    4  C   UNL     1      38.729 -12.171   2.775  1.00  0.00     0.072 C 
HETATM    5  C   UNL     1      40.606 -11.780   4.527  1.00  0.00     0.079 C 
HETATM    6  C   UNL     1      41.413 -12.651   5.219  1.00  0.00     0.152 C 
ENDROOT
BRANCH   6   7
HETATM    7  N   UNL     1      42.228 -12.261   6.264  1.00  0.00    -0.303 N 
HETATM    8  C   UNL     1      43.472 -11.576   6.034  1.00  0.00     0.315 C 
HETATM    9  O   UNL     1      43.920 -11.378   4.919  1.00  0.00    -0.262 OA
HETATM   10  H   UNL     1      42.058 -12.593   7.209  1.00  0.00     0.171 HD
BRANCH   8  11
HETATM   11  C   UNL     1      44.295 -11.422   7.324  1.00  0.00     0.310 C 
HETATM   12  N   UNL     1      43.628 -10.840   8.388  1.00  0.00    -0.348 N 
HETATM   13  H   UNL     1      42.638 -10.635   8.276  1.00  0.00     0.163 HD
HETATM   14  O   UNL     1      45.498 -11.645   7.260  1.00  0.00    -0.262 OA
BRANCH  12  15
HETATM   15  C   UNL     1      44.377 -10.159   9.437  1.00  0.00     0.085 C 
HETATM   16  C   UNL     1      44.380  -8.631   9.242  1.00  0.00     0.034 C 
HETATM   17  C   UNL     1      43.061  -7.914   9.614  1.00  0.00    -0.045 C 
HETATM   18  C   UNL     1      41.929  -8.209   8.609  1.00  0.00     0.015 C 
HETATM   19  C   UNL     1      43.311  -6.392   9.576  1.00  0.00     0.015 C 
HETATM   20  C   UNL     1      42.646  -8.324  11.042  1.00  0.00     0.013 C 
HETATM   21  C   UNL     1      42.576  -9.847  11.249  1.00  0.00    -0.016 C 
HETATM   22  C   UNL     1      42.251 -10.155  12.714  1.00  0.00     0.010 C 
HETATM   23  C   UNL     1      43.887 -10.537  10.840  1.00  0.00     0.029 C 
ENDBRANCH  12  15
ENDBRANCH   8  11
ENDBRANCH   6   7
BRANCH   1  24
HETATM   24  C   UNL     1      42.079 -15.017   4.694  1.00  0.00     0.732 A 
HETATM   25  N   UNL     1      41.863 -15.864   3.648  1.00  0.00    -0.152 N 
HETATM   26  C   UNL     1      42.615 -16.982   3.476  1.00  0.00     0.268 A 
HETATM   27  H   UNL     1      41.160 -15.642   2.951  1.00  0.00     0.188 HD
HETATM   28  C   UNL     1      43.668 -17.212   4.507  1.00  0.00     0.035 A 
HETATM   29  O   UNL     1      42.442 -17.736   2.528  1.00  0.00    -0.267 OA
HETATM   30  C   UNL     1      43.780 -16.300   5.497  1.00  0.00     0.061 A 
HETATM   31  N   UNL     1      42.981 -15.179   5.605  1.00  0.00    -0.067 NA
HETATM   32  C   UNL     1      44.831 -16.379   6.577  1.00  0.00     0.072 C 
BRANCH  28  33
HETATM   33  C   UNL     1      44.486 -18.465   4.338  1.00  0.00     0.042 C 
HETATM   34  C   UNL     1      43.966 -19.606   5.201  1.00  0.00     0.010 C 
ENDBRANCH  28  33
ENDBRANCH   1  24
TORSDOF 5
ENDMDL
MODEL 2
REMARK VINA RESULT:      -8.8      2.391      7.843
REMARK  5 active torsions:
REMARK  status: ('A' for Active; 'I' for Inactive)
REMARK    1  A    between atoms: C_2  and  C_3 
REMARK    2  A    between atoms: C_7  and  N_8 
REMARK    3  A    between atoms: C_13  and  N_14 
REMARK       I    between atoms: N_14  and  C_15 
REMARK    4  A    between atoms: C_15  and  C_16 
REMARK       I    between atoms: C_16  and  N_17 
REMARK    5  A    between atoms: N_17  and  C_18 
ROOT
HETATM    1  N   UNL     1      42.768 -10.035   7.002  1.00  0.00    -0.045 N 
HETATM    2  N   UNL     1      43.081  -8.791   7.486  1.00  0.00    -0.156 NA
HETATM    3  C   UNL     1      44.121  -9.006   8.302  1.00  0.00     0.055 C 
HETATM    4  C   UNL     1      44.795  -7.873   8.986  1.00  0.00     0.072 C 
HETATM    5  C   UNL     1      44.434 -10.380   8.413  1.00  0.00     0.079 C 
HETATM    6  C   UNL     1      43.475 -11.024   7.669  1.00  0.00     0.152 C 
ENDROOT
BRANCH   6   7
HETATM    7  N   UNL     1      43.336 -12.398   7.639  1.00  0.00    -0.303 N 
HETATM    8  C   UNL     1      43.937 -13.194   6.602  1.00  0.00     0.315 C 
HETATM    9  O   UNL     1      44.524 -12.706   5.653  1.00  0.00    -0.262 OA
HETATM   10  H   UNL     1      42.669 -12.868   8.245  1.00  0.00     0.171 HD
BRANCH   8  11
HETATM   11  C   UNL     1      43.484 -14.662   6.662  1.00  0.00     0.310 C 
HETATM   12  N   UNL     1      43.362 -15.297   5.439  1.00  0.00    -0.348 N 
HETATM   13  H   UNL     1      43.654 -14.790   4.606  1.00  0.00     0.163 HD
HETATM   14  O   UNL     1      43.095 -15.092   7.741  1.00  0.00    -0.262 OA
BRANCH  12  15
HETATM   15  C   UNL     1      42.471 -16.441   5.293  1.00  0.00     0.085 C 
HETATM   16  C   UNL     1      41.252 -16.112   4.410  1.00  0.00     0.034 C 
HETATM   17  C   UNL     1      41.536 -16.044   2.891  1.00  0.00    -0.045 C 
HETATM   18  C   UNL     1      42.364 -14.803   2.503  1.00  0.00     0.015 C 
HETATM   19  C   UNL     1      40.186 -15.933   2.152  1.00  0.00     0.015 C 
HETATM   20  C   UNL     1      42.250 -17.338   2.449  1.00  0.00     0.013 C 
HETATM   21  C   UNL     1      43.506 -17.661   3.277  1.00  0.00    -0.016 C 
HETATM   22  C   UNL     1      44.089 -19.005   2.831  1.00  0.00     0.010 C 
HETATM   23  C   UNL     1      43.203 -17.689   4.784  1.00  0.00     0.029 C 
ENDBRANCH  12  15
ENDBRANCH   8  11
ENDBRANCH   6   7
BRANCH   1  24
HETATM   24  C   UNL     1      41.975 -10.155   5.849  1.00  0.00     0.732 A 
HETATM   25  N   UNL     1      42.719 -10.486   4.757  1.00  0.00    -0.152 N 
HETATM   26  C   UNL     1      42.142 -10.710   3.548  1.00  0.00     0.268 A 
HETATM   27  H   UNL     1      43.722 -10.616   4.845  1.00  0.00     0.188 HD
HETATM   28  C   UNL     1      40.658 -10.557   3.507  1.00  0.00     0.035 A 
HETATM   29  O   UNL     1      42.800 -11.029   2.567  1.00  0.00    -0.267 OA
HETATM   30  C   UNL     1      40.035 -10.224   4.658  1.00  0.00     0.061 A 
HETATM   31  N   UNL     1      40.689 -10.016   5.856  1.00  0.00    -0.067 NA
HETATM   32  C   UNL     1      38.537 -10.084   4.775  1.00  0.00     0.072 C 
BRANCH  28  33
HETATM   33  C   UNL     1      40.014 -10.777   2.163  1.00  0.00     0.042 C 
HETATM   34  C   UNL     1      39.563 -12.218   1.976  1.00  0.00     0.010 C 
ENDBRANCH  28  33
ENDBRANCH   1  24
TORSDOF 5
ENDMDL
MODEL 3
REMARK VINA RESULT:      -8.8      4.251      7.742
REMARK  5 active torsions:
REMARK  status: ('A' for Active; 'I' for Inactive)
REMARK    1  A    between atoms: C_2  and  C_3 
REMARK    2  A    between atoms: C_7  and  N_8 
REMARK    3  A    between atoms: C_13  and  N_14 
REMARK       I    between atoms: N_14  and  C_15 
REMARK    4  A    between atoms: C_15  and  C_16 
REMARK       I    between atoms: C_16  and  N_17 
REMARK    5  A    between atoms: N_17  and  C_18 
ROOT
HETATM    1  N   UNL     1      39.643 -12.744   0.407  1.00  0.00    -0.045 N 
HETATM    2  N   UNL     1      38.744 -12.240  -0.498  1.00  0.00    -0.156 NA
HETATM    3  C   UNL     1      38.597 -13.220  -1.398  1.00  0.00     0.055 C 
HETATM    4  C   UNL     1      37.642 -13.075  -2.527  1.00  0.00     0.072 C 
HETATM    5  C   UNL     1      39.445 -14.319  -1.131  1.00  0.00     0.079 C 
HETATM    6  C   UNL     1      40.191 -13.935  -0.043  1.00  0.00     0.152 C 
ENDROOT
BRANCH   6   7
HETATM    7  N   UNL     1      41.251 -14.673   0.447  1.00  0.00    -0.303 N 
HETATM    8  C   UNL     1      41.064 -15.684   1.452  1.00  0.00     0.315 C 
HETATM    9  O   UNL     1      39.991 -15.891   1.989  1.00  0.00    -0.262 OA
HETATM   10  H   UNL     1      42.210 -14.409   0.239  1.00  0.00     0.171 HD
BRANCH   8  11
HETATM   11  C   UNL     1      42.401 -16.230   1.981  1.00  0.00     0.310 C 
HETATM   12  N   UNL     1      42.394 -16.641   3.303  1.00  0.00    -0.348 N 
HETATM   13  H   UNL     1      41.506 -16.635   3.800  1.00  0.00     0.163 HD
HETATM   14  O   UNL     1      43.391 -16.089   1.273  1.00  0.00    -0.262 OA
BRANCH  12  15
HETATM   15  C   UNL     1      43.633 -16.663   4.069  1.00  0.00     0.085 C 
HETATM   16  C   UNL     1      43.555 -15.761   5.315  1.00  0.00     0.034 C 
HETATM   17  C   UNL     1      42.728 -16.330   6.493  1.00  0.00    -0.045 C 
HETATM   18  C   UNL     1      41.216 -16.339   6.197  1.00  0.00     0.015 C 
HETATM   19  C   UNL     1      42.941 -15.417   7.718  1.00  0.00     0.015 C 
HETATM   20  C   UNL     1      43.231 -17.750   6.826  1.00  0.00     0.013 C 
HETATM   21  C   UNL     1      43.263 -18.691   5.609  1.00  0.00    -0.016 C 
HETATM   22  C   UNL     1      43.862 -20.041   6.016  1.00  0.00     0.010 C 
HETATM   23  C   UNL     1      44.062 -18.087   4.443  1.00  0.00     0.029 C 
ENDBRANCH  12  15
ENDBRANCH   8  11
ENDBRANCH   6   7
BRANCH   1  24
HETATM   24  C   UNL     1      39.762 -12.151   1.675  1.00  0.00     0.732 A 
HETATM   25  N   UNL     1      38.906 -11.101   1.824  1.00  0.00    -0.152 N 
HETATM   26  C   UNL     1      38.816 -10.422   2.996  1.00  0.00     0.268 A 
HETATM   27  H   UNL     1      38.286 -10.840   1.064  1.00  0.00     0.188 HD
HETATM   28  C   UNL     1      39.717 -10.899   4.085  1.00  0.00     0.035 A 
HETATM   29  O   UNL     1      38.034  -9.491   3.144  1.00  0.00    -0.267 OA
HETATM   30  C   UNL     1      40.521 -11.949   3.813  1.00  0.00     0.061 A 
HETATM   31  N   UNL     1      40.556 -12.596   2.594  1.00  0.00    -0.067 NA
HETATM   32  C   UNL     1      41.446 -12.567   4.832  1.00  0.00     0.072 C 
BRANCH  28  33
HETATM   33  C   UNL     1      39.642 -10.132   5.379  1.00  0.00     0.042 C 
HETATM   34  C   UNL     1      38.690 -10.782   6.372  1.00  0.00     0.010 C 
ENDBRANCH  28  33
ENDBRANCH   1  24
TORSDOF 5
ENDMDL
MODEL 4
REMARK VINA RESULT:      -8.7      3.226      8.115
REMARK  5 active torsions:
REMARK  status: ('A' for Active; 'I' for Inactive)
REMARK    1  A    between atoms: C_2  and  C_3 
REMARK    2  A    between atoms: C_7  and  N_8 
REMARK    3  A    between atoms: C_13  and  N_14 
REMARK       I    between atoms: N_14  and  C_15 
REMARK    4  A    between atoms: C_15  and  C_16 
REMARK       I    between atoms: C_16  and  N_17 
REMARK    5  A    between atoms: N_17  and  C_18 
ROOT
HETATM    1  N   UNL     1      42.940 -15.983   3.518  1.00  0.00    -0.045 N 
HETATM    2  N   UNL     1      43.299 -17.144   4.154  1.00  0.00    -0.156 NA
HETATM    3  C   UNL     1      43.465 -18.027   3.161  1.00  0.00     0.055 C 
HETATM    4  C   UNL     1      43.920 -19.412   3.447  1.00  0.00     0.072 C 
HETATM    5  C   UNL     1      43.143 -17.475   1.900  1.00  0.00     0.079 C 
HETATM    6  C   UNL     1      42.692 -16.206   2.172  1.00  0.00     0.152 C 
ENDROOT
BRANCH   6   7
HETATM    7  N   UNL     1      42.135 -15.379   1.216  1.00  0.00    -0.303 N 
HETATM    8  C   UNL     1      40.710 -15.253   1.068  1.00  0.00     0.315 C 
HETATM    9  O   UNL     1      39.918 -15.922   1.707  1.00  0.00    -0.262 OA
HETATM   10  H   UNL     1      42.707 -14.970   0.483  1.00  0.00     0.171 HD
BRANCH   8  11
HETATM   11  C   UNL     1      40.327 -14.439  -0.179  1.00  0.00     0.310 C 
HETATM   12  N   UNL     1      40.864 -13.165  -0.245  1.00  0.00    -0.348 N 
HETATM   13  H   UNL     1      41.528 -12.889   0.475  1.00  0.00     0.163 HD
HETATM   14  O   UNL     1      39.452 -14.892  -0.906  1.00  0.00    -0.262 OA
BRANCH  12  15
HETATM   15  C   UNL     1      40.202 -12.131  -1.029  1.00  0.00     0.085 C 
HETATM   16  C   UNL     1      38.957 -11.574  -0.313  1.00  0.00     0.034 C 
HETATM   17  C   UNL     1      39.245 -10.606   0.859  1.00  0.00    -0.045 C 
HETATM   18  C   UNL     1      39.835 -11.330   2.086  1.00  0.00     0.015 C 
HETATM   19  C   UNL     1      37.909  -9.979   1.307  1.00  0.00     0.015 C 
HETATM   20  C   UNL     1      40.192  -9.490   0.373  1.00  0.00     0.013 C 
HETATM   21  C   UNL     1      41.474 -10.018  -0.294  1.00  0.00    -0.016 C 
HETATM   22  C   UNL     1      42.302  -8.843  -0.826  1.00  0.00     0.010 C 
HETATM   23  C   UNL     1      41.159 -11.002  -1.432  1.00  0.00     0.029 C 
ENDBRANCH  12  15
ENDBRANCH   8  11
ENDBRANCH   6   7
BRANCH   1  24
HETATM   24  C   UNL     1      43.038 -14.757   4.196  1.00  0.00     0.732 A 
HETATM   25  N   UNL     1      43.198 -14.935   5.538  1.00  0.00    -0.152 N 
HETATM   26  C   UNL     1      43.373 -13.881   6.376  1.00  0.00     0.268 A 
HETATM   27  H   UNL     1      43.234 -15.873   5.926  1.00  0.00     0.188 HD
HETATM   28  C   UNL     1      43.366 -12.538   5.728  1.00  0.00     0.035 A 
HETATM   29  O   UNL     1      43.538 -14.033   7.580  1.00  0.00    -0.267 OA
HETATM   30  C   UNL     1      43.196 -12.494   4.388  1.00  0.00     0.061 A 
HETATM   31  N   UNL     1      43.029 -13.612   3.596  1.00  0.00    -0.067 NA
HETATM   32  C   UNL     1      43.218 -11.210   3.596  1.00  0.00     0.072 C 
BRANCH  28  33
HETATM   33  C   UNL     1      43.531 -11.362   6.655  1.00  0.00     0.042 C 
HETATM   34  C   UNL     1      44.996 -11.028   6.895  1.00  0.00     0.010 C 
ENDBRANCH  28  33
ENDBRANCH   1  24
TORSDOF 5
ENDMDL
MODEL 5
REMARK VINA RESULT:      -8.7      2.451      8.458
REMARK  5 active torsions:
REMARK  status: ('A' for Active; 'I' for Inactive)
REMARK    1  A    between atoms: C_2  and  C_3 
REMARK    2  A    between atoms: C_7  and  N_8 
REMARK    3  A    between atoms: C_13  and  N_14 
REMARK       I    between atoms: N_14  and  C_15 
REMARK    4  A    between atoms: C_15  and  C_16 
REMARK       I    between atoms: C_16  and  N_17 
REMARK    5  A    between atoms: N_17  and  C_18 
ROOT
HETATM    1  N   UNL     1      42.078  -9.375   6.978  1.00  0.00    -0.045 N 
HETATM    2  N   UNL     1      41.992  -8.163   6.343  1.00  0.00    -0.156 NA
HETATM    3  C   UNL     1      41.320  -8.427   5.216  1.00  0.00     0.055 C 
HETATM    4  C   UNL     1      40.969  -7.338   4.269  1.00  0.00     0.072 C 
HETATM    5  C   UNL     1      41.039  -9.806   5.075  1.00  0.00     0.079 C 
HETATM    6  C   UNL     1      41.643 -10.403   6.155  1.00  0.00     0.152 C 
ENDROOT
BRANCH   6   7
HETATM    7  N   UNL     1      41.731 -11.773   6.312  1.00  0.00    -0.303 N 
HETATM    8  C   UNL     1      42.985 -12.466   6.185  1.00  0.00     0.315 C 
HETATM    9  O   UNL     1      44.015 -11.910   5.852  1.00  0.00    -0.262 OA
HETATM   10  H   UNL     1      40.894 -12.348   6.352  1.00  0.00     0.171 HD
BRANCH   8  11
HETATM   11  C   UNL     1      42.807 -13.993   6.203  1.00  0.00     0.310 C 
HETATM   12  N   UNL     1      42.511 -14.572   4.981  1.00  0.00    -0.348 N 
HETATM   13  H   UNL     1      42.515 -13.974   4.157  1.00  0.00     0.163 HD
HETATM   14  O   UNL     1      42.754 -14.546   7.295  1.00  0.00    -0.262 OA
BRANCH  12  15
HETATM   15  C   UNL     1      41.811 -15.848   4.925  1.00  0.00     0.085 C 
HETATM   16  C   UNL     1      40.700 -15.850   3.858  1.00  0.00     0.034 C 
HETATM   17  C   UNL     1      41.189 -15.968   2.395  1.00  0.00    -0.045 C 
HETATM   18  C   UNL     1      41.890 -14.685   1.905  1.00  0.00     0.015 C 
HETATM   19  C   UNL     1      39.957 -16.180   1.490  1.00  0.00     0.015 C 
HETATM   20  C   UNL     1      42.125 -17.187   2.269  1.00  0.00     0.013 C 
HETATM   21  C   UNL     1      43.281 -17.182   3.285  1.00  0.00    -0.016 C 
HETATM   22  C   UNL     1      44.096 -18.471   3.148  1.00  0.00     0.010 C 
HETATM   23  C   UNL     1      42.770 -17.029   4.727  1.00  0.00     0.029 C 
ENDBRANCH  12  15
ENDBRANCH   8  11
ENDBRANCH   6   7
BRANCH   1  24
HETATM   24  C   UNL     1      42.390  -9.425   8.346  1.00  0.00     0.732 A 
HETATM   25  N   UNL     1      41.269  -9.406   9.121  1.00  0.00    -0.152 N 
HETATM   26  C   UNL     1      41.340  -9.506  10.473  1.00  0.00     0.268 A 
HETATM   27  H   UNL     1      40.352  -9.364   8.686  1.00  0.00     0.188 HD
HETATM   28  C   UNL     1      42.717  -9.624  11.036  1.00  0.00     0.035 A 
HETATM   29  O   UNL     1      40.337  -9.512  11.174  1.00  0.00    -0.267 OA
HETATM   30  C   UNL     1      43.748  -9.628  10.163  1.00  0.00     0.061 A 
HETATM   31  N   UNL     1      43.599  -9.528   8.794  1.00  0.00    -0.067 NA
HETATM   32  C   UNL     1      45.187  -9.791  10.587  1.00  0.00     0.072 C 
BRANCH  28  33
HETATM   33  C   UNL     1      42.806  -9.706  12.537  1.00  0.00     0.042 C 
HETATM   34  C   UNL     1      42.944  -8.332  13.175  1.00  0.00     0.010 C 
ENDBRANCH  28  33
ENDBRANCH   1  24
TORSDOF 5
ENDMDL
MODEL 6
REMARK VINA RESULT:      -8.2      3.868      8.288
REMARK  5 active torsions:
REMARK  status: ('A' for Active; 'I' for Inactive)
REMARK    1  A    between atoms: C_2  and  C_3 
REMARK    2  A    between atoms: C_7  and  N_8 
REMARK    3  A    between atoms: C_13  and  N_14 
REMARK       I    between atoms: N_14  and  C_15 
REMARK    4  A    between atoms: C_15  and  C_16 
REMARK       I    between atoms: C_16  and  N_17 
REMARK    5  A    between atoms: N_17  and  C_18 
ROOT
HETATM    1  N   UNL     1      41.321 -14.140   4.458  1.00  0.00    -0.045 N 
HETATM    2  N   UNL     1      41.300 -13.418   5.623  1.00  0.00    -0.156 NA
HETATM    3  C   UNL     1      40.185 -12.682   5.535  1.00  0.00     0.055 C 
HETATM    4  C   UNL     1      39.774 -11.792   6.652  1.00  0.00     0.072 C 
HETATM    5  C   UNL     1      39.527 -12.859   4.297  1.00  0.00     0.079 C 
HETATM    6  C   UNL     1      40.341 -13.702   3.580  1.00  0.00     0.152 C 
ENDROOT
BRANCH   6   7
HETATM    7  N   UNL     1      40.130 -14.010   2.250  1.00  0.00    -0.303 N 
HETATM    8  C   UNL     1      41.065 -13.620   1.229  1.00  0.00     0.315 C 
HETATM    9  O   UNL     1      42.042 -12.931   1.457  1.00  0.00    -0.262 OA
HETATM   10  H   UNL     1      39.233 -14.368   1.934  1.00  0.00     0.171 HD
BRANCH   8  11
HETATM   11  C   UNL     1      40.526 -13.895  -0.185  1.00  0.00     0.310 C 
HETATM   12  N   UNL     1      40.805 -12.919  -1.127  1.00  0.00    -0.348 N 
HETATM   13  H   UNL     1      41.405 -12.146  -0.850  1.00  0.00     0.163 HD
HETATM   14  O   UNL     1      39.754 -14.835  -0.325  1.00  0.00    -0.262 OA
BRANCH  12  15
HETATM   15  C   UNL     1      39.951 -12.768  -2.298  1.00  0.00     0.085 C 
HETATM   16  C   UNL     1      38.521 -12.340  -1.916  1.00  0.00     0.034 C 
HETATM   17  C   UNL     1      38.361 -10.855  -1.513  1.00  0.00    -0.045 C 
HETATM   18  C   UNL     1      39.000 -10.546  -0.145  1.00  0.00     0.015 C 
HETATM   19  C   UNL     1      36.854 -10.550  -1.385  1.00  0.00     0.015 C 
HETATM   20  C   UNL     1      38.967  -9.962  -2.615  1.00  0.00     0.013 C 
HETATM   21  C   UNL     1      40.417 -10.329  -2.976  1.00  0.00    -0.016 C 
HETATM   22  C   UNL     1      40.898  -9.456  -4.138  1.00  0.00     0.010 C 
HETATM   23  C   UNL     1      40.554 -11.817  -3.339  1.00  0.00     0.029 C 
ENDBRANCH  12  15
ENDBRANCH   8  11
ENDBRANCH   6   7
BRANCH   1  24
HETATM   24  C   UNL     1      42.137 -15.279   4.359  1.00  0.00     0.732 A 
HETATM   25  N   UNL     1      42.949 -15.414   5.445  1.00  0.00    -0.152 N 
HETATM   26  C   UNL     1      43.779 -16.480   5.581  1.00  0.00     0.268 A 
HETATM   27  H   UNL     1      42.909 -14.733   6.197  1.00  0.00     0.188 HD
HETATM   28  C   UNL     1      43.741 -17.469   4.464  1.00  0.00     0.035 A 
HETATM   29  O   UNL     1      44.495 -16.620   6.564  1.00  0.00    -0.267 OA
HETATM   30  C   UNL     1      42.895 -17.221   3.441  1.00  0.00     0.061 A 
HETATM   31  N   UNL     1      42.073 -16.113   3.373  1.00  0.00    -0.067 NA
HETATM   32  C   UNL     1      42.717 -18.157   2.272  1.00  0.00     0.072 C 
BRANCH  28  33
HETATM   33  C   UNL     1      44.679 -18.640   4.595  1.00  0.00     0.042 C 
HETATM   34  C   UNL     1      44.017 -19.827   5.279  1.00  0.00     0.010 C 
ENDBRANCH  28  33
ENDBRANCH   1  24
TORSDOF 5
ENDMDL
MODEL 7
REMARK VINA RESULT:      -8.1      1.762      4.623
REMARK  5 active torsions:
REMARK  status: ('A' for Active; 'I' for Inactive)
REMARK    1  A    between atoms: C_2  and  C_3 
REMARK    2  A    between atoms: C_7  and  N_8 
REMARK    3  A    between atoms: C_13  and  N_14 
REMARK       I    between atoms: N_14  and  C_15 
REMARK    4  A    between atoms: C_15  and  C_16 
REMARK       I    between atoms: C_16  and  N_17 
REMARK    5  A    between atoms: N_17  and  C_18 
ROOT
HETATM    1  N   UNL     1      42.486 -13.760   5.265  1.00  0.00    -0.045 N 
HETATM    2  N   UNL     1      42.419 -14.894   4.498  1.00  0.00    -0.156 NA
HETATM    3  C   UNL     1      43.216 -15.767   5.127  1.00  0.00     0.055 C 
HETATM    4  C   UNL     1      43.363 -17.157   4.626  1.00  0.00     0.072 C 
HETATM    5  C   UNL     1      43.859 -15.188   6.246  1.00  0.00     0.079 C 
HETATM    6  C   UNL     1      43.469 -13.871   6.237  1.00  0.00     0.152 C 
ENDROOT
BRANCH   6   7
HETATM    7  N   UNL     1      43.998 -12.919   7.087  1.00  0.00    -0.303 N 
HETATM    8  C   UNL     1      44.690 -11.762   6.584  1.00  0.00     0.315 C 
HETATM    9  O   UNL     1      44.925 -11.596   5.401  1.00  0.00    -0.262 OA
HETATM   10  H   UNL     1      44.064 -13.091   8.086  1.00  0.00     0.171 HD
BRANCH   8  11
HETATM   11  C   UNL     1      45.358 -10.953   7.708  1.00  0.00     0.310 C 
HETATM   12  N   UNL     1      44.498 -10.443   8.666  1.00  0.00    -0.348 N 
HETATM   13  H   UNL     1      43.516 -10.701   8.611  1.00  0.00     0.163 HD
HETATM   14  O   UNL     1      46.542 -10.669   7.576  1.00  0.00    -0.262 OA
BRANCH  12  15
HETATM   15  C   UNL     1      44.878  -9.268   9.439  1.00  0.00     0.085 C 
HETATM   16  C   UNL     1      44.302  -7.972   8.838  1.00  0.00     0.034 C 
HETATM   17  C   UNL     1      42.793  -7.742   9.087  1.00  0.00    -0.045 C 
HETATM   18  C   UNL     1      41.909  -8.710   8.277  1.00  0.00     0.015 C 
HETATM   19  C   UNL     1      42.439  -6.314   8.622  1.00  0.00     0.015 C 
HETATM   20  C   UNL     1      42.503  -7.868  10.597  1.00  0.00     0.013 C 
HETATM   21  C   UNL     1      43.016  -9.182  11.213  1.00  0.00    -0.016 C 
HETATM   22  C   UNL     1      42.768  -9.175  12.725  1.00  0.00     0.010 C 
HETATM   23  C   UNL     1      44.509  -9.402  10.921  1.00  0.00     0.029 C 
ENDBRANCH  12  15
ENDBRANCH   8  11
ENDBRANCH   6   7
BRANCH   1  24
HETATM   24  C   UNL     1      41.507 -12.763   5.123  1.00  0.00     0.732 A 
HETATM   25  N   UNL     1      41.294 -12.447   3.815  1.00  0.00    -0.152 N 
HETATM   26  C   UNL     1      40.346 -11.548   3.448  1.00  0.00     0.268 A 
HETATM   27  H   UNL     1      41.819 -12.921   3.086  1.00  0.00     0.188 HD
HETATM   28  C   UNL     1      39.575 -10.936   4.569  1.00  0.00     0.035 A 
HETATM   29  O   UNL     1      40.134 -11.275   2.274  1.00  0.00    -0.267 OA
HETATM   30  C   UNL     1      39.881 -11.331   5.824  1.00  0.00     0.061 A 
HETATM   31  N   UNL     1      40.859 -12.258   6.122  1.00  0.00    -0.067 NA
HETATM   32  C   UNL     1      39.151 -10.833   7.047  1.00  0.00     0.072 C 
BRANCH  28  33
HETATM   33  C   UNL     1      38.540  -9.916   4.172  1.00  0.00     0.042 C 
HETATM   34  C   UNL     1      39.101  -8.502   4.180  1.00  0.00     0.010 C 
ENDBRANCH  28  33
ENDBRANCH   1  24
TORSDOF 5
ENDMDL
MODEL 8
REMARK VINA RESULT:      -8.0      2.945      7.885
REMARK  5 active torsions:
REMARK  status: ('A' for Active; 'I' for Inactive)
REMARK    1  A    between atoms: C_2  and  C_3 
REMARK    2  A    between atoms: C_7  and  N_8 
REMARK    3  A    between atoms: C_13  and  N_14 
REMARK       I    between atoms: N_14  and  C_15 
REMARK    4  A    between atoms: C_15  and  C_16 
REMARK       I    between atoms: C_16  and  N_17 
REMARK    5  A    between atoms: N_17  and  C_18 
ROOT
HETATM    1  N   UNL     1      40.813  -9.511   4.874  1.00  0.00    -0.045 N 
HETATM    2  N   UNL     1      40.954  -8.169   5.113  1.00  0.00    -0.156 NA
HETATM    3  C   UNL     1      41.608  -8.109   6.280  1.00  0.00     0.055 C 
HETATM    4  C   UNL     1      42.007  -6.800   6.860  1.00  0.00     0.072 C 
HETATM    5  C   UNL     1      41.822  -9.391   6.837  1.00  0.00     0.079 C 
HETATM    6  C   UNL     1      41.194 -10.259   5.977  1.00  0.00     0.152 C 
ENDROOT
BRANCH   6   7
HETATM    7  N   UNL     1      41.041 -11.607   6.240  1.00  0.00    -0.303 N 
HETATM    8  C   UNL     1      42.059 -12.562   5.896  1.00  0.00     0.315 C 
HETATM    9  O   UNL     1      43.067 -12.260   5.283  1.00  0.00    -0.262 OA
HETATM   10  H   UNL     1      40.141 -11.983   6.526  1.00  0.00     0.171 HD
BRANCH   8  11
HETATM   11  C   UNL     1      41.587 -14.011   6.100  1.00  0.00     0.310 C 
HETATM   12  N   UNL     1      42.283 -14.970   5.383  1.00  0.00    -0.348 N 
HETATM   13  H   UNL     1      43.094 -14.670   4.848  1.00  0.00     0.163 HD
HETATM   14  O   UNL     1      40.543 -14.187   6.717  1.00  0.00    -0.262 OA
BRANCH  12  15
HETATM   15  C   UNL     1      41.650 -16.241   5.056  1.00  0.00     0.085 C 
HETATM   16  C   UNL     1      40.597 -16.090   3.942  1.00  0.00     0.034 C 
HETATM   17  C   UNL     1      41.166 -15.919   2.514  1.00  0.00    -0.045 C 
HETATM   18  C   UNL     1      41.828 -14.543   2.306  1.00  0.00     0.015 C 
HETATM   19  C   UNL     1      39.995 -16.009   1.514  1.00  0.00     0.015 C 
HETATM   20  C   UNL     1      42.166 -17.057   2.226  1.00  0.00     0.013 C 
HETATM   21  C   UNL     1      43.266 -17.194   3.294  1.00  0.00    -0.016 C 
HETATM   22  C   UNL     1      44.150 -18.403   2.974  1.00  0.00     0.010 C 
HETATM   23  C   UNL     1      42.674 -17.328   4.706  1.00  0.00     0.029 C 
ENDBRANCH  12  15
ENDBRANCH   8  11
ENDBRANCH   6   7
BRANCH   1  24
HETATM   24  C   UNL     1      40.504  -9.959   3.579  1.00  0.00     0.732 A 
HETATM   25  N   UNL     1      41.438  -9.559   2.670  1.00  0.00    -0.152 N 
HETATM   26  C   UNL     1      41.364  -9.932   1.367  1.00  0.00     0.268 A 
HETATM   27  H   UNL     1      42.235  -9.006   2.971  1.00  0.00     0.188 HD
HETATM   28  C   UNL     1      40.197 -10.791   1.011  1.00  0.00     0.035 A 
HETATM   29  O   UNL     1      42.210  -9.595   0.550  1.00  0.00    -0.267 OA
HETATM   30  C   UNL     1      39.340 -11.119   2.002  1.00  0.00     0.061 A 
HETATM   31  N   UNL     1      39.482 -10.704   3.311  1.00  0.00    -0.067 NA
HETATM   32  C   UNL     1      38.147 -12.019   1.796  1.00  0.00     0.072 C 
BRANCH  28  33
HETATM   33  C   UNL     1      40.094 -11.187  -0.439  1.00  0.00     0.042 C 
HETATM   34  C   UNL     1      40.717 -12.550  -0.703  1.00  0.00     0.010 C 
ENDBRANCH  28  33
ENDBRANCH   1  24
TORSDOF 5
ENDMDL
MODEL 9
REMARK VINA RESULT:      -7.9      1.985      4.470
REMARK  5 active torsions:
REMARK  status: ('A' for Active; 'I' for Inactive)
REMARK    1  A    between atoms: C_2  and  C_3 
REMARK    2  A    between atoms: C_7  and  N_8 
REMARK    3  A    between atoms: C_13  and  N_14 
REMARK       I    between atoms: N_14  and  C_15 
REMARK    4  A    between atoms: C_15  and  C_16 
REMARK       I    between atoms: C_16  and  N_17 
REMARK    5  A    between atoms: N_17  and  C_18 
ROOT
HETATM    1  N   UNL     1      42.639 -14.150   4.952  1.00  0.00    -0.045 N 
HETATM    2  N   UNL     1      43.397 -15.292   4.999  1.00  0.00    -0.156 NA
HETATM    3  C   UNL     1      43.566 -15.522   6.307  1.00  0.00     0.055 C 
HETATM    4  C   UNL     1      44.300 -16.725   6.777  1.00  0.00     0.072 C 
HETATM    5  C   UNL     1      42.994 -14.504   7.104  1.00  0.00     0.079 C 
HETATM    6  C   UNL     1      42.517 -13.578   6.208  1.00  0.00     0.152 C 
ENDROOT
BRANCH   6   7
HETATM    7  N   UNL     1      42.012 -12.348   6.586  1.00  0.00    -0.303 N 
HETATM    8  C   UNL     1      42.807 -11.152   6.510  1.00  0.00     0.315 C 
HETATM    9  O   UNL     1      43.983 -11.161   6.196  1.00  0.00    -0.262 OA
HETATM   10  H   UNL     1      41.129 -12.278   7.085  1.00  0.00     0.171 HD
BRANCH   8  11
HETATM   11  C   UNL     1      42.107  -9.950   7.164  1.00  0.00     0.310 C 
HETATM   12  N   UNL     1      42.385  -9.758   8.507  1.00  0.00    -0.348 N 
HETATM   13  H   UNL     1      43.082 -10.360   8.940  1.00  0.00     0.163 HD
HETATM   14  O   UNL     1      41.237  -9.379   6.519  1.00  0.00    -0.262 OA
BRANCH  12  15
HETATM   15  C   UNL     1      41.439  -9.046   9.356  1.00  0.00     0.085 C 
HETATM   16  C   UNL     1      41.504  -9.527  10.818  1.00  0.00     0.034 C 
HETATM   17  C   UNL     1      42.723  -9.024  11.626  1.00  0.00    -0.045 C 
HETATM   18  C   UNL     1      44.040  -9.685  11.174  1.00  0.00     0.015 C 
HETATM   19  C   UNL     1      42.513  -9.407  13.106  1.00  0.00     0.015 C 
HETATM   20  C   UNL     1      42.812  -7.488  11.508  1.00  0.00     0.013 C 
HETATM   21  C   UNL     1      42.809  -6.983  10.055  1.00  0.00    -0.016 C 
HETATM   22  C   UNL     1      42.804  -5.451  10.040  1.00  0.00     0.010 C 
HETATM   23  C   UNL     1      41.606  -7.524   9.266  1.00  0.00     0.029 C 
ENDBRANCH  12  15
ENDBRANCH   8  11
ENDBRANCH   6   7
BRANCH   1  24
HETATM   24  C   UNL     1      41.961 -13.813   3.768  1.00  0.00     0.732 A 
HETATM   25  N   UNL     1      41.130 -14.812   3.360  1.00  0.00    -0.152 N 
HETATM   26  C   UNL     1      40.334 -14.671   2.269  1.00  0.00     0.268 A 
HETATM   27  H   UNL     1      41.061 -15.669   3.902  1.00  0.00     0.188 HD
HETATM   28  C   UNL     1      40.447 -13.364   1.558  1.00  0.00     0.035 A 
HETATM   29  O   UNL     1      39.569 -15.556   1.908  1.00  0.00    -0.267 OA
HETATM   30  C   UNL     1      41.310 -12.455   2.060  1.00  0.00     0.061 A 
HETATM   31  N   UNL     1      42.086 -12.667   3.182  1.00  0.00    -0.067 NA
HETATM   32  C   UNL     1      41.490 -11.076   1.474  1.00  0.00     0.072 C 
BRANCH  28  33
HETATM   33  C   UNL     1      39.589 -13.211   0.330  1.00  0.00     0.042 C 
HETATM   34  C   UNL     1      40.299 -13.694  -0.926  1.00  0.00     0.010 C 
ENDBRANCH  28  33
ENDBRANCH   1  24
TORSDOF 5
ENDMDL
MODEL 10
REMARK VINA RESULT:      -7.7      3.451      8.133
REMARK  5 active torsions:
REMARK  status: ('A' for Active; 'I' for Inactive)
REMARK    1  A    between atoms: C_2  and  C_3 
REMARK    2  A    between atoms: C_7  and  N_8 
REMARK    3  A    between atoms: C_13  and  N_14 
REMARK       I    between atoms: N_14  and  C_15 
REMARK    4  A    between atoms: C_15  and  C_16 
REMARK       I    between atoms: C_16  and  N_17 
REMARK    5  A    between atoms: N_17  and  C_18 
ROOT
HETATM    1  N   UNL     1      41.795 -15.485   5.150  1.00  0.00    -0.045 N 
HETATM    2  N   UNL     1      42.306 -16.273   6.149  1.00  0.00    -0.156 NA
HETATM    3  C   UNL     1      42.772 -17.354   5.511  1.00  0.00     0.055 C 
HETATM    4  C   UNL     1      43.466 -18.435   6.257  1.00  0.00     0.072 C 
HETATM    5  C   UNL     1      42.499 -17.312   4.124  1.00  0.00     0.079 C 
HETATM    6  C   UNL     1      41.765 -16.165   3.942  1.00  0.00     0.152 C 
ENDROOT
BRANCH   6   7
HETATM    7  N   UNL     1      41.168 -15.829   2.742  1.00  0.00    -0.303 N 
HETATM    8  C   UNL     1      41.876 -15.093   1.729  1.00  0.00     0.315 C 
HETATM    9  O   UNL     1      42.998 -14.651   1.897  1.00  0.00    -0.262 OA
HETATM   10  H   UNL     1      40.167 -15.942   2.608  1.00  0.00     0.171 HD
BRANCH   8  11
HETATM   11  C   UNL     1      40.956 -14.666   0.573  1.00  0.00     0.310 C 
HETATM   12  N   UNL     1      41.296 -13.479  -0.051  1.00  0.00    -0.348 N 
HETATM   13  H   UNL     1      42.159 -13.021   0.233  1.00  0.00     0.163 HD
HETATM   14  O   UNL     1      39.914 -15.292   0.417  1.00  0.00    -0.262 OA
BRANCH  12  15
HETATM   15  C   UNL     1      40.281 -12.702  -0.750  1.00  0.00     0.085 C 
HETATM   16  C   UNL     1      39.204 -12.165   0.212  1.00  0.00     0.034 C 
HETATM   17  C   UNL     1      39.635 -10.960   1.081  1.00  0.00    -0.045 C 
HETATM   18  C   UNL     1      40.651 -11.356   2.171  1.00  0.00     0.015 C 
HETATM   19  C   UNL     1      38.386 -10.417   1.806  1.00  0.00     0.015 C 
HETATM   20  C   UNL     1      40.212  -9.857   0.169  1.00  0.00     0.013 C 
HETATM   21  C   UNL     1      41.332 -10.353  -0.762  1.00  0.00    -0.016 C 
HETATM   22  C   UNL     1      41.773  -9.217  -1.690  1.00  0.00     0.010 C 
HETATM   23  C   UNL     1      40.888 -11.570  -1.588  1.00  0.00     0.029 C 
ENDBRANCH  12  15
ENDBRANCH   8  11
ENDBRANCH   6   7
BRANCH   1  24
HETATM   24  C   UNL     1      41.553 -14.123   5.393  1.00  0.00     0.732 A 
HETATM   25  N   UNL     1      40.232 -13.878   5.624  1.00  0.00    -0.152 N 
HETATM   26  C   UNL     1      39.787 -12.635   5.939  1.00  0.00     0.268 A 
HETATM   27  H   UNL     1      39.564 -14.642   5.609  1.00  0.00     0.188 HD
HETATM   28  C   UNL     1      40.835 -11.574   6.000  1.00  0.00     0.035 A 
HETATM   29  O   UNL     1      38.606 -12.411   6.169  1.00  0.00    -0.267 OA
HETATM   30  C   UNL     1      42.109 -11.943   5.748  1.00  0.00     0.061 A 
HETATM   31  N   UNL     1      42.490 -13.234   5.438  1.00  0.00    -0.067 NA
HETATM   32  C   UNL     1      43.275 -10.988   5.823  1.00  0.00     0.072 C 
BRANCH  28  33
HETATM   33  C   UNL     1      40.344 -10.187   6.321  1.00  0.00     0.042 C 
HETATM   34  C   UNL     1      40.082  -9.370   5.064  1.00  0.00     0.010 C 
ENDBRANCH  28  33
ENDBRANCH   1  24
TORSDOF 5
ENDMDL
