MODEL 1
REMARK VINA RESULT:      -9.4      0.000      0.000
REMARK  6 active torsions:
REMARK  status: ('A' for Active; 'I' for Inactive)
REMARK    1  A    between atoms: O_2  and  C_3 
REMARK    2  A    between atoms: C_6  and  C_7 
REMARK    3  A    between atoms: C_12  and  C_13 
REMARK       I    between atoms: C_13  and  N_14 
REMARK    4  A    between atoms: N_14  and  C_15 
REMARK    5  A    between atoms: C_15  and  C_16 
REMARK    6  A    between atoms: C_24  and  C_25 
ROOT
HETATM    1  C   UNL     1      42.585 -14.739   3.832  1.00  0.00     0.118 C 
HETATM    2  N   UNL     1      42.875 -14.457   5.235  1.00  0.00    -0.366 N 
HETATM    3  C   UNL     1      43.443 -13.305   5.642  1.00  0.00     0.123 A 
HETATM    4  N   UNL     1      43.662 -12.275   4.773  1.00  0.00    -0.240 N 
HETATM    5  N   UNL     1      44.338 -11.241   5.301  1.00  0.00    -0.165 NA
HETATM    6  C   UNL     1      44.493 -11.601   6.598  1.00  0.00     0.148 A 
HETATM    7  C   UNL     1      43.928 -12.883   6.850  1.00  0.00     0.088 A 
HETATM    8  C   UNL     1      43.307 -12.332   3.368  1.00  0.00     0.221 C 
HETATM    9  C   UNL     1      43.368 -13.794   2.896  1.00  0.00     0.066 C 
HETATM   10  H   UNL     1      42.675 -15.212   5.890  1.00  0.00     0.161 HD
ENDROOT
BRANCH   6  11
HETATM   11  C   UNL     1      45.183 -10.746   7.573  1.00  0.00     0.272 C 
HETATM   12  N   UNL     1      44.324 -10.039   8.379  1.00  0.00    -0.351 N 
HETATM   13  H   UNL     1      43.333 -10.136   8.174  1.00  0.00     0.163 HD
HETATM   14  O   UNL     1      46.405 -10.679   7.650  1.00  0.00    -0.266 OA
BRANCH  12  15
HETATM   15  C   UNL     1      44.775  -9.120   9.390  1.00  0.00     0.161 C 
BRANCH  15  16
HETATM   16  C   UNL     1      44.046  -9.314  10.696  1.00  0.00    -0.041 A 
HETATM   17  C   UNL     1      43.569  -8.216  11.429  1.00  0.00     0.009 A 
HETATM   18  C   UNL     1      42.862  -8.406  12.617  1.00  0.00     0.001 A 
HETATM   19  C   UNL     1      42.607  -9.696  13.077  1.00  0.00     0.000 A 
HETATM   20  C   UNL     1      43.057 -10.796  12.349  1.00  0.00     0.001 A 
HETATM   21  C   UNL     1      43.770 -10.607  11.164  1.00  0.00     0.009 A 
ENDBRANCH  15  16
ENDBRANCH  12  15
ENDBRANCH   6  11
BRANCH   8  22
HETATM   22  C   UNL     1      41.951 -11.704   3.150  1.00  0.00     0.409 C 
HETATM   23  F   UNL     1      41.175 -11.748   4.255  1.00  0.00    -0.169 F 
HETATM   24  F   UNL     1      42.101 -10.389   2.838  1.00  0.00    -0.169 F 
HETATM   25  F   UNL     1      41.255 -12.260   2.136  1.00  0.00    -0.169 F 
ENDBRANCH   8  22
BRANCH   1  26
HETATM   26  C   UNL     1      42.926 -16.190   3.538  1.00  0.00    -0.035 A 
HETATM   27  C   UNL     1      42.535 -16.786   2.331  1.00  0.00     0.012 A 
HETATM   28  C   UNL     1      42.857 -18.121   2.054  1.00  0.00     0.037 A 
HETATM   29  C   UNL     1      43.577 -18.878   2.978  1.00  0.00     0.068 A 
HETATM   30  C   UNL     1      43.961 -18.295   4.185  1.00  0.00     0.037 A 
HETATM   31  C   UNL     1      43.643 -16.965   4.464  1.00  0.00     0.012 A 
BRANCH  29  32
HETATM   32  O   UNL     1      43.958 -20.183   2.831  1.00  0.00    -0.356 OA
HETATM   33  C   UNL     1      43.917 -21.000   3.994  1.00  0.00     0.210 C 
ENDBRANCH  29  32
ENDBRANCH   1  26
TORSDOF 6
ENDMDL
MODEL 2
REMARK VINA RESULT:      -8.5      2.511      2.846
REMARK  6 active torsions:
REMARK  status: ('A' for Active; 'I' for Inactive)
REMARK    1  A    between atoms: O_2  and  C_3 
REMARK    2  A    between atoms: C_6  and  C_7 
REMARK    3  A    between atoms: C_12  and  C_13 
REMARK       I    between atoms: C_13  and  N_14 
REMARK    4  A    between atoms: N_14  and  C_15 
REMARK    5  A    between atoms: C_15  and  C_16 
REMARK    6  A    between atoms: C_24  and  C_25 
ROOT
HETATM    1  C   UNL     1      41.863 -15.162   3.235  1.00  0.00     0.118 C 
HETATM    2  N   UNL     1      40.930 -14.857   4.317  1.00  0.00    -0.366 N 
HETATM    3  C   UNL     1      40.726 -13.603   4.767  1.00  0.00     0.123 A 
HETATM    4  N   UNL     1      41.285 -12.524   4.144  1.00  0.00    -0.240 N 
HETATM    5  N   UNL     1      41.081 -11.356   4.776  1.00  0.00    -0.165 NA
HETATM    6  C   UNL     1      40.286 -11.700   5.817  1.00  0.00     0.148 A 
HETATM    7  C   UNL     1      40.029 -13.100   5.832  1.00  0.00     0.088 A 
HETATM    8  C   UNL     1      42.128 -12.634   2.970  1.00  0.00     0.221 C 
HETATM    9  C   UNL     1      42.844 -13.995   2.993  1.00  0.00     0.066 C 
HETATM   10  H   UNL     1      40.482 -15.660   4.756  1.00  0.00     0.161 HD
ENDROOT
BRANCH   6  11
HETATM   11  C   UNL     1      39.797 -10.714   6.790  1.00  0.00     0.272 C 
HETATM   12  N   UNL     1      40.792 -10.186   7.576  1.00  0.00    -0.351 N 
HETATM   13  H   UNL     1      41.723 -10.572   7.442  1.00  0.00     0.163 HD
HETATM   14  O   UNL     1      38.614 -10.402   6.882  1.00  0.00    -0.266 OA
BRANCH  12  15
HETATM   15  C   UNL     1      40.544  -9.221   8.613  1.00  0.00     0.161 C 
BRANCH  15  16
HETATM   16  C   UNL     1      41.658  -9.182   9.628  1.00  0.00    -0.041 A 
HETATM   17  C   UNL     1      42.944  -8.743   9.275  1.00  0.00     0.009 A 
HETATM   18  C   UNL     1      43.960  -8.674  10.228  1.00  0.00     0.001 A 
HETATM   19  C   UNL     1      43.699  -9.024  11.551  1.00  0.00     0.000 A 
HETATM   20  C   UNL     1      42.422  -9.442  11.921  1.00  0.00     0.001 A 
HETATM   21  C   UNL     1      41.406  -9.518  10.966  1.00  0.00     0.009 A 
ENDBRANCH  15  16
ENDBRANCH  12  15
ENDBRANCH   6  11
BRANCH   8  22
HETATM   22  C   UNL     1      41.306 -12.429   1.720  1.00  0.00     0.409 C 
HETATM   23  F   UNL     1      39.981 -12.577   1.940  1.00  0.00    -0.169 F 
HETATM   24  F   UNL     1      41.479 -11.159   1.262  1.00  0.00    -0.169 F 
HETATM   25  F   UNL     1      41.649 -13.250   0.706  1.00  0.00    -0.169 F 
ENDBRANCH   8  22
BRANCH   1  26
HETATM   26  C   UNL     1      42.618 -16.435   3.578  1.00  0.00    -0.035 A 
HETATM   27  C   UNL     1      42.895 -17.389   2.589  1.00  0.00     0.012 A 
HETATM   28  C   UNL     1      43.600 -18.560   2.900  1.00  0.00     0.037 A 
HETATM   29  C   UNL     1      44.038 -18.792   4.204  1.00  0.00     0.068 A 
HETATM   30  C   UNL     1      43.756 -17.853   5.195  1.00  0.00     0.037 A 
HETATM   31  C   UNL     1      43.056 -16.685   4.888  1.00  0.00     0.012 A 
BRANCH  29  32
HETATM   32  O   UNL     1      44.734 -19.886   4.639  1.00  0.00    -0.356 OA
HETATM   33  C   UNL     1      43.984 -20.920   5.261  1.00  0.00     0.210 C 
ENDBRANCH  29  32
ENDBRANCH   1  26
TORSDOF 6
ENDMDL
MODEL 3
REMARK VINA RESULT:      -8.5      2.271      3.003
REMARK  6 active torsions:
REMARK  status: ('A' for Active; 'I' for Inactive)
REMARK    1  A    between atoms: O_2  and  C_3 
REMARK    2  A    between atoms: C_6  and  C_7 
REMARK    3  A    between atoms: C_12  and  C_13 
REMARK       I    between atoms: C_13  and  N_14 
REMARK    4  A    between atoms: N_14  and  C_15 
REMARK    5  A    between atoms: C_15  and  C_16 
REMARK    6  A    between atoms: C_24  and  C_25 
ROOT
HETATM    1  C   UNL     1      41.842 -15.601   2.825  1.00  0.00     0.118 C 
HETATM    2  N   UNL     1      41.255 -15.021   4.031  1.00  0.00    -0.366 N 
HETATM    3  C   UNL     1      41.251 -13.696   4.270  1.00  0.00     0.123 A 
HETATM    4  N   UNL     1      41.680 -12.802   3.331  1.00  0.00    -0.240 N 
HETATM    5  N   UNL     1      41.722 -11.529   3.759  1.00  0.00    -0.165 NA
HETATM    6  C   UNL     1      41.220 -11.607   5.015  1.00  0.00     0.148 A 
HETATM    7  C   UNL     1      40.899 -12.949   5.362  1.00  0.00     0.088 A 
HETATM    8  C   UNL     1      42.166 -13.197   2.023  1.00  0.00     0.221 C 
HETATM    9  C   UNL     1      42.784 -14.601   2.122  1.00  0.00     0.066 C 
HETATM   10  H   UNL     1      40.898 -15.688   4.715  1.00  0.00     0.161 HD
ENDROOT
BRANCH   6  11
HETATM   11  C   UNL     1      41.069 -10.425   5.874  1.00  0.00     0.272 C 
HETATM   12  N   UNL     1      41.822 -10.487   7.021  1.00  0.00    -0.351 N 
HETATM   13  H   UNL     1      42.337 -11.349   7.174  1.00  0.00     0.163 HD
HETATM   14  O   UNL     1      40.340  -9.481   5.584  1.00  0.00    -0.266 OA
BRANCH  12  15
HETATM   15  C   UNL     1      41.813  -9.454   8.022  1.00  0.00     0.161 C 
BRANCH  15  16
HETATM   16  C   UNL     1      43.033  -9.514   8.907  1.00  0.00    -0.041 A 
HETATM   17  C   UNL     1      44.285  -9.882   8.390  1.00  0.00     0.009 A 
HETATM   18  C   UNL     1      45.416  -9.899   9.207  1.00  0.00     0.001 A 
HETATM   19  C   UNL     1      45.313  -9.529  10.546  1.00  0.00     0.000 A 
HETATM   20  C   UNL     1      44.081  -9.142  11.068  1.00  0.00     0.001 A 
HETATM   21  C   UNL     1      42.947  -9.131  10.253  1.00  0.00     0.009 A 
ENDBRANCH  15  16
ENDBRANCH  12  15
ENDBRANCH   6  11
BRANCH   8  22
HETATM   22  C   UNL     1      41.049 -13.121   1.010  1.00  0.00     0.409 C 
HETATM   23  F   UNL     1      41.144 -12.032   0.215  1.00  0.00    -0.169 F 
HETATM   24  F   UNL     1      41.103 -14.202   0.187  1.00  0.00    -0.169 F 
HETATM   25  F   UNL     1      39.818 -13.122   1.562  1.00  0.00    -0.169 F 
ENDBRANCH   8  22
BRANCH   1  26
HETATM   26  C   UNL     1      42.588 -16.871   3.200  1.00  0.00    -0.035 A 
HETATM   27  C   UNL     1      43.156 -17.015   4.473  1.00  0.00     0.012 A 
HETATM   28  C   UNL     1      43.837 -18.189   4.825  1.00  0.00     0.037 A 
HETATM   29  C   UNL     1      43.956 -19.235   3.910  1.00  0.00     0.068 A 
HETATM   30  C   UNL     1      43.401 -19.094   2.639  1.00  0.00     0.037 A 
HETATM   31  C   UNL     1      42.722 -17.927   2.285  1.00  0.00     0.012 A 
BRANCH  29  32
HETATM   32  O   UNL     1      44.587 -20.428   4.126  1.00  0.00    -0.356 OA
HETATM   33  C   UNL     1      44.274 -21.113   5.331  1.00  0.00     0.210 C 
ENDBRANCH  29  32
ENDBRANCH   1  26
TORSDOF 6
ENDMDL
MODEL 4
REMARK VINA RESULT:      -8.2      3.167      4.192
REMARK  6 active torsions:
REMARK  status: ('A' for Active; 'I' for Inactive)
REMARK    1  A    between atoms: O_2  and  C_3 
REMARK    2  A    between atoms: C_6  and  C_7 
REMARK    3  A    between atoms: C_12  and  C_13 
REMARK       I    between atoms: C_13  and  N_14 
REMARK    4  A    between atoms: N_14  and  C_15 
REMARK    5  A    between atoms: C_15  and  C_16 
REMARK    6  A    between atoms: C_24  and  C_25 
ROOT
HETATM    1  C   UNL     1      42.287 -14.538   3.441  1.00  0.00     0.118 C 
HETATM    2  N   UNL     1      43.068 -13.320   3.643  1.00  0.00    -0.366 N 
HETATM    3  C   UNL     1      43.224 -12.750   4.854  1.00  0.00     0.123 A 
HETATM    4  N   UNL     1      42.766 -13.356   5.989  1.00  0.00    -0.240 N 
HETATM    5  N   UNL     1      42.895 -12.614   7.101  1.00  0.00    -0.165 NA
HETATM    6  C   UNL     1      43.538 -11.505   6.662  1.00  0.00     0.148 A 
HETATM    7  C   UNL     1      43.775 -11.565   5.260  1.00  0.00     0.088 A 
HETATM    8  C   UNL     1      42.089 -14.638   5.987  1.00  0.00     0.221 C 
HETATM    9  C   UNL     1      41.361 -14.817   4.644  1.00  0.00     0.066 C 
HETATM   10  H   UNL     1      43.444 -12.888   2.799  1.00  0.00     0.161 HD
ENDROOT
BRANCH   6  11
HETATM   11  C   UNL     1      43.901 -10.401   7.561  1.00  0.00     0.272 C 
HETATM   12  N   UNL     1      44.868 -10.740   8.475  1.00  0.00    -0.351 N 
HETATM   13  H   UNL     1      45.171 -11.711   8.469  1.00  0.00     0.163 HD
HETATM   14  O   UNL     1      43.386  -9.290   7.491  1.00  0.00    -0.266 OA
BRANCH  12  15
HETATM   15  C   UNL     1      45.363  -9.827   9.470  1.00  0.00     0.161 C 
BRANCH  15  16
HETATM   16  C   UNL     1      44.422  -9.705  10.643  1.00  0.00    -0.041 A 
HETATM   17  C   UNL     1      43.882  -8.462  11.011  1.00  0.00     0.009 A 
HETATM   18  C   UNL     1      42.983  -8.363  12.073  1.00  0.00     0.001 A 
HETATM   19  C   UNL     1      42.598  -9.508  12.768  1.00  0.00     0.000 A 
HETATM   20  C   UNL     1      43.110 -10.750  12.401  1.00  0.00     0.001 A 
HETATM   21  C   UNL     1      44.015 -10.850  11.342  1.00  0.00     0.009 A 
ENDBRANCH  15  16
ENDBRANCH  12  15
ENDBRANCH   6  11
BRANCH   8  22
HETATM   22  C   UNL     1      43.075 -15.747   6.269  1.00  0.00     0.409 C 
HETATM   23  F   UNL     1      44.357 -15.321   6.234  1.00  0.00    -0.169 F 
HETATM   24  F   UNL     1      42.867 -16.236   7.521  1.00  0.00    -0.169 F 
HETATM   25  F   UNL     1      42.966 -16.795   5.426  1.00  0.00    -0.169 F 
ENDBRANCH   8  22
BRANCH   1  26
HETATM   26  C   UNL     1      41.479 -14.400   2.162  1.00  0.00    -0.035 A 
HETATM   27  C   UNL     1      41.480 -13.197   1.443  1.00  0.00     0.012 A 
HETATM   28  C   UNL     1      40.743 -13.070   0.258  1.00  0.00     0.037 A 
HETATM   29  C   UNL     1      39.998 -14.145  -0.227  1.00  0.00     0.068 A 
HETATM   30  C   UNL     1      39.985 -15.341   0.489  1.00  0.00     0.037 A 
HETATM   31  C   UNL     1      40.718 -15.472   1.669  1.00  0.00     0.012 A 
BRANCH  29  32
HETATM   32  O   UNL     1      39.242 -14.155  -1.366  1.00  0.00    -0.356 OA
HETATM   33  C   UNL     1      39.940 -14.072  -2.602  1.00  0.00     0.210 C 
ENDBRANCH  29  32
ENDBRANCH   1  26
TORSDOF 6
ENDMDL
MODEL 5
REMARK VINA RESULT:      -8.2      3.134      9.595
REMARK  6 active torsions:
REMARK  status: ('A' for Active; 'I' for Inactive)
REMARK    1  A    between atoms: O_2  and  C_3 
REMARK    2  A    between atoms: C_6  and  C_7 
REMARK    3  A    between atoms: C_12  and  C_13 
REMARK       I    between atoms: C_13  and  N_14 
REMARK    4  A    between atoms: N_14  and  C_15 
REMARK    5  A    between atoms: C_15  and  C_16 
REMARK    6  A    between atoms: C_24  and  C_25 
ROOT
HETATM    1  C   UNL     1      44.174 -10.054   9.462  1.00  0.00     0.118 C 
HETATM    2  N   UNL     1      43.487 -11.181   8.836  1.00  0.00    -0.366 N 
HETATM    3  C   UNL     1      43.636 -11.487   7.532  1.00  0.00     0.123 A 
HETATM    4  N   UNL     1      44.545 -10.837   6.748  1.00  0.00    -0.240 N 
HETATM    5  N   UNL     1      44.495 -11.175   5.449  1.00  0.00    -0.165 NA
HETATM    6  C   UNL     1      43.554 -12.149   5.416  1.00  0.00     0.148 A 
HETATM    7  C   UNL     1      43.006 -12.382   6.710  1.00  0.00     0.088 A 
HETATM    8  C   UNL     1      45.410  -9.783   7.242  1.00  0.00     0.221 C 
HETATM    9  C   UNL     1      44.708  -9.064   8.406  1.00  0.00     0.066 C 
HETATM   10  H   UNL     1      42.837 -11.692   9.432  1.00  0.00     0.161 HD
ENDROOT
BRANCH   6  11
HETATM   11  C   UNL     1      43.171 -12.830   4.172  1.00  0.00     0.272 C 
HETATM   12  N   UNL     1      42.560 -14.042   4.383  1.00  0.00    -0.351 N 
HETATM   13  H   UNL     1      42.500 -14.353   5.348  1.00  0.00     0.163 HD
HETATM   14  O   UNL     1      43.381 -12.353   3.062  1.00  0.00    -0.266 OA
BRANCH  12  15
HETATM   15  C   UNL     1      42.122 -14.896   3.311  1.00  0.00     0.161 C 
BRANCH  15  16
HETATM   16  C   UNL     1      42.783 -16.251   3.362  1.00  0.00    -0.041 A 
HETATM   17  C   UNL     1      43.525 -16.653   4.483  1.00  0.00     0.009 A 
HETATM   18  C   UNL     1      44.102 -17.922   4.538  1.00  0.00     0.001 A 
HETATM   19  C   UNL     1      43.927 -18.813   3.482  1.00  0.00     0.000 A 
HETATM   20  C   UNL     1      43.176 -18.435   2.370  1.00  0.00     0.001 A 
HETATM   21  C   UNL     1      42.604 -17.162   2.311  1.00  0.00     0.009 A 
ENDBRANCH  15  16
ENDBRANCH  12  15
ENDBRANCH   6  11
BRANCH   8  22
HETATM   22  C   UNL     1      46.752 -10.355   7.634  1.00  0.00     0.409 C 
HETATM   23  F   UNL     1      47.287 -11.132   6.667  1.00  0.00    -0.169 F 
HETATM   24  F   UNL     1      47.635  -9.343   7.847  1.00  0.00    -0.169 F 
HETATM   25  F   UNL     1      46.719 -11.079   8.772  1.00  0.00    -0.169 F 
ENDBRANCH   8  22
BRANCH   1  26
HETATM   26  C   UNL     1      43.216  -9.359  10.414  1.00  0.00    -0.035 A 
HETATM   27  C   UNL     1      43.687  -8.755  11.588  1.00  0.00     0.012 A 
HETATM   28  C   UNL     1      42.807  -8.105  12.463  1.00  0.00     0.037 A 
HETATM   29  C   UNL     1      41.443  -8.047  12.176  1.00  0.00     0.068 A 
HETATM   30  C   UNL     1      40.965  -8.654  11.015  1.00  0.00     0.037 A 
HETATM   31  C   UNL     1      41.839  -9.302  10.141  1.00  0.00     0.012 A 
BRANCH  29  32
HETATM   32  O   UNL     1      40.482  -7.444  12.939  1.00  0.00    -0.356 OA
HETATM   33  C   UNL     1      39.135  -7.831  12.699  1.00  0.00     0.210 C 
ENDBRANCH  29  32
ENDBRANCH   1  26
TORSDOF 6
ENDMDL
MODEL 6
REMARK VINA RESULT:      -8.1      5.425      8.632
REMARK  6 active torsions:
REMARK  status: ('A' for Active; 'I' for Inactive)
REMARK    1  A    between atoms: O_2  and  C_3 
REMARK    2  A    between atoms: C_6  and  C_7 
REMARK    3  A    between atoms: C_12  and  C_13 
REMARK       I    between atoms: C_13  and  N_14 
REMARK    4  A    between atoms: N_14  and  C_15 
REMARK    5  A    between atoms: C_15  and  C_16 
REMARK    6  A    between atoms: C_24  and  C_25 
ROOT
HETATM    1  C   UNL     1      42.649 -14.760   2.627  1.00  0.00     0.118 C 
HETATM    2  N   UNL     1      42.266 -14.714   1.218  1.00  0.00    -0.366 N 
HETATM    3  C   UNL     1      41.217 -13.995   0.774  1.00  0.00     0.123 A 
HETATM    4  N   UNL     1      40.527 -13.158   1.604  1.00  0.00    -0.240 N 
HETATM    5  N   UNL     1      39.440 -12.599   1.045  1.00  0.00    -0.165 NA
HETATM    6  C   UNL     1      39.484 -13.045  -0.234  1.00  0.00     0.148 A 
HETATM    7  C   UNL     1      40.595 -13.910  -0.443  1.00  0.00     0.088 A 
HETATM    8  C   UNL     1      40.858 -12.977   3.004  1.00  0.00     0.221 C 
HETATM    9  C   UNL     1      41.504 -14.266   3.536  1.00  0.00     0.066 C 
HETATM   10  H   UNL     1      42.808 -15.308   0.591  1.00  0.00     0.161 HD
ENDROOT
BRANCH   6  11
HETATM   11  C   UNL     1      38.473 -12.669  -1.231  1.00  0.00     0.272 C 
HETATM   12  N   UNL     1      38.316 -11.311  -1.360  1.00  0.00    -0.351 N 
HETATM   13  H   UNL     1      38.858 -10.734  -0.723  1.00  0.00     0.163 HD
HETATM   14  O   UNL     1      37.839 -13.496  -1.879  1.00  0.00    -0.266 OA
BRANCH  12  15
HETATM   15  C   UNL     1      37.366 -10.713  -2.259  1.00  0.00     0.161 C 
BRANCH  15  16
HETATM   16  C   UNL     1      36.226 -10.056  -1.522  1.00  0.00    -0.041 A 
HETATM   17  C   UNL     1      35.046  -9.692  -2.189  1.00  0.00     0.009 A 
HETATM   18  C   UNL     1      33.981  -9.119  -1.493  1.00  0.00     0.001 A 
HETATM   19  C   UNL     1      34.076  -8.920  -0.117  1.00  0.00     0.000 A 
HETATM   20  C   UNL     1      35.234  -9.294   0.562  1.00  0.00     0.001 A 
HETATM   21  C   UNL     1      36.303  -9.861  -0.135  1.00  0.00     0.009 A 
ENDBRANCH  15  16
ENDBRANCH  12  15
ENDBRANCH   6  11
BRANCH   8  22
HETATM   22  C   UNL     1      41.746 -11.766   3.174  1.00  0.00     0.409 C 
HETATM   23  F   UNL     1      42.426 -11.460   2.047  1.00  0.00    -0.169 F 
HETATM   24  F   UNL     1      40.985 -10.679   3.470  1.00  0.00    -0.169 F 
HETATM   25  F   UNL     1      42.642 -11.890   4.175  1.00  0.00    -0.169 F 
ENDBRANCH   8  22
BRANCH   1  26
HETATM   26  C   UNL     1      43.044 -16.183   2.984  1.00  0.00    -0.035 A 
HETATM   27  C   UNL     1      43.553 -16.485   4.256  1.00  0.00     0.012 A 
HETATM   28  C   UNL     1      43.909 -17.798   4.592  1.00  0.00     0.037 A 
HETATM   29  C   UNL     1      43.759 -18.828   3.663  1.00  0.00     0.068 A 
HETATM   30  C   UNL     1      43.262 -18.533   2.393  1.00  0.00     0.037 A 
HETATM   31  C   UNL     1      42.906 -17.227   2.055  1.00  0.00     0.012 A 
BRANCH  29  32
HETATM   32  O   UNL     1      44.062 -20.146   3.862  1.00  0.00    -0.356 OA
HETATM   33  C   UNL     1      44.288 -20.558   5.204  1.00  0.00     0.210 C 
ENDBRANCH  29  32
ENDBRANCH   1  26
TORSDOF 6
ENDMDL
MODEL 7
REMARK VINA RESULT:      -8.1      4.168      5.795
REMARK  6 active torsions:
REMARK  status: ('A' for Active; 'I' for Inactive)
REMARK    1  A    between atoms: O_2  and  C_3 
REMARK    2  A    between atoms: C_6  and  C_7 
REMARK    3  A    between atoms: C_12  and  C_13 
REMARK       I    between atoms: C_13  and  N_14 
REMARK    4  A    between atoms: N_14  and  C_15 
REMARK    5  A    between atoms: C_15  and  C_16 
REMARK    6  A    between atoms: C_24  and  C_25 
ROOT
HETATM    1  C   UNL     1      41.013 -14.473   0.984  1.00  0.00     0.118 C 
HETATM    2  N   UNL     1      42.012 -13.447   1.275  1.00  0.00    -0.366 N 
HETATM    3  C   UNL     1      42.517 -13.256   2.509  1.00  0.00     0.123 A 
HETATM    4  N   UNL     1      42.220 -14.103   3.538  1.00  0.00    -0.240 N 
HETATM    5  N   UNL     1      42.707 -13.716   4.729  1.00  0.00    -0.165 NA
HETATM    6  C   UNL     1      43.417 -12.602   4.428  1.00  0.00     0.148 A 
HETATM    7  C   UNL     1      43.333 -12.294   3.041  1.00  0.00     0.088 A 
HETATM    8  C   UNL     1      41.353 -15.256   3.392  1.00  0.00     0.221 C 
HETATM    9  C   UNL     1      40.334 -14.978   2.275  1.00  0.00     0.066 C 
HETATM   10  H   UNL     1      42.264 -12.839   0.496  1.00  0.00     0.161 HD
ENDROOT
BRANCH   6  11
HETATM   11  C   UNL     1      44.145 -11.836   5.448  1.00  0.00     0.272 C 
HETATM   12  N   UNL     1      43.557 -11.887   6.689  1.00  0.00    -0.351 N 
HETATM   13  H   UNL     1      42.673 -12.385   6.747  1.00  0.00     0.163 HD
HETATM   14  O   UNL     1      45.175 -11.216   5.204  1.00  0.00    -0.266 OA
BRANCH  12  15
HETATM   15  C   UNL     1      44.081 -11.193   7.834  1.00  0.00     0.161 C 
BRANCH  15  16
HETATM   16  C   UNL     1      43.570  -9.776   7.919  1.00  0.00    -0.041 A 
HETATM   17  C   UNL     1      42.373  -9.400   7.289  1.00  0.00     0.009 A 
HETATM   18  C   UNL     1      41.887  -8.097   7.404  1.00  0.00     0.001 A 
HETATM   19  C   UNL     1      42.581  -7.160   8.166  1.00  0.00     0.000 A 
HETATM   20  C   UNL     1      43.760  -7.525   8.813  1.00  0.00     0.001 A 
HETATM   21  C   UNL     1      44.251  -8.826   8.694  1.00  0.00     0.009 A 
ENDBRANCH  15  16
ENDBRANCH  12  15
ENDBRANCH   6  11
BRANCH   8  22
HETATM   22  C   UNL     1      42.177 -16.495   3.136  1.00  0.00     0.409 C 
HETATM   23  F   UNL     1      41.593 -17.332   2.250  1.00  0.00    -0.169 F 
HETATM   24  F   UNL     1      43.376 -16.144   2.599  1.00  0.00    -0.169 F 
HETATM   25  F   UNL     1      42.450 -17.203   4.252  1.00  0.00    -0.169 F 
ENDBRANCH   8  22
BRANCH   1  26
HETATM   26  C   UNL     1      39.984 -13.901   0.024  1.00  0.00    -0.035 A 
HETATM   27  C   UNL     1      39.588 -14.622  -1.112  1.00  0.00     0.012 A 
HETATM   28  C   UNL     1      38.631 -14.102  -1.994  1.00  0.00     0.037 A 
HETATM   29  C   UNL     1      38.055 -12.855  -1.752  1.00  0.00     0.068 A 
HETATM   30  C   UNL     1      38.451 -12.128  -0.630  1.00  0.00     0.037 A 
HETATM   31  C   UNL     1      39.403 -12.643   0.251  1.00  0.00     0.012 A 
BRANCH  29  32
HETATM   32  O   UNL     1      37.113 -12.237  -2.527  1.00  0.00    -0.356 OA
HETATM   33  C   UNL     1      37.320 -10.860  -2.814  1.00  0.00     0.210 C 
ENDBRANCH  29  32
ENDBRANCH   1  26
TORSDOF 6
ENDMDL
MODEL 8
REMARK VINA RESULT:      -8.0      3.597      5.093
REMARK  6 active torsions:
REMARK  status: ('A' for Active; 'I' for Inactive)
REMARK    1  A    between atoms: O_2  and  C_3 
REMARK    2  A    between atoms: C_6  and  C_7 
REMARK    3  A    between atoms: C_12  and  C_13 
REMARK       I    between atoms: C_13  and  N_14 
REMARK    4  A    between atoms: N_14  and  C_15 
REMARK    5  A    between atoms: C_15  and  C_16 
REMARK    6  A    between atoms: C_24  and  C_25 
ROOT
HETATM    1  C   UNL     1      41.695 -14.416   2.187  1.00  0.00     0.118 C 
HETATM    2  N   UNL     1      42.643 -13.407   2.652  1.00  0.00    -0.366 N 
HETATM    3  C   UNL     1      43.006 -13.293   3.944  1.00  0.00     0.123 A 
HETATM    4  N   UNL     1      42.606 -14.205   4.878  1.00  0.00    -0.240 N 
HETATM    5  N   UNL     1      42.953 -13.894   6.138  1.00  0.00    -0.165 NA
HETATM    6  C   UNL     1      43.679 -12.759   5.989  1.00  0.00     0.148 A 
HETATM    7  C   UNL     1      43.746 -12.363   4.623  1.00  0.00     0.088 A 
HETATM    8  C   UNL     1      41.774 -15.350   4.564  1.00  0.00     0.221 C 
HETATM    9  C   UNL     1      40.883 -15.006   3.359  1.00  0.00     0.066 C 
HETATM   10  H   UNL     1      42.973 -12.749   1.946  1.00  0.00     0.161 HD
ENDROOT
BRANCH   6  11
HETATM   11  C   UNL     1      44.280 -12.056   7.131  1.00  0.00     0.272 C 
HETATM   12  N   UNL     1      45.201 -11.108   6.760  1.00  0.00    -0.351 N 
HETATM   13  H   UNL     1      45.405 -11.043   5.767  1.00  0.00     0.163 HD
HETATM   14  O   UNL     1      43.979 -12.301   8.295  1.00  0.00    -0.266 OA
BRANCH  12  15
HETATM   15  C   UNL     1      45.934 -10.313   7.710  1.00  0.00     0.161 C 
BRANCH  15  16
HETATM   16  C   UNL     1      45.020  -9.596   8.671  1.00  0.00    -0.041 A 
HETATM   17  C   UNL     1      45.103  -9.823  10.054  1.00  0.00     0.009 A 
HETATM   18  C   UNL     1      44.280  -9.128  10.941  1.00  0.00     0.001 A 
HETATM   19  C   UNL     1      43.377  -8.183  10.458  1.00  0.00     0.000 A 
HETATM   20  C   UNL     1      43.298  -7.933   9.089  1.00  0.00     0.001 A 
HETATM   21  C   UNL     1      44.116  -8.633   8.200  1.00  0.00     0.009 A 
ENDBRANCH  15  16
ENDBRANCH  12  15
ENDBRANCH   6  11
BRANCH   8  22
HETATM   22  C   UNL     1      42.636 -16.567   4.323  1.00  0.00     0.409 C 
HETATM   23  F   UNL     1      42.621 -17.427   5.365  1.00  0.00    -0.169 F 
HETATM   24  F   UNL     1      42.165 -17.257   3.250  1.00  0.00    -0.169 F 
HETATM   25  F   UNL     1      43.924 -16.272   4.052  1.00  0.00    -0.169 F 
ENDBRANCH   8  22
BRANCH   1  26
HETATM   26  C   UNL     1      40.772 -13.790   1.156  1.00  0.00    -0.035 A 
HETATM   27  C   UNL     1      40.433 -12.431   1.232  1.00  0.00     0.012 A 
HETATM   28  C   UNL     1      39.590 -11.848   0.277  1.00  0.00     0.037 A 
HETATM   29  C   UNL     1      39.076 -12.613  -0.770  1.00  0.00     0.068 A 
HETATM   30  C   UNL     1      39.401 -13.967  -0.847  1.00  0.00     0.037 A 
HETATM   31  C   UNL     1      40.241 -14.551   0.102  1.00  0.00     0.012 A 
BRANCH  29  32
HETATM   32  O   UNL     1      38.250 -12.170  -1.765  1.00  0.00    -0.356 OA
HETATM   33  C   UNL     1      37.565 -13.159  -2.521  1.00  0.00     0.210 C 
ENDBRANCH  29  32
ENDBRANCH   1  26
TORSDOF 6
ENDMDL
MODEL 9
REMARK VINA RESULT:      -7.9      2.907      3.404
REMARK  6 active torsions:
REMARK  status: ('A' for Active; 'I' for Inactive)
REMARK    1  A    between atoms: O_2  and  C_3 
REMARK    2  A    between atoms: C_6  and  C_7 
REMARK    3  A    between atoms: C_12  and  C_13 
REMARK       I    between atoms: C_13  and  N_14 
REMARK    4  A    between atoms: N_14  and  C_15 
REMARK    5  A    between atoms: C_15  and  C_16 
REMARK    6  A    between atoms: C_24  and  C_25 
ROOT
HETATM    1  C   UNL     1      40.713 -14.148   3.223  1.00  0.00     0.118 C 
HETATM    2  N   UNL     1      40.144 -13.912   4.548  1.00  0.00    -0.366 N 
HETATM    3  C   UNL     1      39.978 -12.675   5.056  1.00  0.00     0.123 A 
HETATM    4  N   UNL     1      40.212 -11.560   4.304  1.00  0.00    -0.240 N 
HETATM    5  N   UNL     1      40.112 -10.405   4.983  1.00  0.00    -0.165 NA
HETATM    6  C   UNL     1      39.720 -10.803   6.217  1.00  0.00     0.148 A 
HETATM    7  C   UNL     1      39.609 -12.220   6.293  1.00  0.00     0.088 A 
HETATM    8  C   UNL     1      40.650 -11.611   2.922  1.00  0.00     0.221 C 
HETATM    9  C   UNL     1      41.457 -12.901   2.701  1.00  0.00     0.066 C 
HETATM   10  H   UNL     1      39.932 -14.746   5.095  1.00  0.00     0.161 HD
ENDROOT
BRANCH   6  11
HETATM   11  C   UNL     1      39.473  -9.850   7.308  1.00  0.00     0.272 C 
HETATM   12  N   UNL     1      40.088 -10.202   8.485  1.00  0.00    -0.351 N 
HETATM   13  H   UNL     1      40.580 -11.091   8.487  1.00  0.00     0.163 HD
HETATM   14  O   UNL     1      38.785  -8.844   7.169  1.00  0.00    -0.266 OA
BRANCH  12  15
HETATM   15  C   UNL     1      39.967  -9.431   9.694  1.00  0.00     0.161 C 
BRANCH  15  16
HETATM   16  C   UNL     1      41.300  -9.222  10.367  1.00  0.00    -0.041 A 
HETATM   17  C   UNL     1      42.502  -9.420   9.670  1.00  0.00     0.009 A 
HETATM   18  C   UNL     1      43.731  -9.188  10.288  1.00  0.00     0.001 A 
HETATM   19  C   UNL     1      43.773  -8.737  11.605  1.00  0.00     0.000 A 
HETATM   20  C   UNL     1      42.588  -8.517  12.304  1.00  0.00     0.001 A 
HETATM   21  C   UNL     1      41.357  -8.755  11.688  1.00  0.00     0.009 A 
ENDBRANCH  15  16
ENDBRANCH  12  15
ENDBRANCH   6  11
BRANCH   8  22
HETATM   22  C   UNL     1      39.461 -11.501   1.997  1.00  0.00     0.409 C 
HETATM   23  F   UNL     1      38.326 -11.982   2.551  1.00  0.00    -0.169 F 
HETATM   24  F   UNL     1      39.223 -10.193   1.712  1.00  0.00    -0.169 F 
HETATM   25  F   UNL     1      39.638 -12.124   0.814  1.00  0.00    -0.169 F 
ENDBRANCH   8  22
BRANCH   1  26
HETATM   26  C   UNL     1      41.649 -15.342   3.294  1.00  0.00    -0.035 A 
HETATM   27  C   UNL     1      42.688 -15.381   4.235  1.00  0.00     0.012 A 
HETATM   28  C   UNL     1      43.548 -16.485   4.309  1.00  0.00     0.037 A 
HETATM   29  C   UNL     1      43.379 -17.567   3.445  1.00  0.00     0.068 A 
HETATM   30  C   UNL     1      42.354 -17.532   2.501  1.00  0.00     0.037 A 
HETATM   31  C   UNL     1      41.496 -16.434   2.424  1.00  0.00     0.012 A 
BRANCH  29  32
HETATM   32  O   UNL     1      44.141 -18.702   3.415  1.00  0.00    -0.356 OA
HETATM   33  C   UNL     1      44.280 -19.416   4.636  1.00  0.00     0.210 C 
ENDBRANCH  29  32
ENDBRANCH   1  26
TORSDOF 6
ENDMDL
MODEL 10
REMARK VINA RESULT:      -7.9      4.849      8.155
REMARK  6 active torsions:
REMARK  status: ('A' for Active; 'I' for Inactive)
REMARK    1  A    between atoms: O_2  and  C_3 
REMARK    2  A    between atoms: C_6  and  C_7 
REMARK    3  A    between atoms: C_12  and  C_13 
REMARK       I    between atoms: C_13  and  N_14 
REMARK    4  A    between atoms: N_14  and  C_15 
REMARK    5  A    between atoms: C_15  and  C_16 
REMARK    6  A    between atoms: C_24  and  C_25 
ROOT
HETATM    1  C   UNL     1      42.415 -15.118   4.464  1.00  0.00     0.118 C 
HETATM    2  N   UNL     1      42.668 -14.638   3.107  1.00  0.00    -0.366 N 
HETATM    3  C   UNL     1      41.753 -13.948   2.399  1.00  0.00     0.123 A 
HETATM    4  N   UNL     1      40.577 -13.541   2.963  1.00  0.00    -0.240 N 
HETATM    5  N   UNL     1      39.723 -12.965   2.101  1.00  0.00    -0.165 NA
HETATM    6  C   UNL     1      40.423 -12.936   0.941  1.00  0.00     0.148 A 
HETATM    7  C   UNL     1      41.707 -13.529   1.097  1.00  0.00     0.088 A 
HETATM    8  C   UNL     1      40.222 -13.812   4.342  1.00  0.00     0.221 C 
HETATM    9  C   UNL     1      40.906 -15.114   4.789  1.00  0.00     0.066 C 
HETATM   10  H   UNL     1      43.563 -14.909   2.701  1.00  0.00     0.161 HD
ENDROOT
BRANCH   6  11
HETATM   11  C   UNL     1      39.869 -12.370  -0.296  1.00  0.00     0.272 C 
HETATM   12  N   UNL     1      40.815 -11.767  -1.089  1.00  0.00    -0.351 N 
HETATM   13  H   UNL     1      41.757 -11.726  -0.711  1.00  0.00     0.163 HD
HETATM   14  O   UNL     1      38.678 -12.437  -0.582  1.00  0.00    -0.266 OA
BRANCH  12  15
HETATM   15  C   UNL     1      40.499 -11.124  -2.336  1.00  0.00     0.161 C 
BRANCH  15  16
HETATM   16  C   UNL     1      41.259  -9.834  -2.515  1.00  0.00    -0.041 A 
HETATM   17  C   UNL     1      41.112  -9.062  -3.679  1.00  0.00     0.009 A 
HETATM   18  C   UNL     1      41.789  -7.851  -3.821  1.00  0.00     0.001 A 
HETATM   19  C   UNL     1      42.606  -7.386  -2.793  1.00  0.00     0.000 A 
HETATM   20  C   UNL     1      42.746  -8.131  -1.624  1.00  0.00     0.001 A 
HETATM   21  C   UNL     1      42.074  -9.347  -1.483  1.00  0.00     0.009 A 
ENDBRANCH  15  16
ENDBRANCH  12  15
ENDBRANCH   6  11
BRANCH   8  22
HETATM   22  C   UNL     1      40.588 -12.632   5.212  1.00  0.00     0.409 C 
HETATM   23  F   UNL     1      39.540 -11.809   5.436  1.00  0.00    -0.169 F 
HETATM   24  F   UNL     1      40.996 -13.073   6.432  1.00  0.00    -0.169 F 
HETATM   25  F   UNL     1      41.598 -11.888   4.717  1.00  0.00    -0.169 F 
ENDBRANCH   8  22
BRANCH   1  26
HETATM   26  C   UNL     1      42.993 -16.515   4.610  1.00  0.00    -0.035 A 
HETATM   27  C   UNL     1      43.050 -17.137   5.865  1.00  0.00     0.012 A 
HETATM   28  C   UNL     1      43.574 -18.430   6.001  1.00  0.00     0.037 A 
HETATM   29  C   UNL     1      44.045 -19.120   4.883  1.00  0.00     0.068 A 
HETATM   30  C   UNL     1      44.000 -18.503   3.633  1.00  0.00     0.037 A 
HETATM   31  C   UNL     1      43.479 -17.216   3.494  1.00  0.00     0.012 A 
BRANCH  29  32
HETATM   32  O   UNL     1      44.574 -20.381   4.877  1.00  0.00    -0.356 OA
HETATM   33  C   UNL     1      43.959 -21.331   4.017  1.00  0.00     0.210 C 
ENDBRANCH  29  32
ENDBRANCH   1  26
TORSDOF 6
ENDMDL
