MODEL 1
REMARK VINA RESULT:      -8.9      0.000      0.000
REMARK  3 active torsions:
REMARK  status: ('A' for Active; 'I' for Inactive)
REMARK    1  A    between atoms: C_3  and  N_4 
REMARK       I    between atoms: N_4  and  C_5 
REMARK    2  A    between atoms: C_5  and  C_6 
REMARK    3  A    between atoms: C_7  and  C_8 
ROOT
HETATM    1  C   UNL     1      42.903 -14.835   5.691  1.00  0.00     0.062 C 
HETATM    2  C   UNL     1      42.979 -13.688   4.675  1.00  0.00     0.199 C 
HETATM    3  N   UNL     1      43.693 -12.551   5.249  1.00  0.00    -0.092 N 
HETATM    4  C   UNL     1      43.958 -12.396   6.579  1.00  0.00     0.735 A 
HETATM    5  N   UNL     1      43.587 -13.369   7.436  1.00  0.00    -0.191 N 
HETATM    6  N   UNL     1      44.214 -11.534   4.547  1.00  0.00     0.012 NA
HETATM    7  N   UNL     1      44.744 -10.734   5.469  1.00  0.00     0.033 NA
HETATM    8  N   UNL     1      44.591 -11.260   6.739  1.00  0.00     0.030 NA
HETATM    9  C   UNL     1      43.135 -14.616   7.012  1.00  0.00     0.037 C 
HETATM   10  C   UNL     1      42.916 -15.631   8.107  1.00  0.00     0.070 C 
HETATM   11  H   UNL     1      43.821 -13.262   8.422  1.00  0.00     0.184 HD
ENDROOT
BRANCH   1  12
HETATM   12  C   UNL     1      42.571 -16.163   5.091  1.00  0.00     0.256 C 
HETATM   13  N   UNL     1      43.678 -16.897   4.728  1.00  0.00    -0.323 N 
HETATM   14  H   UNL     1      44.546 -16.381   4.664  1.00  0.00     0.169 HD
HETATM   15  O   UNL     1      41.408 -16.426   4.824  1.00  0.00    -0.267 OA
BRANCH  13  16
HETATM   16  C   UNL     1      43.740 -18.228   4.251  1.00  0.00     0.041 A 
HETATM   17  C   UNL     1      43.495 -18.661   2.934  1.00  0.00    -0.035 A 
HETATM   18  C   UNL     1      43.052 -17.777   1.800  1.00  0.00     0.050 C 
HETATM   19  C   UNL     1      43.627 -20.034   2.636  1.00  0.00     0.009 A 
HETATM   20  C   UNL     1      43.935 -20.969   3.621  1.00  0.00     0.001 A 
HETATM   21  C   UNL     1      44.118 -20.549   4.929  1.00  0.00     0.002 A 
HETATM   22  C   UNL     1      44.017 -19.192   5.239  1.00  0.00     0.030 A 
ENDBRANCH  13  16
ENDBRANCH   1  12
BRANCH   2  23
HETATM   23  C   UNL     1      41.619 -13.223   4.183  1.00  0.00    -0.011 A 
HETATM   24  C   UNL     1      41.275 -13.241   2.830  1.00  0.00     0.125 A 
HETATM   25  N   UNL     1      40.082 -12.832   2.339  1.00  0.00    -0.272 NA
HETATM   26  C   UNL     1      39.180 -12.383   3.236  1.00  0.00     0.116 A 
HETATM   27  C   UNL     1      39.412 -12.328   4.599  1.00  0.00     0.020 A 
HETATM   28  C   UNL     1      40.649 -12.754   5.076  1.00  0.00     0.012 A 
ENDBRANCH   2  23
TORSDOF 3
ENDMDL
MODEL 2
REMARK VINA RESULT:      -8.7      1.840      4.462
REMARK  3 active torsions:
REMARK  status: ('A' for Active; 'I' for Inactive)
REMARK    1  A    between atoms: C_3  and  N_4 
REMARK       I    between atoms: N_4  and  C_5 
REMARK    2  A    between atoms: C_5  and  C_6 
REMARK    3  A    between atoms: C_7  and  C_8 
ROOT
HETATM    1  C   UNL     1      40.368 -14.278   2.939  1.00  0.00     0.062 C 
HETATM    2  C   UNL     1      40.393 -13.116   3.940  1.00  0.00     0.199 C 
HETATM    3  N   UNL     1      39.546 -12.024   3.470  1.00  0.00    -0.092 N 
HETATM    4  C   UNL     1      39.072 -11.907   2.195  1.00  0.00     0.735 A 
HETATM    5  N   UNL     1      39.354 -12.878   1.302  1.00  0.00    -0.191 N 
HETATM    6  N   UNL     1      39.090 -11.018   4.232  1.00  0.00     0.012 NA
HETATM    7  N   UNL     1      38.387 -10.262   3.393  1.00  0.00     0.033 NA
HETATM    8  N   UNL     1      38.368 -10.805   2.121  1.00  0.00     0.030 NA
HETATM    9  C   UNL     1      39.925 -14.095   1.667  1.00  0.00     0.037 C 
HETATM   10  C   UNL     1      40.023 -15.120   0.563  1.00  0.00     0.070 C 
HETATM   11  H   UNL     1      38.967 -12.802   0.363  1.00  0.00     0.184 HD
ENDROOT
BRANCH   1  12
HETATM   12  C   UNL     1      40.851 -15.577   3.497  1.00  0.00     0.256 C 
HETATM   13  N   UNL     1      42.045 -15.999   2.957  1.00  0.00    -0.323 N 
HETATM   14  H   UNL     1      42.323 -15.546   2.096  1.00  0.00     0.169 HD
HETATM   15  O   UNL     1      40.119 -16.224   4.231  1.00  0.00    -0.267 OA
BRANCH  13  16
HETATM   16  C   UNL     1      42.845 -17.104   3.333  1.00  0.00     0.041 A 
HETATM   17  C   UNL     1      43.603 -17.230   4.512  1.00  0.00    -0.035 A 
HETATM   18  C   UNL     1      43.749 -16.167   5.565  1.00  0.00     0.050 C 
HETATM   19  C   UNL     1      44.326 -18.423   4.729  1.00  0.00     0.009 A 
HETATM   20  C   UNL     1      44.353 -19.444   3.783  1.00  0.00     0.001 A 
HETATM   21  C   UNL     1      43.654 -19.294   2.595  1.00  0.00     0.002 A 
HETATM   22  C   UNL     1      42.912 -18.134   2.373  1.00  0.00     0.030 A 
ENDBRANCH  13  16
ENDBRANCH   1  12
BRANCH   2  23
HETATM   23  C   UNL     1      41.789 -12.579   4.212  1.00  0.00    -0.011 A 
HETATM   24  C   UNL     1      42.517 -11.884   3.245  1.00  0.00     0.125 A 
HETATM   25  N   UNL     1      43.763 -11.393   3.433  1.00  0.00    -0.272 NA
HETATM   26  C   UNL     1      44.319 -11.599   4.645  1.00  0.00     0.116 A 
HETATM   27  C   UNL     1      43.686 -12.268   5.677  1.00  0.00     0.020 A 
HETATM   28  C   UNL     1      42.404 -12.764   5.456  1.00  0.00     0.012 A 
ENDBRANCH   2  23
TORSDOF 3
ENDMDL
MODEL 3
REMARK VINA RESULT:      -8.1      1.673      2.316
REMARK  3 active torsions:
REMARK  status: ('A' for Active; 'I' for Inactive)
REMARK    1  A    between atoms: C_3  and  N_4 
REMARK       I    between atoms: N_4  and  C_5 
REMARK    2  A    between atoms: C_5  and  C_6 
REMARK    3  A    between atoms: C_7  and  C_8 
ROOT
HETATM    1  C   UNL     1      41.478 -14.561   4.534  1.00  0.00     0.062 C 
HETATM    2  C   UNL     1      42.054 -13.499   3.588  1.00  0.00     0.199 C 
HETATM    3  N   UNL     1      42.354 -12.275   4.324  1.00  0.00    -0.092 N 
HETATM    4  C   UNL     1      41.890 -11.993   5.577  1.00  0.00     0.735 A 
HETATM    5  N   UNL     1      41.141 -12.914   6.219  1.00  0.00    -0.191 N 
HETATM    6  N   UNL     1      43.150 -11.288   3.888  1.00  0.00     0.012 NA
HETATM    7  N   UNL     1      43.116 -10.382   4.862  1.00  0.00     0.033 NA
HETATM    8  N   UNL     1      42.335 -10.809   5.920  1.00  0.00     0.030 NA
HETATM    9  C   UNL     1      40.991 -14.219   5.756  1.00  0.00     0.037 C 
HETATM   10  C   UNL     1      40.249 -15.151   6.682  1.00  0.00     0.070 C 
HETATM   11  H   UNL     1      40.830 -12.711   7.167  1.00  0.00     0.184 HD
ENDROOT
BRANCH   1  12
HETATM   12  C   UNL     1      41.522 -15.953   3.991  1.00  0.00     0.256 C 
HETATM   13  N   UNL     1      42.766 -16.536   4.067  1.00  0.00    -0.323 N 
HETATM   14  H   UNL     1      43.539 -15.904   4.229  1.00  0.00     0.169 HD
HETATM   15  O   UNL     1      40.548 -16.396   3.400  1.00  0.00    -0.267 OA
BRANCH  13  16
HETATM   16  C   UNL     1      43.140 -17.867   3.765  1.00  0.00     0.041 A 
HETATM   17  C   UNL     1      43.560 -18.850   4.680  1.00  0.00    -0.035 A 
HETATM   18  C   UNL     1      43.751 -18.633   6.156  1.00  0.00     0.050 C 
HETATM   19  C   UNL     1      43.873 -20.138   4.196  1.00  0.00     0.009 A 
HETATM   20  C   UNL     1      43.832 -20.438   2.837  1.00  0.00     0.001 A 
HETATM   21  C   UNL     1      43.476 -19.453   1.930  1.00  0.00     0.002 A 
HETATM   22  C   UNL     1      43.137 -18.180   2.391  1.00  0.00     0.030 A 
ENDBRANCH  13  16
ENDBRANCH   1  12
BRANCH   2  23
HETATM   23  C   UNL     1      41.139 -13.166   2.421  1.00  0.00    -0.011 A 
HETATM   24  C   UNL     1      41.474 -13.481   1.104  1.00  0.00     0.125 A 
HETATM   25  N   UNL     1      40.700 -13.201   0.031  1.00  0.00    -0.272 NA
HETATM   26  C   UNL     1      39.529 -12.576   0.275  1.00  0.00     0.116 A 
HETATM   27  C   UNL     1      39.095 -12.224   1.540  1.00  0.00     0.020 A 
HETATM   28  C   UNL     1      39.912 -12.524   2.627  1.00  0.00     0.012 A 
ENDBRANCH   2  23
TORSDOF 3
ENDMDL
MODEL 4
REMARK VINA RESULT:      -8.0      3.287      6.569
REMARK  3 active torsions:
REMARK  status: ('A' for Active; 'I' for Inactive)
REMARK    1  A    between atoms: C_3  and  N_4 
REMARK       I    between atoms: N_4  and  C_5 
REMARK    2  A    between atoms: C_5  and  C_6 
REMARK    3  A    between atoms: C_7  and  C_8 
ROOT
HETATM    1  C   UNL     1      41.629 -14.443   2.934  1.00  0.00     0.062 C 
HETATM    2  C   UNL     1      41.199 -15.789   3.529  1.00  0.00     0.199 C 
HETATM    3  N   UNL     1      40.810 -15.624   4.926  1.00  0.00    -0.092 N 
HETATM    4  C   UNL     1      41.097 -14.524   5.684  1.00  0.00     0.735 A 
HETATM    5  N   UNL     1      41.742 -13.487   5.111  1.00  0.00    -0.191 N 
HETATM    6  N   UNL     1      40.090 -16.505   5.636  1.00  0.00     0.012 NA
HETATM    7  N   UNL     1      39.995 -15.956   6.844  1.00  0.00     0.033 NA
HETATM    8  N   UNL     1      40.618 -14.722   6.887  1.00  0.00     0.030 NA
HETATM    9  C   UNL     1      41.945 -13.392   3.736  1.00  0.00     0.037 C 
HETATM   10  C   UNL     1      42.543 -12.091   3.260  1.00  0.00     0.070 C 
HETATM   11  H   UNL     1      41.920 -12.656   5.672  1.00  0.00     0.184 HD
ENDROOT
BRANCH   1  12
HETATM   12  C   UNL     1      41.651 -14.413   1.440  1.00  0.00     0.256 C 
HETATM   13  N   UNL     1      40.437 -14.090   0.877  1.00  0.00    -0.323 N 
HETATM   14  H   UNL     1      39.635 -14.162   1.489  1.00  0.00     0.169 HD
HETATM   15  O   UNL     1      42.641 -14.815   0.847  1.00  0.00    -0.267 OA
BRANCH  13  16
HETATM   16  C   UNL     1      40.127 -13.853  -0.484  1.00  0.00     0.041 A 
HETATM   17  C   UNL     1      40.421 -12.691  -1.221  1.00  0.00    -0.035 A 
HETATM   18  C   UNL     1      41.068 -11.453  -0.666  1.00  0.00     0.050 C 
HETATM   19  C   UNL     1      40.053 -12.641  -2.583  1.00  0.00     0.009 A 
HETATM   20  C   UNL     1      39.359 -13.685  -3.191  1.00  0.00     0.001 A 
HETATM   21  C   UNL     1      39.018 -14.803  -2.448  1.00  0.00     0.002 A 
HETATM   22  C   UNL     1      39.395 -14.883  -1.107  1.00  0.00     0.030 A 
ENDBRANCH  13  16
ENDBRANCH   1  12
BRANCH   2  23
HETATM   23  C   UNL     1      42.270 -16.864   3.436  1.00  0.00    -0.011 A 
HETATM   24  C   UNL     1      43.302 -16.964   4.370  1.00  0.00     0.125 A 
HETATM   25  N   UNL     1      44.282 -17.896   4.329  1.00  0.00    -0.272 NA
HETATM   26  C   UNL     1      44.237 -18.778   3.310  1.00  0.00     0.116 A 
HETATM   27  C   UNL     1      43.256 -18.775   2.333  1.00  0.00     0.020 A 
HETATM   28  C   UNL     1      42.260 -17.804   2.400  1.00  0.00     0.012 A 
ENDBRANCH   2  23
TORSDOF 3
ENDMDL
MODEL 5
REMARK VINA RESULT:      -7.9      3.535      5.717
REMARK  3 active torsions:
REMARK  status: ('A' for Active; 'I' for Inactive)
REMARK    1  A    between atoms: C_3  and  N_4 
REMARK       I    between atoms: N_4  and  C_5 
REMARK    2  A    between atoms: C_5  and  C_6 
REMARK    3  A    between atoms: C_7  and  C_8 
ROOT
HETATM    1  C   UNL     1      40.569 -12.579   1.357  1.00  0.00     0.062 C 
HETATM    2  C   UNL     1      40.902 -12.368  -0.126  1.00  0.00     0.199 C 
HETATM    3  N   UNL     1      41.078 -10.947  -0.408  1.00  0.00    -0.092 N 
HETATM    4  C   UNL     1      40.683  -9.939   0.424  1.00  0.00     0.735 A 
HETATM    5  N   UNL     1      40.134 -10.253   1.616  1.00  0.00    -0.191 N 
HETATM    6  N   UNL     1      41.680 -10.445  -1.496  1.00  0.00     0.012 NA
HETATM    7  N   UNL     1      41.594  -9.127  -1.342  1.00  0.00     0.033 NA
HETATM    8  N   UNL     1      40.976  -8.798  -0.150  1.00  0.00     0.030 NA
HETATM    9  C   UNL     1      40.140 -11.547   2.131  1.00  0.00     0.037 C 
HETATM   10  C   UNL     1      39.623 -11.683   3.542  1.00  0.00     0.070 C 
HETATM   11  H   UNL     1      39.876  -9.496   2.246  1.00  0.00     0.184 HD
ENDROOT
BRANCH   1  12
HETATM   12  C   UNL     1      40.772 -13.979   1.837  1.00  0.00     0.256 C 
HETATM   13  N   UNL     1      42.080 -14.271   2.153  1.00  0.00    -0.323 N 
HETATM   14  H   UNL     1      42.772 -13.626   1.796  1.00  0.00     0.169 HD
HETATM   15  O   UNL     1      39.849 -14.777   1.764  1.00  0.00    -0.267 OA
BRANCH  13  16
HETATM   16  C   UNL     1      42.607 -15.442   2.745  1.00  0.00     0.041 A 
HETATM   17  C   UNL     1      42.985 -15.606   4.092  1.00  0.00    -0.035 A 
HETATM   18  C   UNL     1      42.953 -14.526   5.137  1.00  0.00     0.050 C 
HETATM   19  C   UNL     1      43.473 -16.862   4.511  1.00  0.00     0.009 A 
HETATM   20  C   UNL     1      43.644 -17.915   3.616  1.00  0.00     0.001 A 
HETATM   21  C   UNL     1      43.329 -17.735   2.279  1.00  0.00     0.002 A 
HETATM   22  C   UNL     1      42.819 -16.509   1.850  1.00  0.00     0.030 A 
ENDBRANCH  13  16
ENDBRANCH   1  12
BRANCH   2  23
HETATM   23  C   UNL     1      39.854 -12.936  -1.069  1.00  0.00    -0.011 A 
HETATM   24  C   UNL     1      38.548 -12.447  -1.106  1.00  0.00     0.125 A 
HETATM   25  N   UNL     1      37.577 -12.920  -1.921  1.00  0.00    -0.272 NA
HETATM   26  C   UNL     1      37.918 -13.932  -2.745  1.00  0.00     0.116 A 
HETATM   27  C   UNL     1      39.184 -14.488  -2.796  1.00  0.00     0.020 A 
HETATM   28  C   UNL     1      40.163 -13.982  -1.946  1.00  0.00     0.012 A 
ENDBRANCH   2  23
TORSDOF 3
ENDMDL
MODEL 6
REMARK VINA RESULT:      -7.5      2.649      4.704
REMARK  3 active torsions:
REMARK  status: ('A' for Active; 'I' for Inactive)
REMARK    1  A    between atoms: C_3  and  N_4 
REMARK       I    between atoms: N_4  and  C_5 
REMARK    2  A    between atoms: C_5  and  C_6 
REMARK    3  A    between atoms: C_7  and  C_8 
ROOT
HETATM    1  C   UNL     1      41.365 -12.145   4.110  1.00  0.00     0.062 C 
HETATM    2  C   UNL     1      41.130 -12.132   5.626  1.00  0.00     0.199 C 
HETATM    3  N   UNL     1      39.955 -11.328   5.949  1.00  0.00    -0.092 N 
HETATM    4  C   UNL     1      39.356 -10.454   5.088  1.00  0.00     0.735 A 
HETATM    5  N   UNL     1      39.835 -10.344   3.832  1.00  0.00    -0.191 N 
HETATM    6  N   UNL     1      39.289 -11.368   7.113  1.00  0.00     0.012 NA
HETATM    7  N   UNL     1      38.319 -10.469   6.968  1.00  0.00     0.033 NA
HETATM    8  N   UNL     1      38.349  -9.893   5.711  1.00  0.00     0.030 NA
HETATM    9  C   UNL     1      40.775 -11.225   3.303  1.00  0.00     0.037 C 
HETATM   10  C   UNL     1      41.076 -11.044   1.835  1.00  0.00     0.070 C 
HETATM   11  H   UNL     1      39.359  -9.717   3.184  1.00  0.00     0.184 HD
ENDROOT
BRANCH   1  12
HETATM   12  C   UNL     1      42.265 -13.242   3.640  1.00  0.00     0.256 C 
HETATM   13  N   UNL     1      41.860 -14.496   4.037  1.00  0.00    -0.323 N 
HETATM   14  H   UNL     1      41.181 -14.523   4.787  1.00  0.00     0.169 HD
HETATM   15  O   UNL     1      43.327 -12.958   3.107  1.00  0.00    -0.267 OA
BRANCH  13  16
HETATM   16  C   UNL     1      42.395 -15.755   3.675  1.00  0.00     0.041 A 
HETATM   17  C   UNL     1      42.002 -16.553   2.585  1.00  0.00    -0.035 A 
HETATM   18  C   UNL     1      40.880 -16.231   1.636  1.00  0.00     0.050 C 
HETATM   19  C   UNL     1      42.669 -17.777   2.365  1.00  0.00     0.009 A 
HETATM   20  C   UNL     1      43.659 -18.236   3.230  1.00  0.00     0.001 A 
HETATM   21  C   UNL     1      44.004 -17.478   4.337  1.00  0.00     0.002 A 
HETATM   22  C   UNL     1      43.375 -16.252   4.558  1.00  0.00     0.030 A 
ENDBRANCH  13  16
ENDBRANCH   1  12
BRANCH   2  23
HETATM   23  C   UNL     1      42.319 -11.615   6.419  1.00  0.00    -0.011 A 
HETATM   24  C   UNL     1      43.339 -12.459   6.861  1.00  0.00     0.125 A 
HETATM   25  N   UNL     1      44.413 -12.051   7.574  1.00  0.00    -0.272 NA
HETATM   26  C   UNL     1      44.483 -10.736   7.866  1.00  0.00     0.116 A 
HETATM   27  C   UNL     1      43.533  -9.810   7.473  1.00  0.00     0.020 A 
HETATM   28  C   UNL     1      42.437 -10.257   6.740  1.00  0.00     0.012 A 
ENDBRANCH   2  23
TORSDOF 3
ENDMDL
MODEL 7
REMARK VINA RESULT:      -7.3     15.590     17.043
REMARK  3 active torsions:
REMARK  status: ('A' for Active; 'I' for Inactive)
REMARK    1  A    between atoms: C_3  and  N_4 
REMARK       I    between atoms: N_4  and  C_5 
REMARK    2  A    between atoms: C_5  and  C_6 
REMARK    3  A    between atoms: C_7  and  C_8 
ROOT
HETATM    1  C   UNL     1      46.049 -29.317   0.171  1.00  0.00     0.062 C 
HETATM    2  C   UNL     1      46.694 -28.916  -1.162  1.00  0.00     0.199 C 
HETATM    3  N   UNL     1      45.672 -28.765  -2.193  1.00  0.00    -0.092 N 
HETATM    4  C   UNL     1      44.392 -29.228  -2.087  1.00  0.00     0.735 A 
HETATM    5  N   UNL     1      44.008 -29.828  -0.941  1.00  0.00    -0.191 N 
HETATM    6  N   UNL     1      45.841 -28.122  -3.358  1.00  0.00     0.012 NA
HETATM    7  N   UNL     1      44.671 -28.251  -3.979  1.00  0.00     0.033 NA
HETATM    8  N   UNL     1      43.759 -28.938  -3.197  1.00  0.00     0.030 NA
HETATM    9  C   UNL     1      44.785 -29.813   0.215  1.00  0.00     0.037 C 
HETATM   10  C   UNL     1      44.128 -30.396   1.442  1.00  0.00     0.070 C 
HETATM   11  H   UNL     1      43.041 -30.137  -0.856  1.00  0.00     0.184 HD
ENDROOT
BRANCH   1  12
HETATM   12  C   UNL     1      46.924 -29.101   1.363  1.00  0.00     0.256 C 
HETATM   13  N   UNL     1      47.658 -30.210   1.718  1.00  0.00    -0.323 N 
HETATM   14  H   UNL     1      47.349 -31.087   1.320  1.00  0.00     0.169 HD
HETATM   15  O   UNL     1      46.814 -28.068   2.007  1.00  0.00    -0.267 OA
BRANCH  13  16
HETATM   16  C   UNL     1      48.666 -30.326   2.704  1.00  0.00     0.041 A 
HETATM   17  C   UNL     1      48.472 -30.555   4.080  1.00  0.00    -0.035 A 
HETATM   18  C   UNL     1      47.136 -30.653   4.762  1.00  0.00     0.050 C 
HETATM   19  C   UNL     1      49.605 -30.665   4.915  1.00  0.00     0.009 A 
HETATM   20  C   UNL     1      50.896 -30.495   4.421  1.00  0.00     0.001 A 
HETATM   21  C   UNL     1      51.082 -30.210   3.078  1.00  0.00     0.002 A 
HETATM   22  C   UNL     1      49.977 -30.123   2.231  1.00  0.00     0.030 A 
ENDBRANCH  13  16
ENDBRANCH   1  12
BRANCH   2  23
HETATM   23  C   UNL     1      47.747 -29.899  -1.647  1.00  0.00    -0.011 A 
HETATM   24  C   UNL     1      47.409 -31.149  -2.169  1.00  0.00     0.125 A 
HETATM   25  N   UNL     1      48.306 -32.061  -2.607  1.00  0.00    -0.272 NA
HETATM   26  C   UNL     1      49.609 -31.718  -2.526  1.00  0.00     0.116 A 
HETATM   27  C   UNL     1      50.054 -30.505  -2.033  1.00  0.00     0.020 A 
HETATM   28  C   UNL     1      49.109 -29.585  -1.588  1.00  0.00     0.012 A 
ENDBRANCH   2  23
TORSDOF 3
ENDMDL
MODEL 8
REMARK VINA RESULT:      -7.2      2.756      5.708
REMARK  3 active torsions:
REMARK  status: ('A' for Active; 'I' for Inactive)
REMARK    1  A    between atoms: C_3  and  N_4 
REMARK       I    between atoms: N_4  and  C_5 
REMARK    2  A    between atoms: C_5  and  C_6 
REMARK    3  A    between atoms: C_7  and  C_8 
ROOT
HETATM    1  C   UNL     1      42.353 -14.708   3.835  1.00  0.00     0.062 C 
HETATM    2  C   UNL     1      42.522 -13.852   5.097  1.00  0.00     0.199 C 
HETATM    3  N   UNL     1      42.758 -14.703   6.258  1.00  0.00    -0.092 N 
HETATM    4  C   UNL     1      42.534 -16.050   6.288  1.00  0.00     0.735 A 
HETATM    5  N   UNL     1      42.109 -16.666   5.166  1.00  0.00    -0.191 N 
HETATM    6  N   UNL     1      43.261 -14.288   7.430  1.00  0.00     0.012 NA
HETATM    7  N   UNL     1      43.283 -15.382   8.187  1.00  0.00     0.033 NA
HETATM    8  N   UNL     1      42.832 -16.487   7.487  1.00  0.00     0.030 NA
HETATM    9  C   UNL     1      42.088 -16.038   3.923  1.00  0.00     0.037 C 
HETATM   10  C   UNL     1      41.733 -16.927   2.756  1.00  0.00     0.070 C 
HETATM   11  H   UNL     1      41.979 -17.676   5.186  1.00  0.00     0.184 HD
ENDROOT
BRANCH   1  12
HETATM   12  C   UNL     1      42.516 -13.952   2.556  1.00  0.00     0.256 C 
HETATM   13  N   UNL     1      41.324 -13.640   1.944  1.00  0.00    -0.323 N 
HETATM   14  H   UNL     1      40.515 -14.154   2.267  1.00  0.00     0.169 HD
HETATM   15  O   UNL     1      43.633 -13.813   2.081  1.00  0.00    -0.267 OA
BRANCH  13  16
HETATM   16  C   UNL     1      41.100 -12.836   0.800  1.00  0.00     0.041 A 
HETATM   17  C   UNL     1      41.312 -11.449   0.694  1.00  0.00    -0.035 A 
HETATM   18  C   UNL     1      41.761 -10.553   1.816  1.00  0.00     0.050 C 
HETATM   19  C   UNL     1      41.053 -10.816  -0.541  1.00  0.00     0.009 A 
HETATM   20  C   UNL     1      40.540 -11.518  -1.628  1.00  0.00     0.001 A 
HETATM   21  C   UNL     1      40.275 -12.872  -1.504  1.00  0.00     0.002 A 
HETATM   22  C   UNL     1      40.549 -13.522  -0.300  1.00  0.00     0.030 A 
ENDBRANCH  13  16
ENDBRANCH   1  12
BRANCH   2  23
HETATM   23  C   UNL     1      41.334 -12.946   5.379  1.00  0.00    -0.011 A 
HETATM   24  C   UNL     1      40.105 -13.448   5.809  1.00  0.00     0.125 A 
HETATM   25  N   UNL     1      39.017 -12.687   6.067  1.00  0.00    -0.272 NA
HETATM   26  C   UNL     1      39.153 -11.356   5.892  1.00  0.00     0.116 A 
HETATM   27  C   UNL     1      40.326 -10.752   5.475  1.00  0.00     0.020 A 
HETATM   28  C   UNL     1      41.430 -11.559   5.216  1.00  0.00     0.012 A 
ENDBRANCH   2  23
TORSDOF 3
ENDMDL
MODEL 9
REMARK VINA RESULT:      -7.2      2.119      5.036
REMARK  3 active torsions:
REMARK  status: ('A' for Active; 'I' for Inactive)
REMARK    1  A    between atoms: C_3  and  N_4 
REMARK       I    between atoms: N_4  and  C_5 
REMARK    2  A    between atoms: C_5  and  C_6 
REMARK    3  A    between atoms: C_7  and  C_8 
ROOT
HETATM    1  C   UNL     1      41.130 -14.541   2.473  1.00  0.00     0.062 C 
HETATM    2  C   UNL     1      40.165 -13.357   2.614  1.00  0.00     0.199 C 
HETATM    3  N   UNL     1      39.748 -12.884   1.297  1.00  0.00    -0.092 N 
HETATM    4  C   UNL     1      40.368 -13.214   0.126  1.00  0.00     0.735 A 
HETATM    5  N   UNL     1      41.410 -14.070   0.157  1.00  0.00    -0.191 N 
HETATM    6  N   UNL     1      38.686 -12.101   1.059  1.00  0.00     0.012 NA
HETATM    7  N   UNL     1      38.704 -11.912  -0.258  1.00  0.00     0.033 NA
HETATM    8  N   UNL     1      39.747 -12.600  -0.851  1.00  0.00     0.030 NA
HETATM    9  C   UNL     1      41.753 -14.799   1.293  1.00  0.00     0.037 C 
HETATM   10  C   UNL     1      42.845 -15.822   1.099  1.00  0.00     0.070 C 
HETATM   11  H   UNL     1      41.843 -14.339  -0.725  1.00  0.00     0.184 HD
ENDROOT
BRANCH   1  12
HETATM   12  C   UNL     1      41.292 -15.350   3.719  1.00  0.00     0.256 C 
HETATM   13  N   UNL     1      42.523 -15.202   4.317  1.00  0.00    -0.323 N 
HETATM   14  H   UNL     1      43.245 -14.790   3.741  1.00  0.00     0.169 HD
HETATM   15  O   UNL     1      40.435 -16.168   4.018  1.00  0.00    -0.267 OA
BRANCH  13  16
HETATM   16  C   UNL     1      42.971 -15.714   5.558  1.00  0.00     0.041 A 
HETATM   17  C   UNL     1      43.701 -16.900   5.763  1.00  0.00    -0.035 A 
HETATM   18  C   UNL     1      44.080 -17.880   4.688  1.00  0.00     0.050 C 
HETATM   19  C   UNL     1      44.084 -17.241   7.078  1.00  0.00     0.009 A 
HETATM   20  C   UNL     1      43.708 -16.467   8.173  1.00  0.00     0.001 A 
HETATM   21  C   UNL     1      42.939 -15.331   7.976  1.00  0.00     0.002 A 
HETATM   22  C   UNL     1      42.572 -14.962   6.681  1.00  0.00     0.030 A 
ENDBRANCH  13  16
ENDBRANCH   1  12
BRANCH   2  23
HETATM   23  C   UNL     1      40.744 -12.192   3.399  1.00  0.00    -0.011 A 
HETATM   24  C   UNL     1      41.976 -11.621   3.077  1.00  0.00     0.125 A 
HETATM   25  N   UNL     1      42.538 -10.589   3.747  1.00  0.00    -0.272 NA
HETATM   26  C   UNL     1      41.843 -10.094   4.791  1.00  0.00     0.116 A 
HETATM   27  C   UNL     1      40.611 -10.579   5.194  1.00  0.00     0.020 A 
HETATM   28  C   UNL     1      40.056 -11.641   4.487  1.00  0.00     0.012 A 
ENDBRANCH   2  23
TORSDOF 3
ENDMDL
MODEL 10
REMARK VINA RESULT:      -7.2     15.022     16.859
REMARK  3 active torsions:
REMARK  status: ('A' for Active; 'I' for Inactive)
REMARK    1  A    between atoms: C_3  and  N_4 
REMARK       I    between atoms: N_4  and  C_5 
REMARK    2  A    between atoms: C_5  and  C_6 
REMARK    3  A    between atoms: C_7  and  C_8 
ROOT
HETATM    1  C   UNL     1      46.193 -29.603  -0.125  1.00  0.00     0.062 C 
HETATM    2  C   UNL     1      45.183 -30.747   0.037  1.00  0.00     0.199 C 
HETATM    3  N   UNL     1      44.745 -31.225  -1.271  1.00  0.00    -0.092 N 
HETATM    4  C   UNL     1      44.935 -30.552  -2.443  1.00  0.00     0.735 A 
HETATM    5  N   UNL     1      45.614 -29.386  -2.424  1.00  0.00    -0.191 N 
HETATM    6  N   UNL     1      44.135 -32.398  -1.499  1.00  0.00     0.012 NA
HETATM    7  N   UNL     1      43.907 -32.401  -2.810  1.00  0.00     0.033 NA
HETATM    8  N   UNL     1      44.401 -31.256  -3.410  1.00  0.00     0.030 NA
HETATM    9  C   UNL     1      46.312 -28.938  -1.305  1.00  0.00     0.037 C 
HETATM   10  C   UNL     1      47.140 -27.694  -1.515  1.00  0.00     0.070 C 
HETATM   11  H   UNL     1      45.784 -28.909  -3.308  1.00  0.00     0.184 HD
ENDROOT
BRANCH   1  12
HETATM   12  C   UNL     1      47.002 -29.322   1.099  1.00  0.00     0.256 C 
HETATM   13  N   UNL     1      47.751 -30.396   1.524  1.00  0.00    -0.323 N 
HETATM   14  H   UNL     1      47.489 -31.294   1.140  1.00  0.00     0.169 HD
HETATM   15  O   UNL     1      46.829 -28.274   1.704  1.00  0.00    -0.267 OA
BRANCH  13  16
HETATM   16  C   UNL     1      48.713 -30.449   2.560  1.00  0.00     0.041 A 
HETATM   17  C   UNL     1      48.460 -30.631   3.932  1.00  0.00    -0.035 A 
HETATM   18  C   UNL     1      47.096 -30.738   4.555  1.00  0.00     0.050 C 
HETATM   19  C   UNL     1      49.555 -30.681   4.823  1.00  0.00     0.009 A 
HETATM   20  C   UNL     1      50.863 -30.497   4.383  1.00  0.00     0.001 A 
HETATM   21  C   UNL     1      51.106 -30.258   3.041  1.00  0.00     0.002 A 
HETATM   22  C   UNL     1      50.040 -30.231   2.140  1.00  0.00     0.030 A 
ENDBRANCH  13  16
ENDBRANCH   1  12
BRANCH   2  23
HETATM   23  C   UNL     1      43.964 -30.369   0.862  1.00  0.00    -0.011 A 
HETATM   24  C   UNL     1      43.126 -29.313   0.503  1.00  0.00     0.125 A 
HETATM   25  N   UNL     1      42.034 -28.931   1.204  1.00  0.00    -0.272 NA
HETATM   26  C   UNL     1      41.756 -29.634   2.322  1.00  0.00     0.116 A 
HETATM   27  C   UNL     1      42.515 -30.702   2.767  1.00  0.00     0.020 A 
HETATM   28  C   UNL     1      43.633 -31.072   2.025  1.00  0.00     0.012 A 
ENDBRANCH   2  23
TORSDOF 3
ENDMDL
