MODEL 1
REMARK VINA RESULT:      -9.0      0.000      0.000
REMARK  5 active torsions:
REMARK  status: ('A' for Active; 'I' for Inactive)
REMARK    1  A    between atoms: C_4  and  N_5 
REMARK       I    between atoms: N_5  and  C_6 
REMARK       I    between atoms: C_6  and  N_7 
REMARK    2  A    between atoms: N_7  and  C_8 
REMARK    3  A    between atoms: C_10  and  C_11 
REMARK       I    between atoms: C_11  and  N_12 
REMARK    4  A    between atoms: N_12  and  C_13 
REMARK    5  A    between atoms: C_13  and  C_14 
ROOT
HETATM    1  C   UNL     1      44.640 -11.358   6.716  1.00  0.00     0.175 A 
HETATM    2  S   UNL     1      44.042 -11.474   5.128  1.00  0.00    -0.044 SA
HETATM    3  C   UNL     1      43.314 -12.985   5.504  1.00  0.00     0.100 A 
HETATM    4  C   UNL     1      43.588 -13.303   6.827  1.00  0.00     0.056 A 
HETATM    5  C   UNL     1      43.165 -14.524   7.566  1.00  0.00     0.072 C 
HETATM    6  N   UNL     1      44.331 -12.352   7.510  1.00  0.00    -0.228 NA
ENDROOT
BRANCH   1   7
HETATM    7  N   UNL     1      45.353 -10.291   7.182  1.00  0.00    -0.287 N 
HETATM    8  C   UNL     1      45.132  -9.352   8.142  1.00  0.00     0.326 C 
HETATM    9  N   UNL     1      43.882  -9.266   8.683  1.00  0.00    -0.309 N 
HETATM   10  O   UNL     1      46.076  -8.614   8.419  1.00  0.00    -0.247 OA
HETATM   11  H   UNL     1      43.170  -9.812   8.223  1.00  0.00     0.170 HD
HETATM   12  H   UNL     1      46.258 -10.195   6.740  1.00  0.00     0.172 HD
BRANCH   9  13
HETATM   13  C   UNL     1      43.435  -8.402   9.704  1.00  0.00     0.036 A 
HETATM   14  C   UNL     1      43.383  -8.749  11.057  1.00  0.00     0.036 A 
HETATM   15  C   UNL     1      42.932  -7.834  12.022  1.00  0.00    -0.060 A 
HETATM   16  C   UNL     1      42.856  -8.240  13.465  1.00  0.00     0.048 C 
HETATM   17  C   UNL     1      42.501  -6.568  11.616  1.00  0.00     0.007 A 
HETATM   18  C   UNL     1      42.541  -6.214  10.269  1.00  0.00     0.003 A 
HETATM   19  C   UNL     1      43.005  -7.126   9.318  1.00  0.00     0.029 A 
ENDBRANCH   9  13
ENDBRANCH   1   7
BRANCH   3  20
HETATM   20  C   UNL     1      42.559 -13.766   4.539  1.00  0.00     0.260 C 
HETATM   21  N   UNL     1      43.278 -14.685   3.804  1.00  0.00    -0.352 N 
HETATM   22  H   UNL     1      44.256 -14.822   4.015  1.00  0.00     0.163 HD
HETATM   23  O   UNL     1      41.351 -13.620   4.373  1.00  0.00    -0.267 OA
BRANCH  21  24
HETATM   24  C   UNL     1      42.650 -15.561   2.839  1.00  0.00     0.161 C 
BRANCH  24  25
HETATM   25  C   UNL     1      43.016 -17.022   2.983  1.00  0.00    -0.040 A 
HETATM   26  C   UNL     1      42.740 -17.995   2.011  1.00  0.00     0.010 A 
HETATM   27  C   UNL     1      43.106 -19.330   2.214  1.00  0.00     0.024 A 
HETATM   28  C   UNL     1      43.743 -19.707   3.393  1.00  0.00     0.034 A 
HETATM   29 CL   UNL     1      44.187 -21.350   3.641  1.00  0.00    -0.084 Cl
HETATM   30  C   UNL     1      44.018 -18.759   4.374  1.00  0.00     0.024 A 
HETATM   31  C   UNL     1      43.659 -17.425   4.168  1.00  0.00     0.010 A 
ENDBRANCH  24  25
ENDBRANCH  21  24
ENDBRANCH   3  20
TORSDOF 5
ENDMDL
MODEL 2
REMARK VINA RESULT:      -8.8      1.682      2.223
REMARK  5 active torsions:
REMARK  status: ('A' for Active; 'I' for Inactive)
REMARK    1  A    between atoms: C_4  and  N_5 
REMARK       I    between atoms: N_5  and  C_6 
REMARK       I    between atoms: C_6  and  N_7 
REMARK    2  A    between atoms: N_7  and  C_8 
REMARK    3  A    between atoms: C_10  and  C_11 
REMARK       I    between atoms: C_11  and  N_12 
REMARK    4  A    between atoms: N_12  and  C_13 
REMARK    5  A    between atoms: C_13  and  C_14 
ROOT
HETATM    1  C   UNL     1      43.899 -11.224   7.508  1.00  0.00     0.175 A 
HETATM    2  S   UNL     1      43.782 -12.809   6.902  1.00  0.00    -0.044 SA
HETATM    3  C   UNL     1      42.722 -12.266   5.663  1.00  0.00     0.100 A 
HETATM    4  C   UNL     1      42.524 -10.900   5.804  1.00  0.00     0.056 A 
HETATM    5  C   UNL     1      41.670 -10.021   4.958  1.00  0.00     0.072 C 
HETATM    6  N   UNL     1      43.219 -10.317   6.853  1.00  0.00    -0.228 NA
ENDROOT
BRANCH   1   7
HETATM    7  N   UNL     1      44.681 -10.873   8.572  1.00  0.00    -0.287 N 
HETATM    8  C   UNL     1      44.419 -10.421   9.828  1.00  0.00     0.326 C 
HETATM    9  N   UNL     1      43.145 -10.031  10.121  1.00  0.00    -0.309 N 
HETATM   10  O   UNL     1      45.375 -10.357  10.600  1.00  0.00    -0.247 OA
HETATM   11  H   UNL     1      42.518  -9.967   9.334  1.00  0.00     0.170 HD
HETATM   12  H   UNL     1      45.668 -11.009   8.400  1.00  0.00     0.172 HD
BRANCH   9  13
HETATM   13  C   UNL     1      42.640  -9.565  11.353  1.00  0.00     0.036 A 
HETATM   14  C   UNL     1      43.241  -8.559  12.114  1.00  0.00     0.036 A 
HETATM   15  C   UNL     1      42.679  -8.139  13.331  1.00  0.00    -0.060 A 
HETATM   16  C   UNL     1      43.359  -7.078  14.146  1.00  0.00     0.048 C 
HETATM   17  C   UNL     1      41.517  -8.760  13.799  1.00  0.00     0.007 A 
HETATM   18  C   UNL     1      40.914  -9.769  13.051  1.00  0.00     0.003 A 
HETATM   19  C   UNL     1      41.473 -10.170  11.835  1.00  0.00     0.029 A 
ENDBRANCH   9  13
ENDBRANCH   1   7
BRANCH   3  20
HETATM   20  C   UNL     1      42.146 -13.151   4.665  1.00  0.00     0.260 C 
HETATM   21  N   UNL     1      43.040 -13.850   3.882  1.00  0.00    -0.352 N 
HETATM   22  H   UNL     1      44.027 -13.773   4.082  1.00  0.00     0.163 HD
HETATM   23  O   UNL     1      40.933 -13.272   4.513  1.00  0.00    -0.267 OA
BRANCH  21  24
HETATM   24  C   UNL     1      42.609 -14.799   2.879  1.00  0.00     0.161 C 
BRANCH  24  25
HETATM   25  C   UNL     1      43.008 -16.231   3.155  1.00  0.00    -0.040 A 
HETATM   26  C   UNL     1      42.958 -17.254   2.196  1.00  0.00     0.010 A 
HETATM   27  C   UNL     1      43.340 -18.560   2.524  1.00  0.00     0.024 A 
HETATM   28  C   UNL     1      43.768 -18.857   3.815  1.00  0.00     0.034 A 
HETATM   29 CL   UNL     1      44.233 -20.464   4.216  1.00  0.00    -0.084 Cl
HETATM   30  C   UNL     1      43.818 -17.860   4.784  1.00  0.00     0.024 A 
HETATM   31  C   UNL     1      43.442 -16.555   4.454  1.00  0.00     0.010 A 
ENDBRANCH  24  25
ENDBRANCH  21  24
ENDBRANCH   3  20
TORSDOF 5
ENDMDL
MODEL 3
REMARK VINA RESULT:      -8.8      1.633      1.897
REMARK  5 active torsions:
REMARK  status: ('A' for Active; 'I' for Inactive)
REMARK    1  A    between atoms: C_4  and  N_5 
REMARK       I    between atoms: N_5  and  C_6 
REMARK       I    between atoms: C_6  and  N_7 
REMARK    2  A    between atoms: N_7  and  C_8 
REMARK    3  A    between atoms: C_10  and  C_11 
REMARK       I    between atoms: C_11  and  N_12 
REMARK    4  A    between atoms: N_12  and  C_13 
REMARK    5  A    between atoms: C_13  and  C_14 
ROOT
HETATM    1  C   UNL     1      42.477 -10.734   6.171  1.00  0.00     0.175 A 
HETATM    2  S   UNL     1      41.707 -11.225   4.737  1.00  0.00    -0.044 SA
HETATM    3  C   UNL     1      42.252 -12.836   4.987  1.00  0.00     0.100 A 
HETATM    4  C   UNL     1      42.998 -12.885   6.156  1.00  0.00     0.056 A 
HETATM    5  C   UNL     1      43.671 -14.075   6.747  1.00  0.00     0.072 C 
HETATM    6  N   UNL     1      43.100 -11.678   6.831  1.00  0.00    -0.228 NA
ENDROOT
BRANCH   1   7
HETATM    7  N   UNL     1      42.426  -9.460   6.662  1.00  0.00    -0.287 N 
HETATM    8  C   UNL     1      42.467  -8.926   7.913  1.00  0.00     0.326 C 
HETATM    9  N   UNL     1      42.349  -9.771   8.978  1.00  0.00    -0.309 N 
HETATM   10  O   UNL     1      42.562  -7.702   7.986  1.00  0.00    -0.247 OA
HETATM   11  H   UNL     1      42.091 -10.720   8.755  1.00  0.00     0.170 HD
HETATM   12  H   UNL     1      42.380  -8.757   5.935  1.00  0.00     0.172 HD
BRANCH   9  13
HETATM   13  C   UNL     1      42.397  -9.450  10.351  1.00  0.00     0.036 A 
HETATM   14  C   UNL     1      41.365  -9.722  11.253  1.00  0.00     0.036 A 
HETATM   15  C   UNL     1      41.482  -9.379  12.610  1.00  0.00    -0.060 A 
HETATM   16  C   UNL     1      40.349  -9.653  13.555  1.00  0.00     0.048 C 
HETATM   17  C   UNL     1      42.638  -8.731  13.055  1.00  0.00     0.007 A 
HETATM   18  C   UNL     1      43.670  -8.449  12.162  1.00  0.00     0.003 A 
HETATM   19  C   UNL     1      43.549  -8.806  10.817  1.00  0.00     0.029 A 
ENDBRANCH   9  13
ENDBRANCH   1   7
BRANCH   3  20
HETATM   20  C   UNL     1      41.959 -13.926   4.072  1.00  0.00     0.260 C 
HETATM   21  N   UNL     1      43.039 -14.469   3.407  1.00  0.00    -0.352 N 
HETATM   22  H   UNL     1      43.967 -14.144   3.635  1.00  0.00     0.163 HD
HETATM   23  O   UNL     1      40.819 -14.344   3.886  1.00  0.00    -0.267 OA
BRANCH  21  24
HETATM   24  C   UNL     1      42.902 -15.588   2.500  1.00  0.00     0.161 C 
BRANCH  24  25
HETATM   25  C   UNL     1      43.305 -16.924   3.083  1.00  0.00    -0.040 A 
HETATM   26  C   UNL     1      43.315 -18.122   2.353  1.00  0.00     0.010 A 
HETATM   27  C   UNL     1      43.696 -19.324   2.960  1.00  0.00     0.024 A 
HETATM   28  C   UNL     1      44.064 -19.341   4.303  1.00  0.00     0.034 A 
HETATM   29 CL   UNL     1      44.528 -20.821   5.046  1.00  0.00    -0.084 Cl
HETATM   30  C   UNL     1      44.053 -18.166   5.047  1.00  0.00     0.024 A 
HETATM   31  C   UNL     1      43.678 -16.965   4.438  1.00  0.00     0.010 A 
ENDBRANCH  24  25
ENDBRANCH  21  24
ENDBRANCH   3  20
TORSDOF 5
ENDMDL
MODEL 4
REMARK VINA RESULT:      -8.5      7.871     11.268
REMARK  5 active torsions:
REMARK  status: ('A' for Active; 'I' for Inactive)
REMARK    1  A    between atoms: C_4  and  N_5 
REMARK       I    between atoms: N_5  and  C_6 
REMARK       I    between atoms: C_6  and  N_7 
REMARK    2  A    between atoms: N_7  and  C_8 
REMARK    3  A    between atoms: C_10  and  C_11 
REMARK       I    between atoms: C_11  and  N_12 
REMARK    4  A    between atoms: N_12  and  C_13 
REMARK    5  A    between atoms: C_13  and  C_14 
ROOT
HETATM    1  C   UNL     1      40.135 -14.026   0.819  1.00  0.00     0.175 A 
HETATM    2  S   UNL     1      40.862 -12.552   0.382  1.00  0.00    -0.044 SA
HETATM    3  C   UNL     1      40.433 -12.818  -1.261  1.00  0.00     0.100 A 
HETATM    4  C   UNL     1      39.765 -14.029  -1.363  1.00  0.00     0.056 A 
HETATM    5  C   UNL     1      39.225 -14.659  -2.600  1.00  0.00     0.072 C 
HETATM    6  N   UNL     1      39.587 -14.698  -0.161  1.00  0.00    -0.228 NA
ENDROOT
BRANCH   1   7
HETATM    7  N   UNL     1      40.064 -14.486   2.103  1.00  0.00    -0.287 N 
HETATM    8  C   UNL     1      40.793 -15.375   2.831  1.00  0.00     0.326 C 
HETATM    9  N   UNL     1      41.695 -16.159   2.174  1.00  0.00    -0.309 N 
HETATM   10  O   UNL     1      40.545 -15.434   4.035  1.00  0.00    -0.247 OA
HETATM   11  H   UNL     1      41.650 -16.125   1.167  1.00  0.00     0.170 HD
HETATM   12  H   UNL     1      39.327 -14.047   2.641  1.00  0.00     0.172 HD
BRANCH   9  13
HETATM   13  C   UNL     1      42.575 -17.117   2.721  1.00  0.00     0.036 A 
HETATM   14  C   UNL     1      42.793 -18.383   2.171  1.00  0.00     0.036 A 
HETATM   15  C   UNL     1      43.690 -19.285   2.767  1.00  0.00    -0.060 A 
HETATM   16  C   UNL     1      43.886 -20.651   2.175  1.00  0.00     0.048 C 
HETATM   17  C   UNL     1      44.349 -18.918   3.943  1.00  0.00     0.007 A 
HETATM   18  C   UNL     1      44.133 -17.661   4.504  1.00  0.00     0.003 A 
HETATM   19  C   UNL     1      43.250 -16.766   3.897  1.00  0.00     0.029 A 
ENDBRANCH   9  13
ENDBRANCH   1   7
BRANCH   3  20
HETATM   20  C   UNL     1      40.762 -11.890  -2.329  1.00  0.00     0.260 C 
HETATM   21  N   UNL     1      40.317 -10.594  -2.168  1.00  0.00    -0.352 N 
HETATM   22  H   UNL     1      39.859 -10.339  -1.305  1.00  0.00     0.163 HD
HETATM   23  O   UNL     1      41.393 -12.228  -3.327  1.00  0.00    -0.267 OA
BRANCH  21  24
HETATM   24  C   UNL     1      40.609  -9.554  -3.130  1.00  0.00     0.161 C 
BRANCH  24  25
HETATM   25  C   UNL     1      41.573  -8.496  -2.641  1.00  0.00    -0.040 A 
HETATM   26  C   UNL     1      41.877  -8.284  -1.288  1.00  0.00     0.010 A 
HETATM   27  C   UNL     1      42.778  -7.282  -0.908  1.00  0.00     0.024 A 
HETATM   28  C   UNL     1      43.376  -6.479  -1.875  1.00  0.00     0.034 A 
HETATM   29 CL   UNL     1      44.479  -5.246  -1.403  1.00  0.00    -0.084 Cl
HETATM   30  C   UNL     1      43.082  -6.667  -3.222  1.00  0.00     0.024 A 
HETATM   31  C   UNL     1      42.187  -7.671  -3.600  1.00  0.00     0.010 A 
ENDBRANCH  24  25
ENDBRANCH  21  24
ENDBRANCH   3  20
TORSDOF 5
ENDMDL
MODEL 5
REMARK VINA RESULT:      -8.5      2.383      2.985
REMARK  5 active torsions:
REMARK  status: ('A' for Active; 'I' for Inactive)
REMARK    1  A    between atoms: C_4  and  N_5 
REMARK       I    between atoms: N_5  and  C_6 
REMARK       I    between atoms: C_6  and  N_7 
REMARK    2  A    between atoms: N_7  and  C_8 
REMARK    3  A    between atoms: C_10  and  C_11 
REMARK       I    between atoms: C_11  and  N_12 
REMARK    4  A    between atoms: N_12  and  C_13 
REMARK    5  A    between atoms: C_13  and  C_14 
ROOT
HETATM    1  C   UNL     1      41.489 -10.013   6.760  1.00  0.00     0.175 A 
HETATM    2  S   UNL     1      41.151 -10.664   5.226  1.00  0.00    -0.044 SA
HETATM    3  C   UNL     1      42.667 -11.474   5.225  1.00  0.00     0.100 A 
HETATM    4  C   UNL     1      43.336 -11.181   6.405  1.00  0.00     0.056 A 
HETATM    5  C   UNL     1      44.685 -11.658   6.818  1.00  0.00     0.072 C 
HETATM    6  N   UNL     1      42.640 -10.360   7.279  1.00  0.00    -0.228 NA
ENDROOT
BRANCH   1   7
HETATM    7  N   UNL     1      40.623  -9.220   7.456  1.00  0.00    -0.287 N 
HETATM    8  C   UNL     1      40.500  -8.877   8.767  1.00  0.00     0.326 C 
HETATM    9  N   UNL     1      41.243  -9.562   9.684  1.00  0.00    -0.309 N 
HETATM   10  O   UNL     1      39.685  -7.994   9.031  1.00  0.00    -0.247 OA
HETATM   11  H   UNL     1      41.721 -10.378   9.335  1.00  0.00     0.170 HD
HETATM   12  H   UNL     1      39.941  -8.762   6.864  1.00  0.00     0.172 HD
BRANCH   9  13
HETATM   13  C   UNL     1      41.303  -9.360  11.079  1.00  0.00     0.036 A 
HETATM   14  C   UNL     1      42.238  -8.536  11.710  1.00  0.00     0.036 A 
HETATM   15  C   UNL     1      42.236  -8.375  13.105  1.00  0.00    -0.060 A 
HETATM   16  C   UNL     1      43.269  -7.508  13.764  1.00  0.00     0.048 C 
HETATM   17  C   UNL     1      41.301  -9.076  13.874  1.00  0.00     0.007 A 
HETATM   18  C   UNL     1      40.370  -9.907  13.255  1.00  0.00     0.003 A 
HETATM   19  C   UNL     1      40.371 -10.048  11.866  1.00  0.00     0.029 A 
ENDBRANCH   9  13
ENDBRANCH   1   7
BRANCH   3  20
HETATM   20  C   UNL     1      43.125 -12.305   4.125  1.00  0.00     0.260 C 
HETATM   21  N   UNL     1      42.473 -13.509   3.960  1.00  0.00    -0.352 N 
HETATM   22  H   UNL     1      41.680 -13.720   4.549  1.00  0.00     0.163 HD
HETATM   23  O   UNL     1      44.044 -11.970   3.382  1.00  0.00    -0.267 OA
BRANCH  21  24
HETATM   24  C   UNL     1      42.793 -14.418   2.881  1.00  0.00     0.161 C 
BRANCH  24  25
HETATM   25  C   UNL     1      43.182 -15.810   3.324  1.00  0.00    -0.040 A 
HETATM   26  C   UNL     1      43.297 -16.903   2.452  1.00  0.00     0.010 A 
HETATM   27  C   UNL     1      43.660 -18.166   2.935  1.00  0.00     0.024 A 
HETATM   28  C   UNL     1      43.903 -18.350   4.293  1.00  0.00     0.034 A 
HETATM   29 CL   UNL     1      44.344 -19.904   4.883  1.00  0.00    -0.084 Cl
HETATM   30  C   UNL     1      43.787 -17.281   5.177  1.00  0.00     0.024 A 
HETATM   31  C   UNL     1      43.431 -16.019   4.693  1.00  0.00     0.010 A 
ENDBRANCH  24  25
ENDBRANCH  21  24
ENDBRANCH   3  20
TORSDOF 5
ENDMDL
MODEL 6
REMARK VINA RESULT:      -8.2      3.900     10.610
REMARK  5 active torsions:
REMARK  status: ('A' for Active; 'I' for Inactive)
REMARK    1  A    between atoms: C_4  and  N_5 
REMARK       I    between atoms: N_5  and  C_6 
REMARK       I    between atoms: C_6  and  N_7 
REMARK    2  A    between atoms: N_7  and  C_8 
REMARK    3  A    between atoms: C_10  and  C_11 
REMARK       I    between atoms: C_11  and  N_12 
REMARK    4  A    between atoms: N_12  and  C_13 
REMARK    5  A    between atoms: C_13  and  C_14 
ROOT
HETATM    1  C   UNL     1      42.421 -11.329   5.891  1.00  0.00     0.175 A 
HETATM    2  S   UNL     1      41.962 -10.169   7.047  1.00  0.00    -0.044 SA
HETATM    3  C   UNL     1      43.596 -10.020   7.559  1.00  0.00     0.100 A 
HETATM    4  C   UNL     1      44.385 -10.881   6.809  1.00  0.00     0.056 A 
HETATM    5  C   UNL     1      45.855 -11.087   6.925  1.00  0.00     0.072 C 
HETATM    6  N   UNL     1      43.700 -11.607   5.847  1.00  0.00    -0.228 NA
ENDROOT
BRANCH   1   7
HETATM    7  N   UNL     1      41.551 -11.913   5.015  1.00  0.00    -0.287 N 
HETATM    8  C   UNL     1      41.564 -13.072   4.303  1.00  0.00     0.326 C 
HETATM    9  N   UNL     1      42.728 -13.780   4.244  1.00  0.00    -0.309 N 
HETATM   10  O   UNL     1      40.521 -13.372   3.721  1.00  0.00    -0.247 OA
HETATM   11  H   UNL     1      43.541 -13.313   4.615  1.00  0.00     0.170 HD
HETATM   12  H   UNL     1      40.697 -11.385   4.893  1.00  0.00     0.172 HD
BRANCH   9  13
HETATM   13  C   UNL     1      42.964 -15.013   3.600  1.00  0.00     0.036 A 
HETATM   14  C   UNL     1      43.272 -16.200   4.270  1.00  0.00     0.036 A 
HETATM   15  C   UNL     1      43.489 -17.394   3.563  1.00  0.00    -0.060 A 
HETATM   16  C   UNL     1      43.848 -18.650   4.303  1.00  0.00     0.048 C 
HETATM   17  C   UNL     1      43.425 -17.385   2.167  1.00  0.00     0.007 A 
HETATM   18  C   UNL     1      43.126 -16.205   1.489  1.00  0.00     0.003 A 
HETATM   19  C   UNL     1      42.898 -15.026   2.201  1.00  0.00     0.029 A 
ENDBRANCH   9  13
ENDBRANCH   1   7
BRANCH   3  20
HETATM   20  C   UNL     1      44.017  -9.128   8.626  1.00  0.00     0.260 C 
HETATM   21  N   UNL     1      43.845  -9.595   9.912  1.00  0.00    -0.352 N 
HETATM   22  H   UNL     1      43.512 -10.538  10.049  1.00  0.00     0.163 HD
HETATM   23  O   UNL     1      44.493  -8.017   8.408  1.00  0.00    -0.267 OA
BRANCH  21  24
HETATM   24  C   UNL     1      44.260  -8.834  11.070  1.00  0.00     0.161 C 
BRANCH  24  25
HETATM   25  C   UNL     1      43.123  -8.317  11.924  1.00  0.00    -0.040 A 
HETATM   26  C   UNL     1      43.268  -7.931  13.265  1.00  0.00     0.010 A 
HETATM   27  C   UNL     1      42.170  -7.465  13.996  1.00  0.00     0.024 A 
HETATM   28  C   UNL     1      40.915  -7.389  13.397  1.00  0.00     0.034 A 
HETATM   29 CL   UNL     1      39.567  -6.820  14.300  1.00  0.00    -0.084 Cl
HETATM   30  C   UNL     1      40.748  -7.774  12.071  1.00  0.00     0.024 A 
HETATM   31  C   UNL     1      41.847  -8.233  11.340  1.00  0.00     0.010 A 
ENDBRANCH  24  25
ENDBRANCH  21  24
ENDBRANCH   3  20
TORSDOF 5
ENDMDL
MODEL 7
REMARK VINA RESULT:      -8.2      3.632     10.483
REMARK  5 active torsions:
REMARK  status: ('A' for Active; 'I' for Inactive)
REMARK    1  A    between atoms: C_4  and  N_5 
REMARK       I    between atoms: N_5  and  C_6 
REMARK       I    between atoms: C_6  and  N_7 
REMARK    2  A    between atoms: N_7  and  C_8 
REMARK    3  A    between atoms: C_10  and  C_11 
REMARK       I    between atoms: C_11  and  N_12 
REMARK    4  A    between atoms: N_12  and  C_13 
REMARK    5  A    between atoms: C_13  and  C_14 
ROOT
HETATM    1  C   UNL     1      41.896 -13.304   4.703  1.00  0.00     0.175 A 
HETATM    2  S   UNL     1      41.113 -11.858   5.136  1.00  0.00    -0.044 SA
HETATM    3  C   UNL     1      42.509 -11.352   6.002  1.00  0.00     0.100 A 
HETATM    4  C   UNL     1      43.482 -12.336   5.905  1.00  0.00     0.056 A 
HETATM    5  C   UNL     1      44.841 -12.322   6.513  1.00  0.00     0.072 C 
HETATM    6  N   UNL     1      43.122 -13.437   5.143  1.00  0.00    -0.228 NA
ENDROOT
BRANCH   1   7
HETATM    7  N   UNL     1      41.334 -14.263   3.908  1.00  0.00    -0.287 N 
HETATM    8  C   UNL     1      41.588 -15.582   3.696  1.00  0.00     0.326 C 
HETATM    9  N   UNL     1      42.741 -16.107   4.203  1.00  0.00    -0.309 N 
HETATM   10  O   UNL     1      40.768 -16.198   3.016  1.00  0.00    -0.247 OA
HETATM   11  H   UNL     1      43.397 -15.437   4.574  1.00  0.00     0.170 HD
HETATM   12  H   UNL     1      40.536 -13.926   3.385  1.00  0.00     0.172 HD
BRANCH   9  13
HETATM   13  C   UNL     1      43.191 -17.442   4.137  1.00  0.00     0.036 A 
HETATM   14  C   UNL     1      43.248 -18.191   2.958  1.00  0.00     0.036 A 
HETATM   15  C   UNL     1      43.714 -19.516   2.965  1.00  0.00    -0.060 A 
HETATM   16  C   UNL     1      43.738 -20.310   1.691  1.00  0.00     0.048 C 
HETATM   17  C   UNL     1      44.097 -20.100   4.175  1.00  0.00     0.007 A 
HETATM   18  C   UNL     1      44.037 -19.365   5.357  1.00  0.00     0.003 A 
HETATM   19  C   UNL     1      43.586 -18.044   5.338  1.00  0.00     0.029 A 
ENDBRANCH   9  13
ENDBRANCH   1   7
BRANCH   3  20
HETATM   20  C   UNL     1      42.588 -10.089   6.716  1.00  0.00     0.260 C 
HETATM   21  N   UNL     1      43.319 -10.096   7.886  1.00  0.00    -0.352 N 
HETATM   22  H   UNL     1      43.814 -10.937   8.147  1.00  0.00     0.163 HD
HETATM   23  O   UNL     1      42.034  -9.069   6.316  1.00  0.00    -0.267 OA
BRANCH  21  24
HETATM   24  C   UNL     1      43.519  -8.902   8.677  1.00  0.00     0.161 C 
BRANCH  24  25
HETATM   25  C   UNL     1      42.926  -8.960  10.066  1.00  0.00    -0.040 A 
HETATM   26  C   UNL     1      41.597  -9.323  10.333  1.00  0.00     0.010 A 
HETATM   27  C   UNL     1      41.115  -9.352  11.646  1.00  0.00     0.024 A 
HETATM   28  C   UNL     1      41.953  -9.011  12.704  1.00  0.00     0.034 A 
HETATM   29 CL   UNL     1      41.355  -9.043  14.317  1.00  0.00    -0.084 Cl
HETATM   30  C   UNL     1      43.272  -8.640  12.461  1.00  0.00     0.024 A 
HETATM   31  C   UNL     1      43.754  -8.617  11.150  1.00  0.00     0.010 A 
ENDBRANCH  24  25
ENDBRANCH  21  24
ENDBRANCH   3  20
TORSDOF 5
ENDMDL
MODEL 8
REMARK VINA RESULT:      -8.1      4.301     10.585
REMARK  5 active torsions:
REMARK  status: ('A' for Active; 'I' for Inactive)
REMARK    1  A    between atoms: C_4  and  N_5 
REMARK       I    between atoms: N_5  and  C_6 
REMARK       I    between atoms: C_6  and  N_7 
REMARK    2  A    between atoms: N_7  and  C_8 
REMARK    3  A    between atoms: C_10  and  C_11 
REMARK       I    between atoms: C_11  and  N_12 
REMARK    4  A    between atoms: N_12  and  C_13 
REMARK    5  A    between atoms: C_13  and  C_14 
ROOT
HETATM    1  C   UNL     1      43.719 -10.757   6.264  1.00  0.00     0.175 A 
HETATM    2  S   UNL     1      44.687 -11.354   7.527  1.00  0.00    -0.044 SA
HETATM    3  C   UNL     1      43.717 -10.521   8.676  1.00  0.00     0.100 A 
HETATM    4  C   UNL     1      42.716  -9.832   8.007  1.00  0.00     0.056 A 
HETATM    5  C   UNL     1      41.661  -8.969   8.606  1.00  0.00     0.072 C 
HETATM    6  N   UNL     1      42.720  -9.993   6.630  1.00  0.00    -0.228 NA
ENDROOT
BRANCH   1   7
HETATM    7  N   UNL     1      43.907 -11.072   4.948  1.00  0.00    -0.287 N 
HETATM    8  C   UNL     1      43.496 -12.097   4.154  1.00  0.00     0.326 C 
HETATM    9  N   UNL     1      42.921 -13.182   4.748  1.00  0.00    -0.309 N 
HETATM   10  O   UNL     1      43.719 -11.984   2.949  1.00  0.00    -0.247 OA
HETATM   11  H   UNL     1      42.977 -13.209   5.754  1.00  0.00     0.170 HD
HETATM   12  H   UNL     1      44.443 -10.376   4.447  1.00  0.00     0.172 HD
BRANCH   9  13
HETATM   13  C   UNL     1      42.394 -14.335   4.128  1.00  0.00     0.036 A 
HETATM   14  C   UNL     1      43.160 -15.448   3.768  1.00  0.00     0.036 A 
HETATM   15  C   UNL     1      42.567 -16.566   3.159  1.00  0.00    -0.060 A 
HETATM   16  C   UNL     1      43.414 -17.737   2.753  1.00  0.00     0.048 C 
HETATM   17  C   UNL     1      41.197 -16.550   2.883  1.00  0.00     0.007 A 
HETATM   18  C   UNL     1      40.427 -15.443   3.232  1.00  0.00     0.003 A 
HETATM   19  C   UNL     1      41.022 -14.341   3.850  1.00  0.00     0.029 A 
ENDBRANCH   9  13
ENDBRANCH   1   7
BRANCH   3  20
HETATM   20  C   UNL     1      43.969 -10.559  10.106  1.00  0.00     0.260 C 
HETATM   21  N   UNL     1      42.855 -10.540  10.921  1.00  0.00    -0.352 N 
HETATM   22  H   UNL     1      41.939 -10.574  10.496  1.00  0.00     0.163 HD
HETATM   23  O   UNL     1      45.102 -10.599  10.577  1.00  0.00    -0.267 OA
BRANCH  21  24
HETATM   24  C   UNL     1      42.953 -10.617  12.362  1.00  0.00     0.161 C 
BRANCH  24  25
HETATM   25  C   UNL     1      42.522  -9.364  13.090  1.00  0.00    -0.040 A 
HETATM   26  C   UNL     1      41.375  -9.284  13.895  1.00  0.00     0.010 A 
HETATM   27  C   UNL     1      41.036  -8.088  14.538  1.00  0.00     0.024 A 
HETATM   28  C   UNL     1      41.835  -6.959  14.376  1.00  0.00     0.034 A 
HETATM   29 CL   UNL     1      41.412  -5.490  15.164  1.00  0.00    -0.084 Cl
HETATM   30  C   UNL     1      42.972  -7.014  13.576  1.00  0.00     0.024 A 
HETATM   31  C   UNL     1      43.313  -8.210  12.940  1.00  0.00     0.010 A 
ENDBRANCH  24  25
ENDBRANCH  21  24
ENDBRANCH   3  20
TORSDOF 5
ENDMDL
MODEL 9
REMARK VINA RESULT:      -7.7      2.119      2.660
REMARK  5 active torsions:
REMARK  status: ('A' for Active; 'I' for Inactive)
REMARK    1  A    between atoms: C_4  and  N_5 
REMARK       I    between atoms: N_5  and  C_6 
REMARK       I    between atoms: C_6  and  N_7 
REMARK    2  A    between atoms: N_7  and  C_8 
REMARK    3  A    between atoms: C_10  and  C_11 
REMARK       I    between atoms: C_11  and  N_12 
REMARK    4  A    between atoms: N_12  and  C_13 
REMARK    5  A    between atoms: C_13  and  C_14 
ROOT
HETATM    1  C   UNL     1      42.567  -9.926   6.962  1.00  0.00     0.175 A 
HETATM    2  S   UNL     1      42.793 -11.503   6.367  1.00  0.00    -0.044 SA
HETATM    3  C   UNL     1      41.108 -11.637   6.058  1.00  0.00     0.100 A 
HETATM    4  C   UNL     1      40.483 -10.459   6.441  1.00  0.00     0.056 A 
HETATM    5  C   UNL     1      39.030 -10.143   6.362  1.00  0.00     0.072 C 
HETATM    6  N   UNL     1      41.335  -9.484   6.938  1.00  0.00    -0.228 NA
ENDROOT
BRANCH   1   7
HETATM    7  N   UNL     1      43.585  -9.124   7.394  1.00  0.00    -0.287 N 
HETATM    8  C   UNL     1      43.753  -8.307   8.469  1.00  0.00     0.326 C 
HETATM    9  N   UNL     1      42.662  -8.020   9.237  1.00  0.00    -0.309 N 
HETATM   10  O   UNL     1      44.881  -7.847   8.640  1.00  0.00    -0.247 OA
HETATM   11  H   UNL     1      41.775  -8.320   8.863  1.00  0.00     0.170 HD
HETATM   12  H   UNL     1      44.406  -9.173   6.804  1.00  0.00     0.172 HD
BRANCH   9  13
HETATM   13  C   UNL     1      42.606  -7.232  10.406  1.00  0.00     0.036 A 
HETATM   14  C   UNL     1      42.754  -7.739  11.699  1.00  0.00     0.036 A 
HETATM   15  C   UNL     1      42.692  -6.894  12.819  1.00  0.00    -0.060 A 
HETATM   16  C   UNL     1      42.825  -7.465  14.201  1.00  0.00     0.048 C 
HETATM   17  C   UNL     1      42.449  -5.530  12.634  1.00  0.00     0.007 A 
HETATM   18  C   UNL     1      42.292  -5.015  11.349  1.00  0.00     0.003 A 
HETATM   19  C   UNL     1      42.369  -5.861  10.241  1.00  0.00     0.029 A 
ENDBRANCH   9  13
ENDBRANCH   1   7
BRANCH   3  20
HETATM   20  C   UNL     1      40.494 -12.829   5.498  1.00  0.00     0.260 C 
HETATM   21  N   UNL     1      40.985 -13.251   4.280  1.00  0.00    -0.352 N 
HETATM   22  H   UNL     1      41.778 -12.770   3.880  1.00  0.00     0.163 HD
HETATM   23  O   UNL     1      39.584 -13.430   6.062  1.00  0.00    -0.267 OA
BRANCH  21  24
HETATM   24  C   UNL     1      40.500 -14.446   3.626  1.00  0.00     0.161 C 
BRANCH  24  25
HETATM   25  C   UNL     1      41.511 -15.567   3.531  1.00  0.00    -0.040 A 
HETATM   26  C   UNL     1      42.535 -15.776   4.466  1.00  0.00     0.010 A 
HETATM   27  C   UNL     1      43.438 -16.834   4.312  1.00  0.00     0.024 A 
HETATM   28  C   UNL     1      43.331 -17.688   3.218  1.00  0.00     0.034 A 
HETATM   29 CL   UNL     1      44.445 -18.984   3.029  1.00  0.00    -0.084 Cl
HETATM   30  C   UNL     1      42.327 -17.494   2.274  1.00  0.00     0.024 A 
HETATM   31  C   UNL     1      41.422 -16.441   2.432  1.00  0.00     0.010 A 
ENDBRANCH  24  25
ENDBRANCH  21  24
ENDBRANCH   3  20
TORSDOF 5
ENDMDL
MODEL 10
REMARK VINA RESULT:      -7.7      4.819     11.152
REMARK  5 active torsions:
REMARK  status: ('A' for Active; 'I' for Inactive)
REMARK    1  A    between atoms: C_4  and  N_5 
REMARK       I    between atoms: N_5  and  C_6 
REMARK       I    between atoms: C_6  and  N_7 
REMARK    2  A    between atoms: N_7  and  C_8 
REMARK    3  A    between atoms: C_10  and  C_11 
REMARK       I    between atoms: C_11  and  N_12 
REMARK    4  A    between atoms: N_12  and  C_13 
REMARK    5  A    between atoms: C_13  and  C_14 
ROOT
HETATM    1  C   UNL     1      43.880 -10.352   9.135  1.00  0.00     0.175 A 
HETATM    2  S   UNL     1      42.780  -9.070   8.941  1.00  0.00    -0.044 SA
HETATM    3  C   UNL     1      42.337  -9.189  10.598  1.00  0.00     0.100 A 
HETATM    4  C   UNL     1      43.062 -10.215  11.187  1.00  0.00     0.056 A 
HETATM    5  C   UNL     1      42.987 -10.673  12.602  1.00  0.00     0.072 C 
HETATM    6  N   UNL     1      43.953 -10.857  10.341  1.00  0.00    -0.228 NA
ENDROOT
BRANCH   1   7
HETATM    7  N   UNL     1      44.688 -10.818   8.137  1.00  0.00    -0.287 N 
HETATM    8  C   UNL     1      44.571 -11.808   7.211  1.00  0.00     0.326 C 
HETATM    9  N   UNL     1      43.546 -12.698   7.345  1.00  0.00    -0.309 N 
HETATM   10  O   UNL     1      45.439 -11.852   6.340  1.00  0.00    -0.247 OA
HETATM   11  H   UNL     1      43.032 -12.643   8.211  1.00  0.00     0.170 HD
HETATM   12  H   UNL     1      45.547 -10.291   8.044  1.00  0.00     0.172 HD
BRANCH   9  13
HETATM   13  C   UNL     1      43.213 -13.775   6.496  1.00  0.00     0.036 A 
HETATM   14  C   UNL     1      43.865 -15.011   6.509  1.00  0.00     0.036 A 
HETATM   15  C   UNL     1      43.476 -16.042   5.638  1.00  0.00    -0.060 A 
HETATM   16  C   UNL     1      44.210 -17.351   5.649  1.00  0.00     0.048 C 
HETATM   17  C   UNL     1      42.441 -15.814   4.726  1.00  0.00     0.007 A 
HETATM   18  C   UNL     1      41.790 -14.583   4.701  1.00  0.00     0.003 A 
HETATM   19  C   UNL     1      42.174 -13.569   5.580  1.00  0.00     0.029 A 
ENDBRANCH   9  13
ENDBRANCH   1   7
BRANCH   3  20
HETATM   20  C   UNL     1      41.341  -8.331  11.218  1.00  0.00     0.260 C 
HETATM   21  N   UNL     1      41.825  -7.328  12.032  1.00  0.00    -0.352 N 
HETATM   22  H   UNL     1      42.823  -7.192  12.099  1.00  0.00     0.163 HD
HETATM   23  O   UNL     1      40.136  -8.486  11.043  1.00  0.00    -0.267 OA
BRANCH  21  24
HETATM   24  C   UNL     1      40.952  -6.373  12.679  1.00  0.00     0.161 C 
BRANCH  24  25
HETATM   25  C   UNL     1      40.711  -6.636  14.149  1.00  0.00    -0.040 A 
HETATM   26  C   UNL     1      39.725  -5.986  14.906  1.00  0.00     0.010 A 
HETATM   27  C   UNL     1      39.560  -6.278  16.265  1.00  0.00     0.024 A 
HETATM   28  C   UNL     1      40.384  -7.216  16.881  1.00  0.00     0.034 A 
HETATM   29 CL   UNL     1      40.182  -7.570  18.552  1.00  0.00    -0.084 Cl
HETATM   30  C   UNL     1      41.373  -7.867  16.150  1.00  0.00     0.024 A 
HETATM   31  C   UNL     1      41.533  -7.579  14.792  1.00  0.00     0.010 A 
ENDBRANCH  24  25
ENDBRANCH  21  24
ENDBRANCH   3  20
TORSDOF 5
ENDMDL
