MODEL 1
REMARK VINA RESULT:      -9.2      0.000      0.000
REMARK  4 active torsions:
REMARK  status: ('A' for Active; 'I' for Inactive)
REMARK    1  A    between atoms: C_7  and  C_8 
REMARK    2  A    between atoms: C_8  and  C_9 
REMARK       I    between atoms: C_9  and  N_10 
REMARK    3  A    between atoms: N_10  and  C_11 
REMARK    4  A    between atoms: C_13  and  C_14 
ROOT
HETATM    1  C   UNL     1      42.080 -15.191   2.794  1.00  0.00     0.226 C 
HETATM    2  N   UNL     1      42.034 -14.086   1.955  1.00  0.00    -0.327 N 
HETATM    3  O   UNL     1      41.108 -15.785   3.258  1.00  0.00    -0.273 OA
HETATM    4  H   UNL     1      42.921 -13.734   1.617  1.00  0.00     0.169 HD
ENDROOT
BRANCH   1   5
HETATM    5  C   UNL     1      43.493 -15.662   3.089  1.00  0.00     0.144 C 
BRANCH   5   6
HETATM    6  C   UNL     1      43.626 -16.718   4.150  1.00  0.00    -0.015 A 
HETATM    7  C   UNL     1      43.632 -16.602   5.535  1.00  0.00     0.013 A 
HETATM    8  C   UNL     1      43.525 -15.424   6.441  1.00  0.00     0.068 C 
HETATM    9  N   UNL     1      43.731 -17.867   6.063  1.00  0.00    -0.359 N 
HETATM   10  H   UNL     1      43.742 -18.081   7.051  1.00  0.00     0.166 HD
HETATM   11  C   UNL     1      43.775 -18.811   5.069  1.00  0.00     0.043 A 
HETATM   12  C   UNL     1      43.717 -18.126   3.858  1.00  0.00     0.002 A 
HETATM   13  C   UNL     1      43.847 -20.208   5.157  1.00  0.00     0.033 A 
HETATM   14  C   UNL     1      43.735 -18.876   2.663  1.00  0.00     0.056 A 
HETATM   15  C   UNL     1      43.811 -20.267   2.741  1.00  0.00     0.117 A 
HETATM   16  C   UNL     1      43.863 -20.929   3.961  1.00  0.00     0.044 A 
HETATM   17  F   UNL     1      43.827 -20.983   1.608  1.00  0.00    -0.206 F 
ENDBRANCH   5   6
ENDBRANCH   1   5
BRANCH   2  18
HETATM   18  C   UNL     1      40.880 -13.428   1.474  1.00  0.00     0.035 A 
HETATM   19  C   UNL     1      40.425 -13.773   0.191  1.00  0.00     0.042 A 
HETATM   20  C   UNL     1      39.266 -13.192  -0.356  1.00  0.00    -0.021 A 
HETATM   21  C   UNL     1      38.583 -12.228   0.396  1.00  0.00     0.012 A 
HETATM   22  C   UNL     1      39.039 -11.864   1.663  1.00  0.00     0.003 A 
HETATM   23  C   UNL     1      40.178 -12.466   2.200  1.00  0.00     0.029 A 
BRANCH  20  24
HETATM   24  C   UNL     1      38.764 -13.580  -1.665  1.00  0.00     0.010 A 
HETATM   25  C   UNL     1      39.279 -14.490  -2.622  1.00  0.00     0.152 A 
HETATM   26  N   UNL     1      38.543 -14.551  -3.734  1.00  0.00    -0.187 NA
HETATM   27  N   UNL     1      37.556 -13.673  -3.503  1.00  0.00    -0.289 N 
HETATM   28  H   UNL     1      36.859 -13.533  -4.228  1.00  0.00     0.188 HD
HETATM   29  C   UNL     1      37.640 -13.066  -2.282  1.00  0.00     0.123 A 
ENDBRANCH  20  24
ENDBRANCH   2  18
TORSDOF 4
ENDMDL
MODEL 2
REMARK VINA RESULT:      -9.1      3.126      8.431
REMARK  4 active torsions:
REMARK  status: ('A' for Active; 'I' for Inactive)
REMARK    1  A    between atoms: C_7  and  C_8 
REMARK    2  A    between atoms: C_8  and  C_9 
REMARK       I    between atoms: C_9  and  N_10 
REMARK    3  A    between atoms: N_10  and  C_11 
REMARK    4  A    between atoms: C_13  and  C_14 
ROOT
HETATM    1  C   UNL     1      42.667 -14.050   2.374  1.00  0.00     0.226 C 
HETATM    2  N   UNL     1      42.262 -14.587   3.588  1.00  0.00    -0.327 N 
HETATM    3  O   UNL     1      43.709 -14.319   1.779  1.00  0.00    -0.273 OA
HETATM    4  H   UNL     1      41.353 -14.303   3.931  1.00  0.00     0.169 HD
ENDROOT
BRANCH   1   5
HETATM    5  C   UNL     1      41.660 -13.081   1.781  1.00  0.00     0.144 C 
BRANCH   5   6
HETATM    6  C   UNL     1      40.835 -13.606   0.641  1.00  0.00    -0.015 A 
HETATM    7  C   UNL     1      40.092 -14.776   0.536  1.00  0.00     0.013 A 
HETATM    8  C   UNL     1      39.862 -15.904   1.481  1.00  0.00     0.068 C 
HETATM    9  N   UNL     1      39.477 -14.775  -0.693  1.00  0.00    -0.359 N 
HETATM   10  H   UNL     1      38.860 -15.501  -1.031  1.00  0.00     0.166 HD
HETATM   11  C   UNL     1      39.780 -13.634  -1.393  1.00  0.00     0.043 A 
HETATM   12  C   UNL     1      40.634 -12.883  -0.588  1.00  0.00     0.002 A 
HETATM   13  C   UNL     1      39.353 -13.215  -2.660  1.00  0.00     0.033 A 
HETATM   14  C   UNL     1      41.092 -11.641  -1.077  1.00  0.00     0.056 A 
HETATM   15  C   UNL     1      40.674 -11.217  -2.339  1.00  0.00     0.117 A 
HETATM   16  C   UNL     1      39.819 -11.982  -3.121  1.00  0.00     0.044 A 
HETATM   17  F   UNL     1      41.106 -10.037  -2.805  1.00  0.00    -0.206 F 
ENDBRANCH   5   6
ENDBRANCH   1   5
BRANCH   2  18
HETATM   18  C   UNL     1      42.956 -15.532   4.377  1.00  0.00     0.035 A 
HETATM   19  C   UNL     1      43.044 -16.845   3.886  1.00  0.00     0.042 A 
HETATM   20  C   UNL     1      43.743 -17.844   4.588  1.00  0.00    -0.021 A 
HETATM   21  C   UNL     1      44.328 -17.513   5.816  1.00  0.00     0.012 A 
HETATM   22  C   UNL     1      44.229 -16.217   6.321  1.00  0.00     0.003 A 
HETATM   23  C   UNL     1      43.551 -15.232   5.602  1.00  0.00     0.029 A 
BRANCH  20  24
HETATM   24  C   UNL     1      43.878 -19.194   4.061  1.00  0.00     0.010 A 
HETATM   25  C   UNL     1      43.723 -19.693   2.744  1.00  0.00     0.152 A 
HETATM   26  N   UNL     1      43.897 -21.015   2.662  1.00  0.00    -0.187 NA
HETATM   27  N   UNL     1      44.153 -21.374   3.928  1.00  0.00    -0.289 N 
HETATM   28  H   UNL     1      44.313 -22.357   4.125  1.00  0.00     0.188 HD
HETATM   29  C   UNL     1      44.154 -20.325   4.803  1.00  0.00     0.123 A 
ENDBRANCH  20  24
ENDBRANCH   2  18
TORSDOF 4
ENDMDL
MODEL 3
REMARK VINA RESULT:      -9.1      1.989      3.033
REMARK  4 active torsions:
REMARK  status: ('A' for Active; 'I' for Inactive)
REMARK    1  A    between atoms: C_7  and  C_8 
REMARK    2  A    between atoms: C_8  and  C_9 
REMARK       I    between atoms: C_9  and  N_10 
REMARK    3  A    between atoms: N_10  and  C_11 
REMARK    4  A    between atoms: C_13  and  C_14 
ROOT
HETATM    1  C   UNL     1      42.062 -15.861   1.855  1.00  0.00     0.226 C 
HETATM    2  N   UNL     1      42.143 -14.611   1.258  1.00  0.00    -0.327 N 
HETATM    3  O   UNL     1      41.026 -16.467   2.123  1.00  0.00    -0.273 OA
HETATM    4  H   UNL     1      43.071 -14.261   1.057  1.00  0.00     0.169 HD
ENDROOT
BRANCH   1   5
HETATM    5  C   UNL     1      43.420 -16.478   2.140  1.00  0.00     0.144 C 
BRANCH   5   6
HETATM    6  C   UNL     1      43.507 -17.335   3.371  1.00  0.00    -0.015 A 
HETATM    7  C   UNL     1      43.691 -18.707   3.498  1.00  0.00     0.013 A 
HETATM    8  C   UNL     1      43.851 -19.793   2.492  1.00  0.00     0.068 C 
HETATM    9  N   UNL     1      43.750 -19.001   4.840  1.00  0.00    -0.359 N 
HETATM   10  H   UNL     1      43.894 -19.926   5.223  1.00  0.00     0.166 HD
HETATM   11  C   UNL     1      43.625 -17.864   5.597  1.00  0.00     0.043 A 
HETATM   12  C   UNL     1      43.466 -16.803   4.709  1.00  0.00     0.002 A 
HETATM   13  C   UNL     1      43.656 -17.701   6.989  1.00  0.00     0.033 A 
HETATM   14  C   UNL     1      43.325 -15.503   5.239  1.00  0.00     0.056 A 
HETATM   15  C   UNL     1      43.350 -15.332   6.624  1.00  0.00     0.117 A 
HETATM   16  C   UNL     1      43.515 -16.405   7.489  1.00  0.00     0.044 A 
HETATM   17  F   UNL     1      43.218 -14.098   7.130  1.00  0.00    -0.206 F 
ENDBRANCH   5   6
ENDBRANCH   1   5
BRANCH   2  18
HETATM   18  C   UNL     1      41.068 -13.791   0.846  1.00  0.00     0.035 A 
HETATM   19  C   UNL     1      40.426 -14.122  -0.358  1.00  0.00     0.042 A 
HETATM   20  C   UNL     1      39.325 -13.382  -0.828  1.00  0.00    -0.021 A 
HETATM   21  C   UNL     1      38.897 -12.275  -0.085  1.00  0.00     0.012 A 
HETATM   22  C   UNL     1      39.542 -11.927   1.101  1.00  0.00     0.003 A 
HETATM   23  C   UNL     1      40.617 -12.685   1.566  1.00  0.00     0.029 A 
BRANCH  20  24
HETATM   24  C   UNL     1      38.626 -13.749  -2.051  1.00  0.00     0.010 A 
HETATM   25  C   UNL     1      38.915 -14.742  -3.020  1.00  0.00     0.152 A 
HETATM   26  N   UNL     1      38.046 -14.751  -4.033  1.00  0.00    -0.187 NA
HETATM   27  N   UNL     1      37.200 -13.757  -3.728  1.00  0.00    -0.289 N 
HETATM   28  H   UNL     1      36.440 -13.558  -4.370  1.00  0.00     0.188 HD
HETATM   29  C   UNL     1      37.501 -13.126  -2.554  1.00  0.00     0.123 A 
ENDBRANCH  20  24
ENDBRANCH   2  18
TORSDOF 4
ENDMDL
MODEL 4
REMARK VINA RESULT:      -8.9      2.217      3.122
REMARK  4 active torsions:
REMARK  status: ('A' for Active; 'I' for Inactive)
REMARK    1  A    between atoms: C_7  and  C_8 
REMARK    2  A    between atoms: C_8  and  C_9 
REMARK       I    between atoms: C_9  and  N_10 
REMARK    3  A    between atoms: N_10  and  C_11 
REMARK    4  A    between atoms: C_13  and  C_14 
ROOT
HETATM    1  C   UNL     1      41.449 -15.381   1.236  1.00  0.00     0.226 C 
HETATM    2  N   UNL     1      41.374 -14.426   0.232  1.00  0.00    -0.327 N 
HETATM    3  O   UNL     1      40.496 -15.861   1.848  1.00  0.00    -0.273 OA
HETATM    4  H   UNL     1      42.245 -14.162  -0.211  1.00  0.00     0.169 HD
ENDROOT
BRANCH   1   5
HETATM    5  C   UNL     1      42.867 -15.845   1.519  1.00  0.00     0.144 C 
BRANCH   5   6
HETATM    6  C   UNL     1      43.150 -16.272   2.931  1.00  0.00    -0.015 A 
HETATM    7  C   UNL     1      43.119 -15.540   4.112  1.00  0.00     0.013 A 
HETATM    8  C   UNL     1      42.815 -14.110   4.397  1.00  0.00     0.068 C 
HETATM    9  N   UNL     1      43.408 -16.398   5.147  1.00  0.00    -0.359 N 
HETATM   10  H   UNL     1      43.439 -16.136   6.123  1.00  0.00     0.166 HD
HETATM   11  C   UNL     1      43.613 -17.673   4.684  1.00  0.00     0.043 A 
HETATM   12  C   UNL     1      43.465 -17.628   3.300  1.00  0.00     0.002 A 
HETATM   13  C   UNL     1      43.903 -18.850   5.387  1.00  0.00     0.033 A 
HETATM   14  C   UNL     1      43.618 -18.828   2.572  1.00  0.00     0.056 A 
HETATM   15  C   UNL     1      43.910 -20.004   3.263  1.00  0.00     0.117 A 
HETATM   16  C   UNL     1      44.049 -20.024   4.644  1.00  0.00     0.044 A 
HETATM   17  F   UNL     1      44.054 -21.145   2.575  1.00  0.00    -0.206 F 
ENDBRANCH   5   6
ENDBRANCH   1   5
BRANCH   2  18
HETATM   18  C   UNL     1      40.206 -13.817  -0.280  1.00  0.00     0.035 A 
HETATM   19  C   UNL     1      39.666 -12.742   0.445  1.00  0.00     0.042 A 
HETATM   20  C   UNL     1      38.524 -12.054  -0.007  1.00  0.00    -0.021 A 
HETATM   21  C   UNL     1      37.908 -12.486  -1.188  1.00  0.00     0.012 A 
HETATM   22  C   UNL     1      38.425 -13.566  -1.903  1.00  0.00     0.003 A 
HETATM   23  C   UNL     1      39.572 -14.223  -1.454  1.00  0.00     0.029 A 
BRANCH  20  24
HETATM   24  C   UNL     1      37.988 -10.910   0.714  1.00  0.00     0.010 A 
HETATM   25  C   UNL     1      38.578 -10.075   1.696  1.00  0.00     0.152 A 
HETATM   26  N   UNL     1      37.745  -9.138   2.154  1.00  0.00    -0.187 NA
HETATM   27  N   UNL     1      36.611  -9.371   1.477  1.00  0.00    -0.289 N 
HETATM   28  H   UNL     1      35.809  -8.779   1.665  1.00  0.00     0.188 HD
HETATM   29  C   UNL     1      36.703 -10.417   0.604  1.00  0.00     0.123 A 
ENDBRANCH  20  24
ENDBRANCH   2  18
TORSDOF 4
ENDMDL
MODEL 5
REMARK VINA RESULT:      -8.8      4.811      8.491
REMARK  4 active torsions:
REMARK  status: ('A' for Active; 'I' for Inactive)
REMARK    1  A    between atoms: C_7  and  C_8 
REMARK    2  A    between atoms: C_8  and  C_9 
REMARK       I    between atoms: C_9  and  N_10 
REMARK    3  A    between atoms: N_10  and  C_11 
REMARK    4  A    between atoms: C_13  and  C_14 
ROOT
HETATM    1  C   UNL     1      43.427 -14.210   6.105  1.00  0.00     0.226 C 
HETATM    2  N   UNL     1      43.393 -12.822   6.107  1.00  0.00    -0.327 N 
HETATM    3  O   UNL     1      44.215 -14.913   6.734  1.00  0.00    -0.273 OA
HETATM    4  H   UNL     1      42.653 -12.384   5.573  1.00  0.00     0.169 HD
ENDROOT
BRANCH   1   5
HETATM    5  C   UNL     1      42.339 -14.835   5.250  1.00  0.00     0.144 C 
BRANCH   5   6
HETATM    6  C   UNL     1      42.808 -15.745   4.150  1.00  0.00    -0.015 A 
HETATM    7  C   UNL     1      43.015 -15.488   2.800  1.00  0.00     0.013 A 
HETATM    8  C   UNL     1      42.840 -14.259   1.976  1.00  0.00     0.068 C 
HETATM    9  N   UNL     1      43.495 -16.638   2.221  1.00  0.00    -0.359 N 
HETATM   10  H   UNL     1      43.748 -16.732   1.246  1.00  0.00     0.166 HD
HETATM   11  C   UNL     1      43.625 -17.638   3.151  1.00  0.00     0.043 A 
HETATM   12  C   UNL     1      43.197 -17.115   4.369  1.00  0.00     0.002 A 
HETATM   13  C   UNL     1      44.097 -18.950   3.003  1.00  0.00     0.033 A 
HETATM   14  C   UNL     1      43.240 -17.948   5.507  1.00  0.00     0.056 A 
HETATM   15  C   UNL     1      43.705 -19.256   5.368  1.00  0.00     0.117 A 
HETATM   16  C   UNL     1      44.130 -19.755   4.144  1.00  0.00     0.044 A 
HETATM   17  F   UNL     1      43.748 -20.049   6.448  1.00  0.00    -0.206 F 
ENDBRANCH   5   6
ENDBRANCH   1   5
BRANCH   2  18
HETATM   18  C   UNL     1      44.247 -11.950   6.819  1.00  0.00     0.035 A 
HETATM   19  C   UNL     1      43.772 -11.427   8.032  1.00  0.00     0.042 A 
HETATM   20  C   UNL     1      44.566 -10.576   8.823  1.00  0.00    -0.021 A 
HETATM   21  C   UNL     1      45.840 -10.228   8.359  1.00  0.00     0.012 A 
HETATM   22  C   UNL     1      46.312 -10.727   7.145  1.00  0.00     0.003 A 
HETATM   23  C   UNL     1      45.521 -11.587   6.383  1.00  0.00     0.029 A 
BRANCH  20  24
HETATM   24  C   UNL     1      44.098 -10.069  10.105  1.00  0.00     0.010 A 
HETATM   25  C   UNL     1      43.582 -10.748  11.236  1.00  0.00     0.152 A 
HETATM   26  N   UNL     1      43.222  -9.922  12.221  1.00  0.00    -0.187 NA
HETATM   27  N   UNL     1      43.494  -8.707  11.725  1.00  0.00    -0.289 N 
HETATM   28  H   UNL     1      43.290  -7.896  12.301  1.00  0.00     0.188 HD
HETATM   29  C   UNL     1      44.019  -8.738  10.465  1.00  0.00     0.123 A 
ENDBRANCH  20  24
ENDBRANCH   2  18
TORSDOF 4
ENDMDL
MODEL 6
REMARK VINA RESULT:      -8.7      2.626      3.302
REMARK  4 active torsions:
REMARK  status: ('A' for Active; 'I' for Inactive)
REMARK    1  A    between atoms: C_7  and  C_8 
REMARK    2  A    between atoms: C_8  and  C_9 
REMARK       I    between atoms: C_9  and  N_10 
REMARK    3  A    between atoms: N_10  and  C_11 
REMARK    4  A    between atoms: C_13  and  C_14 
ROOT
HETATM    1  C   UNL     1      40.851 -15.139   1.343  1.00  0.00     0.226 C 
HETATM    2  N   UNL     1      39.728 -14.727   0.639  1.00  0.00    -0.327 N 
HETATM    3  O   UNL     1      42.018 -15.020   0.973  1.00  0.00    -0.273 OA
HETATM    4  H   UNL     1      38.834 -14.850   1.096  1.00  0.00     0.169 HD
ENDROOT
BRANCH   1   5
HETATM    5  C   UNL     1      40.522 -15.747   2.694  1.00  0.00     0.144 C 
BRANCH   5   6
HETATM    6  C   UNL     1      41.698 -16.105   3.558  1.00  0.00    -0.015 A 
HETATM    7  C   UNL     1      42.184 -15.496   4.709  1.00  0.00     0.013 A 
HETATM    8  C   UNL     1      41.737 -14.298   5.472  1.00  0.00     0.068 C 
HETATM    9  N   UNL     1      43.256 -16.232   5.155  1.00  0.00    -0.359 N 
HETATM   10  H   UNL     1      43.794 -16.025   5.986  1.00  0.00     0.166 HD
HETATM   11  C   UNL     1      43.480 -17.315   4.342  1.00  0.00     0.043 A 
HETATM   12  C   UNL     1      42.526 -17.262   3.328  1.00  0.00     0.002 A 
HETATM   13  C   UNL     1      44.440 -18.331   4.439  1.00  0.00     0.033 A 
HETATM   14  C   UNL     1      42.530 -18.281   2.352  1.00  0.00     0.056 A 
HETATM   15  C   UNL     1      43.485 -19.295   2.439  1.00  0.00     0.117 A 
HETATM   16  C   UNL     1      44.423 -19.328   3.462  1.00  0.00     0.044 A 
HETATM   17  F   UNL     1      43.491 -20.265   1.514  1.00  0.00    -0.206 F 
ENDBRANCH   5   6
ENDBRANCH   1   5
BRANCH   2  18
HETATM   18  C   UNL     1      39.698 -14.103  -0.628  1.00  0.00     0.035 A 
HETATM   19  C   UNL     1      40.235 -12.809  -0.726  1.00  0.00     0.042 A 
HETATM   20  C   UNL     1      40.276 -12.124  -1.954  1.00  0.00    -0.021 A 
HETATM   21  C   UNL     1      39.736 -12.747  -3.086  1.00  0.00     0.012 A 
HETATM   22  C   UNL     1      39.182 -14.023  -2.994  1.00  0.00     0.003 A 
HETATM   23  C   UNL     1      39.168 -14.699  -1.773  1.00  0.00     0.029 A 
BRANCH  20  24
HETATM   24  C   UNL     1      40.875 -10.802  -2.071  1.00  0.00     0.010 A 
HETATM   25  C   UNL     1      41.637 -10.047  -1.145  1.00  0.00     0.152 A 
HETATM   26  N   UNL     1      41.984  -8.846  -1.613  1.00  0.00    -0.187 NA
HETATM   27  N   UNL     1      41.439  -8.817  -2.837  1.00  0.00    -0.289 N 
HETATM   28  H   UNL     1      41.561  -7.980  -3.398  1.00  0.00     0.188 HD
HETATM   29  C   UNL     1      40.766  -9.961  -3.160  1.00  0.00     0.123 A 
ENDBRANCH  20  24
ENDBRANCH   2  18
TORSDOF 4
ENDMDL
MODEL 7
REMARK VINA RESULT:      -8.7      2.529      8.300
REMARK  4 active torsions:
REMARK  status: ('A' for Active; 'I' for Inactive)
REMARK    1  A    between atoms: C_7  and  C_8 
REMARK    2  A    between atoms: C_8  and  C_9 
REMARK       I    between atoms: C_9  and  N_10 
REMARK    3  A    between atoms: N_10  and  C_11 
REMARK    4  A    between atoms: C_13  and  C_14 
ROOT
HETATM    1  C   UNL     1      41.548 -13.972   2.156  1.00  0.00     0.226 C 
HETATM    2  N   UNL     1      42.751 -14.622   2.391  1.00  0.00    -0.327 N 
HETATM    3  O   UNL     1      40.525 -14.084   2.829  1.00  0.00    -0.273 OA
HETATM    4  H   UNL     1      43.521 -14.391   1.775  1.00  0.00     0.169 HD
ENDROOT
BRANCH   1   5
HETATM    5  C   UNL     1      41.596 -13.033   0.964  1.00  0.00     0.144 C 
BRANCH   5   6
HETATM    6  C   UNL     1      40.276 -12.474   0.514  1.00  0.00    -0.015 A 
HETATM    7  C   UNL     1      39.578 -11.356   0.954  1.00  0.00     0.013 A 
HETATM    8  C   UNL     1      39.869 -10.344   2.008  1.00  0.00     0.068 C 
HETATM    9  N   UNL     1      38.440 -11.242   0.191  1.00  0.00    -0.359 N 
HETATM   10  H   UNL     1      37.753 -10.506   0.284  1.00  0.00     0.166 HD
HETATM   11  C   UNL     1      38.377 -12.241  -0.747  1.00  0.00     0.043 A 
HETATM   12  C   UNL     1      39.508 -13.034  -0.569  1.00  0.00     0.002 A 
HETATM   13  C   UNL     1      37.416 -12.487  -1.738  1.00  0.00     0.033 A 
HETATM   14  C   UNL     1      39.691 -14.141  -1.426  1.00  0.00     0.056 A 
HETATM   15  C   UNL     1      38.737 -14.395  -2.412  1.00  0.00     0.117 A 
HETATM   16  C   UNL     1      37.620 -13.587  -2.574  1.00  0.00     0.044 A 
HETATM   17  F   UNL     1      38.909 -15.444  -3.229  1.00  0.00    -0.206 F 
ENDBRANCH   5   6
ENDBRANCH   1   5
BRANCH   2  18
HETATM   18  C   UNL     1      43.039 -15.533   3.432  1.00  0.00     0.035 A 
HETATM   19  C   UNL     1      43.224 -16.880   3.080  1.00  0.00     0.042 A 
HETATM   20  C   UNL     1      43.546 -17.852   4.045  1.00  0.00    -0.021 A 
HETATM   21  C   UNL     1      43.648 -17.455   5.384  1.00  0.00     0.012 A 
HETATM   22  C   UNL     1      43.446 -16.124   5.746  1.00  0.00     0.003 A 
HETATM   23  C   UNL     1      43.149 -15.168   4.773  1.00  0.00     0.029 A 
BRANCH  20  24
HETATM   24  C   UNL     1      43.785 -19.240   3.680  1.00  0.00     0.010 A 
HETATM   25  C   UNL     1      43.732 -19.888   2.420  1.00  0.00     0.152 A 
HETATM   26  N   UNL     1      43.983 -21.197   2.496  1.00  0.00    -0.187 NA
HETATM   27  N   UNL     1      44.189 -21.400   3.805  1.00  0.00    -0.289 N 
HETATM   28  H   UNL     1      44.392 -22.344   4.118  1.00  0.00     0.188 HD
HETATM   29  C   UNL     1      44.083 -20.265   4.556  1.00  0.00     0.123 A 
ENDBRANCH  20  24
ENDBRANCH   2  18
TORSDOF 4
ENDMDL
MODEL 8
REMARK VINA RESULT:      -8.5      3.845      6.109
REMARK  4 active torsions:
REMARK  status: ('A' for Active; 'I' for Inactive)
REMARK    1  A    between atoms: C_7  and  C_8 
REMARK    2  A    between atoms: C_8  and  C_9 
REMARK       I    between atoms: C_9  and  N_10 
REMARK    3  A    between atoms: N_10  and  C_11 
REMARK    4  A    between atoms: C_13  and  C_14 
ROOT
HETATM    1  C   UNL     1      42.393 -14.494   3.453  1.00  0.00     0.226 C 
HETATM    2  N   UNL     1      43.095 -13.297   3.468  1.00  0.00    -0.327 N 
HETATM    3  O   UNL     1      41.229 -14.652   3.818  1.00  0.00    -0.273 OA
HETATM    4  H   UNL     1      44.034 -13.315   3.090  1.00  0.00     0.169 HD
ENDROOT
BRANCH   1   5
HETATM    5  C   UNL     1      43.196 -15.654   2.891  1.00  0.00     0.144 C 
BRANCH   5   6
HETATM    6  C   UNL     1      43.566 -16.732   3.870  1.00  0.00    -0.015 A 
HETATM    7  C   UNL     1      43.849 -16.652   5.229  1.00  0.00     0.013 A 
HETATM    8  C   UNL     1      43.898 -15.503   6.175  1.00  0.00     0.068 C 
HETATM    9  N   UNL     1      44.083 -17.927   5.686  1.00  0.00    -0.359 N 
HETATM   10  H   UNL     1      44.298 -18.166   6.645  1.00  0.00     0.166 HD
HETATM   11  C   UNL     1      43.948 -18.843   4.674  1.00  0.00     0.043 A 
HETATM   12  C   UNL     1      43.630 -18.128   3.522  1.00  0.00     0.002 A 
HETATM   13  C   UNL     1      44.070 -20.239   4.702  1.00  0.00     0.033 A 
HETATM   14  C   UNL     1      43.426 -18.847   2.324  1.00  0.00     0.056 A 
HETATM   15  C   UNL     1      43.549 -20.236   2.342  1.00  0.00     0.117 A 
HETATM   16  C   UNL     1      43.862 -20.928   3.504  1.00  0.00     0.044 A 
HETATM   17  F   UNL     1      43.353 -20.921   1.206  1.00  0.00    -0.206 F 
ENDBRANCH   5   6
ENDBRANCH   1   5
BRANCH   2  18
HETATM   18  C   UNL     1      42.624 -12.037   3.901  1.00  0.00     0.035 A 
HETATM   19  C   UNL     1      42.752 -11.733   5.266  1.00  0.00     0.042 A 
HETATM   20  C   UNL     1      42.340 -10.490   5.781  1.00  0.00    -0.021 A 
HETATM   21  C   UNL     1      41.762  -9.562   4.906  1.00  0.00     0.012 A 
HETATM   22  C   UNL     1      41.611  -9.864   3.553  1.00  0.00     0.003 A 
HETATM   23  C   UNL     1      42.046 -11.092   3.053  1.00  0.00     0.029 A 
BRANCH  20  24
HETATM   24  C   UNL     1      42.514 -10.151   7.186  1.00  0.00     0.010 A 
HETATM   25  C   UNL     1      43.604 -10.376   8.064  1.00  0.00     0.152 A 
HETATM   26  N   UNL     1      43.370  -9.945   9.306  1.00  0.00    -0.187 NA
HETATM   27  N   UNL     1      42.126  -9.450   9.236  1.00  0.00    -0.289 N 
HETATM   28  H   UNL     1      41.714  -9.065  10.080  1.00  0.00     0.188 HD
HETATM   29  C   UNL     1      41.570  -9.548   7.993  1.00  0.00     0.123 A 
ENDBRANCH  20  24
ENDBRANCH   2  18
TORSDOF 4
ENDMDL
MODEL 9
REMARK VINA RESULT:      -8.5      2.946      7.342
REMARK  4 active torsions:
REMARK  status: ('A' for Active; 'I' for Inactive)
REMARK    1  A    between atoms: C_7  and  C_8 
REMARK    2  A    between atoms: C_8  and  C_9 
REMARK       I    between atoms: C_9  and  N_10 
REMARK    3  A    between atoms: N_10  and  C_11 
REMARK    4  A    between atoms: C_13  and  C_14 
ROOT
HETATM    1  C   UNL     1      40.650 -14.212   5.498  1.00  0.00     0.226 C 
HETATM    2  N   UNL     1      41.883 -14.402   4.889  1.00  0.00    -0.327 N 
HETATM    3  O   UNL     1      40.163 -14.920   6.377  1.00  0.00    -0.273 OA
HETATM    4  H   UNL     1      42.169 -13.706   4.212  1.00  0.00     0.169 HD
ENDROOT
BRANCH   1   5
HETATM    5  C   UNL     1      39.919 -12.978   4.999  1.00  0.00     0.144 C 
BRANCH   5   6
HETATM    6  C   UNL     1      40.282 -12.513   3.617  1.00  0.00    -0.015 A 
HETATM    7  C   UNL     1      40.791 -11.294   3.187  1.00  0.00     0.013 A 
HETATM    8  C   UNL     1      41.140 -10.041   3.913  1.00  0.00     0.068 C 
HETATM    9  N   UNL     1      41.000 -11.380   1.831  1.00  0.00    -0.359 N 
HETATM   10  H   UNL     1      41.381 -10.640   1.257  1.00  0.00     0.166 HD
HETATM   11  C   UNL     1      40.658 -12.622   1.360  1.00  0.00     0.043 A 
HETATM   12  C   UNL     1      40.199 -13.355   2.452  1.00  0.00     0.002 A 
HETATM   13  C   UNL     1      40.736 -13.147   0.062  1.00  0.00     0.033 A 
HETATM   14  C   UNL     1      39.788 -14.688   2.237  1.00  0.00     0.056 A 
HETATM   15  C   UNL     1      39.858 -15.217   0.948  1.00  0.00     0.117 A 
HETATM   16  C   UNL     1      40.325 -14.468  -0.124  1.00  0.00     0.044 A 
HETATM   17  F   UNL     1      39.471 -16.483   0.742  1.00  0.00    -0.206 F 
ENDBRANCH   5   6
ENDBRANCH   1   5
BRANCH   2  18
HETATM   18  C   UNL     1      42.812 -15.435   5.149  1.00  0.00     0.035 A 
HETATM   19  C   UNL     1      42.749 -16.580   4.339  1.00  0.00     0.042 A 
HETATM   20  C   UNL     1      43.655 -17.644   4.504  1.00  0.00    -0.021 A 
HETATM   21  C   UNL     1      44.611 -17.556   5.524  1.00  0.00     0.012 A 
HETATM   22  C   UNL     1      44.668 -16.431   6.346  1.00  0.00     0.003 A 
HETATM   23  C   UNL     1      43.776 -15.374   6.154  1.00  0.00     0.029 A 
BRANCH  20  24
HETATM   24  C   UNL     1      43.625 -18.813   3.638  1.00  0.00     0.010 A 
HETATM   25  C   UNL     1      43.997 -20.158   3.885  1.00  0.00     0.152 A 
HETATM   26  N   UNL     1      43.856 -20.944   2.815  1.00  0.00    -0.187 NA
HETATM   27  N   UNL     1      43.403 -20.107   1.871  1.00  0.00    -0.289 N 
HETATM   28  H   UNL     1      43.226 -20.479   0.943  1.00  0.00     0.188 HD
HETATM   29  C   UNL     1      43.247 -18.823   2.310  1.00  0.00     0.123 A 
ENDBRANCH  20  24
ENDBRANCH   2  18
TORSDOF 4
ENDMDL
MODEL 10
REMARK VINA RESULT:      -8.2      5.635      8.675
REMARK  4 active torsions:
REMARK  status: ('A' for Active; 'I' for Inactive)
REMARK    1  A    between atoms: C_7  and  C_8 
REMARK    2  A    between atoms: C_8  and  C_9 
REMARK       I    between atoms: C_9  and  N_10 
REMARK    3  A    between atoms: N_10  and  C_11 
REMARK    4  A    between atoms: C_13  and  C_14 
ROOT
HETATM    1  C   UNL     1      42.490 -12.432   6.065  1.00  0.00     0.226 C 
HETATM    2  N   UNL     1      43.131 -12.272   7.286  1.00  0.00    -0.327 N 
HETATM    3  O   UNL     1      42.566 -11.667   5.105  1.00  0.00    -0.273 OA
HETATM    4  H   UNL     1      43.009 -13.013   7.965  1.00  0.00     0.169 HD
ENDROOT
BRANCH   1   5
HETATM    5  C   UNL     1      41.671 -13.707   5.980  1.00  0.00     0.144 C 
BRANCH   5   6
HETATM    6  C   UNL     1      42.445 -14.970   5.729  1.00  0.00    -0.015 A 
HETATM    7  C   UNL     1      43.060 -15.838   6.623  1.00  0.00     0.013 A 
HETATM    8  C   UNL     1      43.181 -15.827   8.108  1.00  0.00     0.068 C 
HETATM    9  N   UNL     1      43.598 -16.877   5.900  1.00  0.00    -0.359 N 
HETATM   10  H   UNL     1      44.091 -17.664   6.299  1.00  0.00     0.166 HD
HETATM   11  C   UNL     1      43.343 -16.725   4.561  1.00  0.00     0.043 A 
HETATM   12  C   UNL     1      42.628 -15.538   4.418  1.00  0.00     0.002 A 
HETATM   13  C   UNL     1      43.679 -17.553   3.481  1.00  0.00     0.033 A 
HETATM   14  C   UNL     1      42.227 -15.151   3.121  1.00  0.00     0.056 A 
HETATM   15  C   UNL     1      42.561 -15.967   2.040  1.00  0.00     0.117 A 
HETATM   16  C   UNL     1      43.271 -17.149   2.208  1.00  0.00     0.044 A 
HETATM   17  F   UNL     1      42.181 -15.603   0.807  1.00  0.00    -0.206 F 
ENDBRANCH   5   6
ENDBRANCH   1   5
BRANCH   2  18
HETATM   18  C   UNL     1      43.983 -11.212   7.669  1.00  0.00     0.035 A 
HETATM   19  C   UNL     1      43.405 -10.131   8.353  1.00  0.00     0.042 A 
HETATM   20  C   UNL     1      44.183  -9.047   8.802  1.00  0.00    -0.021 A 
HETATM   21  C   UNL     1      45.554  -9.048   8.521  1.00  0.00     0.012 A 
HETATM   22  C   UNL     1      46.134 -10.107   7.824  1.00  0.00     0.003 A 
HETATM   23  C   UNL     1      45.353 -11.186   7.406  1.00  0.00     0.029 A 
BRANCH  20  24
HETATM   24  C   UNL     1      43.596  -7.947   9.553  1.00  0.00     0.010 A 
HETATM   25  C   UNL     1      43.383  -6.593   9.196  1.00  0.00     0.152 A 
HETATM   26  N   UNL     1      42.843  -5.872  10.181  1.00  0.00    -0.187 NA
HETATM   27  N   UNL     1      42.716  -6.756  11.181  1.00  0.00    -0.289 N 
HETATM   28  H   UNL     1      42.329  -6.432  12.062  1.00  0.00     0.188 HD
HETATM   29  C   UNL     1      43.150  -8.010  10.858  1.00  0.00     0.123 A 
ENDBRANCH  20  24
ENDBRANCH   2  18
TORSDOF 4
ENDMDL
