MODEL 1
REMARK VINA RESULT:      -7.8      0.000      0.000
REMARK  6 active torsions:
REMARK  status: ('A' for Active; 'I' for Inactive)
REMARK    1  A    between atoms: C_3  and  N_4 
REMARK    2  A    between atoms: N_4  and  C_5 
REMARK    3  A    between atoms: C_5  and  C_6 
REMARK    4  A    between atoms: N_8  and  C_10 
REMARK    5  A    between atoms: C_10  and  C_11 
REMARK    6  A    between atoms: C_12  and  O_13 
ROOT
HETATM    1  C   UNL     1      43.097 -15.543   5.911  1.00  0.00     0.026 C 
HETATM    2  C   UNL     1      43.638 -14.533   6.917  1.00  0.00     0.241 C 
HETATM    3  N   UNL     1      42.776 -13.312   6.706  1.00  0.00    -0.067 N 
HETATM    4  H   UNL     1      42.486 -12.953   7.637  1.00  0.00     0.280 HD
HETATM    5  C   UNL     1      41.539 -13.732   5.948  1.00  0.00     0.235 C 
HETATM    6  C   UNL     1      41.599 -15.252   5.950  1.00  0.00     0.035 C 
ENDROOT
BRANCH   3   7
HETATM    7  C   UNL     1      43.481 -12.121   6.099  1.00  0.00     0.276 C 
BRANCH   7   8
HETATM    8  C   UNL     1      44.269 -11.325   7.102  1.00  0.00     0.002 A 
HETATM    9  C   UNL     1      45.556 -10.855   6.807  1.00  0.00     0.073 A 
HETATM   10  C   UNL     1      46.302 -10.141   7.742  1.00  0.00     0.038 A 
HETATM   11  C   UNL     1      45.759  -9.884   9.001  1.00  0.00     0.022 A 
HETATM   12  C   UNL     1      44.482 -10.347   9.313  1.00  0.00     0.011 A 
HETATM   13 BR   UNL     1      43.742  -9.991  11.014  1.00  0.00    -0.051 Br
HETATM   14  C   UNL     1      43.740 -11.069   8.377  1.00  0.00     0.030 A 
BRANCH   9  15
HETATM   15  O   UNL     1      46.060 -11.093   5.555  1.00  0.00    -0.360 OA
HETATM   16  H   UNL     1      45.331 -11.459   5.010  1.00  0.00     0.217 HD
ENDBRANCH   9  15
ENDBRANCH   7   8
ENDBRANCH   3   7
BRANCH   1  17
HETATM   17  C   UNL     1      43.471 -16.994   6.243  1.00  0.00     0.100 C 
BRANCH  17  18
HETATM   18  N   UNL     1      44.433 -17.484   5.260  1.00  0.00    -0.279 NA
HETATM   19  H   UNL     1      45.338 -17.719   5.679  1.00  0.00     0.129 HD
BRANCH  18  20
HETATM   20  C   UNL     1      44.114 -18.448   4.302  1.00  0.00     0.079 A 
HETATM   21  C   UNL     1      43.538 -18.044   3.088  1.00  0.00     0.042 A 
HETATM   22  C   UNL     1      43.175 -18.987   2.129  1.00  0.00     0.005 A 
HETATM   23  C   UNL     1      43.365 -20.334   2.395  1.00  0.00     0.017 A 
HETATM   24  C   UNL     1      43.900 -20.704   3.619  1.00  0.00     0.089 A 
HETATM   25  N   UNL     1      44.243 -19.768   4.520  1.00  0.00    -0.357 N 
HETATM   26  H   UNL     1      44.602 -20.082   5.413  1.00  0.00     0.166 HD
ENDBRANCH  18  20
ENDBRANCH  17  18
ENDBRANCH   1  17
TORSDOF 6
ENDMDL
MODEL 2
REMARK VINA RESULT:      -7.5      5.847      7.544
REMARK  6 active torsions:
REMARK  status: ('A' for Active; 'I' for Inactive)
REMARK    1  A    between atoms: C_3  and  N_4 
REMARK    2  A    between atoms: N_4  and  C_5 
REMARK    3  A    between atoms: C_5  and  C_6 
REMARK    4  A    between atoms: N_8  and  C_10 
REMARK    5  A    between atoms: C_10  and  C_11 
REMARK    6  A    between atoms: C_12  and  O_13 
ROOT
HETATM    1  C   UNL     1      41.917 -15.325   3.751  1.00  0.00     0.026 C 
HETATM    2  C   UNL     1      41.004 -15.776   2.616  1.00  0.00     0.241 C 
HETATM    3  N   UNL     1      41.266 -14.774   1.518  1.00  0.00    -0.067 N 
HETATM    4  H   UNL     1      41.381 -15.292   0.625  1.00  0.00     0.280 HD
HETATM    5  C   UNL     1      42.560 -14.060   1.829  1.00  0.00     0.235 C 
HETATM    6  C   UNL     1      43.150 -14.846   2.990  1.00  0.00     0.035 C 
ENDROOT
BRANCH   3   7
HETATM    7  C   UNL     1      40.119 -13.839   1.211  1.00  0.00     0.276 C 
BRANCH   7   8
HETATM    8  C   UNL     1      39.968 -13.549  -0.257  1.00  0.00     0.002 A 
HETATM    9  C   UNL     1      39.462 -14.513  -1.140  1.00  0.00     0.073 A 
HETATM   10  C   UNL     1      39.346 -14.260  -2.505  1.00  0.00     0.038 A 
HETATM   11  C   UNL     1      39.740 -13.020  -3.008  1.00  0.00     0.022 A 
HETATM   12  C   UNL     1      40.249 -12.051  -2.145  1.00  0.00     0.011 A 
HETATM   13 BR   UNL     1      40.772 -10.368  -2.825  1.00  0.00    -0.051 Br
HETATM   14  C   UNL     1      40.371 -12.311  -0.780  1.00  0.00     0.030 A 
BRANCH   9  15
HETATM   15  O   UNL     1      39.054 -15.714  -0.622  1.00  0.00    -0.360 OA
HETATM   16  H   UNL     1      39.375 -15.759   0.304  1.00  0.00     0.217 HD
ENDBRANCH   9  15
ENDBRANCH   7   8
ENDBRANCH   3   7
BRANCH   1  17
HETATM   17  C   UNL     1      42.195 -16.426   4.784  1.00  0.00     0.100 C 
BRANCH  17  18
HETATM   18  N   UNL     1      43.512 -17.004   4.533  1.00  0.00    -0.279 NA
HETATM   19  H   UNL     1      44.178 -16.805   5.285  1.00  0.00     0.129 HD
BRANCH  18  20
HETATM   20  C   UNL     1      43.694 -18.320   4.105  1.00  0.00     0.079 A 
HETATM   21  C   UNL     1      43.455 -18.644   2.761  1.00  0.00     0.042 A 
HETATM   22  C   UNL     1      43.592 -19.956   2.314  1.00  0.00     0.005 A 
HETATM   23  C   UNL     1      43.942 -20.948   3.217  1.00  0.00     0.017 A 
HETATM   24  C   UNL     1      44.133 -20.604   4.546  1.00  0.00     0.089 A 
HETATM   25  N   UNL     1      43.996 -19.327   4.943  1.00  0.00    -0.357 N 
HETATM   26  H   UNL     1      44.115 -19.124   5.928  1.00  0.00     0.166 HD
ENDBRANCH  18  20
ENDBRANCH  17  18
ENDBRANCH   1  17
TORSDOF 6
ENDMDL
MODEL 3
REMARK VINA RESULT:      -7.5      6.077      8.179
REMARK  6 active torsions:
REMARK  status: ('A' for Active; 'I' for Inactive)
REMARK    1  A    between atoms: C_3  and  N_4 
REMARK    2  A    between atoms: N_4  and  C_5 
REMARK    3  A    between atoms: C_5  and  C_6 
REMARK    4  A    between atoms: N_8  and  C_10 
REMARK    5  A    between atoms: C_10  and  C_11 
REMARK    6  A    between atoms: C_12  and  O_13 
ROOT
HETATM    1  C   UNL     1      40.862 -12.877   1.918  1.00  0.00     0.026 C 
HETATM    2  C   UNL     1      41.624 -14.122   1.478  1.00  0.00     0.241 C 
HETATM    3  N   UNL     1      41.707 -14.960   2.731  1.00  0.00    -0.067 N 
HETATM    4  H   UNL     1      41.464 -15.939   2.484  1.00  0.00     0.280 HD
HETATM    5  C   UNL     1      40.683 -14.443   3.713  1.00  0.00     0.235 C 
HETATM    6  C   UNL     1      39.852 -13.460   2.904  1.00  0.00     0.035 C 
ENDROOT
BRANCH   3   7
HETATM    7  C   UNL     1      43.091 -15.103   3.321  1.00  0.00     0.276 C 
BRANCH   7   8
HETATM    8  C   UNL     1      43.414 -16.511   3.740  1.00  0.00     0.002 A 
HETATM    9  C   UNL     1      43.815 -16.804   5.051  1.00  0.00     0.073 A 
HETATM   10  C   UNL     1      44.142 -18.102   5.438  1.00  0.00     0.038 A 
HETATM   11  C   UNL     1      44.068 -19.135   4.504  1.00  0.00     0.022 A 
HETATM   12  C   UNL     1      43.675 -18.861   3.196  1.00  0.00     0.011 A 
HETATM   13 BR   UNL     1      43.564 -20.262   1.933  1.00  0.00    -0.051 Br
HETATM   14  C   UNL     1      43.355 -17.559   2.809  1.00  0.00     0.030 A 
BRANCH   9  15
HETATM   15  O   UNL     1      43.854 -15.780   5.960  1.00  0.00    -0.360 OA
HETATM   16  H   UNL     1      44.362 -15.045   5.554  1.00  0.00     0.217 HD
ENDBRANCH   9  15
ENDBRANCH   7   8
ENDBRANCH   3   7
BRANCH   1  17
HETATM   17  C   UNL     1      40.236 -12.101   0.751  1.00  0.00     0.100 C 
BRANCH  17  18
HETATM   18  N   UNL     1      38.961 -12.713   0.390  1.00  0.00    -0.279 NA
HETATM   19  H   UNL     1      38.158 -12.139   0.663  1.00  0.00     0.129 HD
BRANCH  18  20
HETATM   20  C   UNL     1      38.714 -13.266  -0.868  1.00  0.00     0.079 A 
HETATM   21  C   UNL     1      39.732 -13.983  -1.515  1.00  0.00     0.042 A 
HETATM   22  C   UNL     1      39.527 -14.513  -2.786  1.00  0.00     0.005 A 
HETATM   23  C   UNL     1      38.312 -14.304  -3.421  1.00  0.00     0.017 A 
HETATM   24  C   UNL     1      37.340 -13.559  -2.773  1.00  0.00     0.089 A 
HETATM   25  N   UNL     1      37.570 -13.065  -1.544  1.00  0.00    -0.357 N 
HETATM   26  H   UNL     1      36.844 -12.501  -1.119  1.00  0.00     0.166 HD
ENDBRANCH  18  20
ENDBRANCH  17  18
ENDBRANCH   1  17
TORSDOF 6
ENDMDL
MODEL 4
REMARK VINA RESULT:      -7.5      5.462      7.816
REMARK  6 active torsions:
REMARK  status: ('A' for Active; 'I' for Inactive)
REMARK    1  A    between atoms: C_3  and  N_4 
REMARK    2  A    between atoms: N_4  and  C_5 
REMARK    3  A    between atoms: C_5  and  C_6 
REMARK    4  A    between atoms: N_8  and  C_10 
REMARK    5  A    between atoms: C_10  and  C_11 
REMARK    6  A    between atoms: C_12  and  O_13 
ROOT
HETATM    1  C   UNL     1      40.815 -14.365   3.290  1.00  0.00     0.026 C 
HETATM    2  C   UNL     1      41.074 -15.787   3.778  1.00  0.00     0.241 C 
HETATM    3  N   UNL     1      41.915 -15.599   5.018  1.00  0.00    -0.067 N 
HETATM    4  H   UNL     1      41.537 -16.215   5.763  1.00  0.00     0.280 HD
HETATM    5  C   UNL     1      41.779 -14.163   5.467  1.00  0.00     0.235 C 
HETATM    6  C   UNL     1      40.656 -13.607   4.606  1.00  0.00     0.035 C 
ENDROOT
BRANCH   3   7
HETATM    7  C   UNL     1      43.348 -16.063   4.901  1.00  0.00     0.276 C 
BRANCH   7   8
HETATM    8  C   UNL     1      43.487 -17.560   4.886  1.00  0.00     0.002 A 
HETATM    9  C   UNL     1      43.487 -18.302   6.075  1.00  0.00     0.073 A 
HETATM   10  C   UNL     1      43.644 -19.686   6.068  1.00  0.00     0.038 A 
HETATM   11  C   UNL     1      43.802 -20.353   4.853  1.00  0.00     0.022 A 
HETATM   12  C   UNL     1      43.807 -19.630   3.662  1.00  0.00     0.011 A 
HETATM   13 BR   UNL     1      44.010 -20.534   2.015  1.00  0.00    -0.051 Br
HETATM   14  C   UNL     1      43.658 -18.243   3.672  1.00  0.00     0.030 A 
BRANCH   9  15
HETATM   15  O   UNL     1      43.302 -17.632   7.256  1.00  0.00    -0.360 OA
HETATM   16  H   UNL     1      42.530 -17.038   7.139  1.00  0.00     0.217 HD
ENDBRANCH   9  15
ENDBRANCH   7   8
ENDBRANCH   3   7
BRANCH   1  17
HETATM   17  C   UNL     1      39.612 -14.255   2.343  1.00  0.00     0.100 C 
BRANCH  17  18
HETATM   18  N   UNL     1      39.916 -14.942   1.091  1.00  0.00    -0.279 NA
HETATM   19  H   UNL     1      39.350 -15.786   0.959  1.00  0.00     0.129 HD
BRANCH  18  20
HETATM   20  C   UNL     1      40.030 -14.277  -0.131  1.00  0.00     0.079 A 
HETATM   21  C   UNL     1      39.407 -14.818  -1.267  1.00  0.00     0.042 A 
HETATM   22  C   UNL     1      39.535 -14.196  -2.507  1.00  0.00     0.005 A 
HETATM   23  C   UNL     1      40.306 -13.050  -2.615  1.00  0.00     0.017 A 
HETATM   24  C   UNL     1      40.940 -12.562  -1.484  1.00  0.00     0.089 A 
HETATM   25  N   UNL     1      40.793 -13.185  -0.301  1.00  0.00    -0.357 N 
HETATM   26  H   UNL     1      41.298 -12.813   0.493  1.00  0.00     0.166 HD
ENDBRANCH  18  20
ENDBRANCH  17  18
ENDBRANCH   1  17
TORSDOF 6
ENDMDL
MODEL 5
REMARK VINA RESULT:      -7.5      3.669      8.730
REMARK  6 active torsions:
REMARK  status: ('A' for Active; 'I' for Inactive)
REMARK    1  A    between atoms: C_3  and  N_4 
REMARK    2  A    between atoms: N_4  and  C_5 
REMARK    3  A    between atoms: C_5  and  C_6 
REMARK    4  A    between atoms: N_8  and  C_10 
REMARK    5  A    between atoms: C_10  and  C_11 
REMARK    6  A    between atoms: C_12  and  O_13 
ROOT
HETATM    1  C   UNL     1      43.397 -11.538   6.919  1.00  0.00     0.026 C 
HETATM    2  C   UNL     1      43.862 -12.989   6.860  1.00  0.00     0.241 C 
HETATM    3  N   UNL     1      43.320 -13.492   5.543  1.00  0.00    -0.067 N 
HETATM    4  H   UNL     1      44.074 -14.017   5.060  1.00  0.00     0.280 HD
HETATM    5  C   UNL     1      42.950 -12.296   4.698  1.00  0.00     0.235 C 
HETATM    6  C   UNL     1      43.522 -11.109   5.459  1.00  0.00     0.035 C 
ENDROOT
BRANCH   3   7
HETATM    7  C   UNL     1      42.218 -14.520   5.650  1.00  0.00     0.276 C 
BRANCH   7   8
HETATM    8  C   UNL     1      42.726 -15.935   5.640  1.00  0.00     0.002 A 
HETATM    9  C   UNL     1      42.963 -16.630   6.835  1.00  0.00     0.073 A 
HETATM   10  C   UNL     1      43.460 -17.931   6.832  1.00  0.00     0.038 A 
HETATM   11  C   UNL     1      43.727 -18.562   5.616  1.00  0.00     0.022 A 
HETATM   12  C   UNL     1      43.500 -17.884   4.420  1.00  0.00     0.011 A 
HETATM   13 BR   UNL     1      43.851 -18.741   2.773  1.00  0.00    -0.051 Br
HETATM   14  C   UNL     1      43.010 -16.578   4.425  1.00  0.00     0.030 A 
BRANCH   9  15
HETATM   15  O   UNL     1      42.668 -16.004   8.017  1.00  0.00    -0.360 OA
HETATM   16  H   UNL     1      41.737 -15.698   7.963  1.00  0.00     0.217 HD
ENDBRANCH   9  15
ENDBRANCH   7   8
ENDBRANCH   3   7
BRANCH   1  17
HETATM   17  C   UNL     1      44.203 -10.680   7.904  1.00  0.00     0.100 C 
BRANCH  17  18
HETATM   18  N   UNL     1      44.076 -11.236   9.248  1.00  0.00    -0.279 NA
HETATM   19  H   UNL     1      44.888 -11.801   9.517  1.00  0.00     0.129 HD
BRANCH  18  20
HETATM   20  C   UNL     1      43.668 -10.480  10.348  1.00  0.00     0.079 A 
HETATM   21  C   UNL     1      43.966  -9.109  10.386  1.00  0.00     0.042 A 
HETATM   22  C   UNL     1      43.604  -8.337  11.487  1.00  0.00     0.005 A 
HETATM   23  C   UNL     1      42.968  -8.941  12.561  1.00  0.00     0.017 A 
HETATM   24  C   UNL     1      42.722 -10.304  12.510  1.00  0.00     0.089 A 
HETATM   25  N   UNL     1      43.082 -11.019  11.430  1.00  0.00    -0.357 N 
HETATM   26  H   UNL     1      42.911 -12.017  11.447  1.00  0.00     0.166 HD
ENDBRANCH  18  20
ENDBRANCH  17  18
ENDBRANCH   1  17
TORSDOF 6
ENDMDL
MODEL 6
REMARK VINA RESULT:      -7.5      2.737      4.651
REMARK  6 active torsions:
REMARK  status: ('A' for Active; 'I' for Inactive)
REMARK    1  A    between atoms: C_3  and  N_4 
REMARK    2  A    between atoms: N_4  and  C_5 
REMARK    3  A    between atoms: C_5  and  C_6 
REMARK    4  A    between atoms: N_8  and  C_10 
REMARK    5  A    between atoms: C_10  and  C_11 
REMARK    6  A    between atoms: C_12  and  O_13 
ROOT
HETATM    1  C   UNL     1      44.358 -12.096   7.342  1.00  0.00     0.026 C 
HETATM    2  C   UNL     1      43.728 -10.982   8.171  1.00  0.00     0.241 C 
HETATM    3  N   UNL     1      44.901 -10.119   8.572  1.00  0.00    -0.067 N 
HETATM    4  H   UNL     1      44.642  -9.126   8.417  1.00  0.00     0.280 HD
HETATM    5  C   UNL     1      46.066 -10.459   7.673  1.00  0.00     0.235 C 
HETATM    6  C   UNL     1      45.461 -11.348   6.597  1.00  0.00     0.035 C 
ENDROOT
BRANCH   3   7
HETATM    7  C   UNL     1      45.246 -10.144  10.043  1.00  0.00     0.276 C 
BRANCH   7   8
HETATM    8  C   UNL     1      44.123  -9.670  10.923  1.00  0.00     0.002 A 
HETATM    9  C   UNL     1      43.459 -10.548  11.791  1.00  0.00     0.073 A 
HETATM   10  C   UNL     1      42.400 -10.119  12.588  1.00  0.00     0.038 A 
HETATM   11  C   UNL     1      41.989  -8.788  12.526  1.00  0.00     0.022 A 
HETATM   12  C   UNL     1      42.635  -7.902  11.666  1.00  0.00     0.011 A 
HETATM   13 BR   UNL     1      42.086  -6.097  11.588  1.00  0.00    -0.051 Br
HETATM   14  C   UNL     1      43.691  -8.336  10.862  1.00  0.00     0.030 A 
BRANCH   9  15
HETATM   15  O   UNL     1      43.896 -11.844  11.858  1.00  0.00    -0.360 OA
HETATM   16  H   UNL     1      44.554 -11.895  12.585  1.00  0.00     0.217 HD
ENDBRANCH   9  15
ENDBRANCH   7   8
ENDBRANCH   3   7
BRANCH   1  17
HETATM   17  C   UNL     1      43.355 -12.820   6.433  1.00  0.00     0.100 C 
BRANCH  17  18
HETATM   18  N   UNL     1      42.857 -14.012   7.113  1.00  0.00    -0.279 NA
HETATM   19  H   UNL     1      41.861 -13.946   7.344  1.00  0.00     0.129 HD
BRANCH  18  20
HETATM   20  C   UNL     1      43.133 -15.308   6.674  1.00  0.00     0.079 A 
HETATM   21  C   UNL     1      43.365 -15.535   5.309  1.00  0.00     0.042 A 
HETATM   22  C   UNL     1      43.606 -16.824   4.837  1.00  0.00     0.005 A 
HETATM   23  C   UNL     1      43.590 -17.887   5.727  1.00  0.00     0.017 A 
HETATM   24  C   UNL     1      43.319 -17.636   7.062  1.00  0.00     0.089 A 
HETATM   25  N   UNL     1      43.095 -16.379   7.485  1.00  0.00    -0.357 N 
HETATM   26  H   UNL     1      42.871 -16.244   8.463  1.00  0.00     0.166 HD
ENDBRANCH  18  20
ENDBRANCH  17  18
ENDBRANCH   1  17
TORSDOF 6
ENDMDL
MODEL 7
REMARK VINA RESULT:      -7.3      1.699      2.444
REMARK  6 active torsions:
REMARK  status: ('A' for Active; 'I' for Inactive)
REMARK    1  A    between atoms: C_3  and  N_4 
REMARK    2  A    between atoms: N_4  and  C_5 
REMARK    3  A    between atoms: C_5  and  C_6 
REMARK    4  A    between atoms: N_8  and  C_10 
REMARK    5  A    between atoms: C_10  and  C_11 
REMARK    6  A    between atoms: C_12  and  O_13 
ROOT
HETATM    1  C   UNL     1      41.882 -13.375   4.559  1.00  0.00     0.026 C 
HETATM    2  C   UNL     1      41.956 -13.500   6.077  1.00  0.00     0.241 C 
HETATM    3  N   UNL     1      42.691 -12.254   6.510  1.00  0.00    -0.067 N 
HETATM    4  H   UNL     1      42.187 -11.845   7.320  1.00  0.00     0.280 HD
HETATM    5  C   UNL     1      42.652 -11.264   5.370  1.00  0.00     0.235 C 
HETATM    6  C   UNL     1      41.673 -11.874   4.379  1.00  0.00     0.035 C 
ENDROOT
BRANCH   3   7
HETATM    7  C   UNL     1      44.077 -12.482   7.064  1.00  0.00     0.276 C 
BRANCH   7   8
HETATM    8  C   UNL     1      44.647 -11.273   7.753  1.00  0.00     0.002 A 
HETATM    9  C   UNL     1      45.798 -10.636   7.269  1.00  0.00     0.073 A 
HETATM   10  C   UNL     1      46.346  -9.533   7.919  1.00  0.00     0.038 A 
HETATM   11  C   UNL     1      45.738  -9.046   9.076  1.00  0.00     0.022 A 
HETATM   12  C   UNL     1      44.595  -9.668   9.573  1.00  0.00     0.011 A 
HETATM   13 BR   UNL     1      43.764  -9.003  11.133  1.00  0.00    -0.051 Br
HETATM   14  C   UNL     1      44.052 -10.779   8.924  1.00  0.00     0.030 A 
BRANCH   9  15
HETATM   15  O   UNL     1      46.364 -11.112   6.116  1.00  0.00    -0.360 OA
HETATM   16  H   UNL     1      46.952 -11.859   6.363  1.00  0.00     0.217 HD
ENDBRANCH   9  15
ENDBRANCH   7   8
ENDBRANCH   3   7
BRANCH   1  17
HETATM   17  C   UNL     1      40.790 -14.250   3.929  1.00  0.00     0.100 C 
BRANCH  17  18
HETATM   18  N   UNL     1      40.894 -15.609   4.451  1.00  0.00    -0.279 NA
HETATM   19  H   UNL     1      39.984 -16.072   4.525  1.00  0.00     0.129 HD
BRANCH  18  20
HETATM   20  C   UNL     1      41.834 -16.531   3.986  1.00  0.00     0.079 A 
HETATM   21  C   UNL     1      42.872 -16.940   4.837  1.00  0.00     0.042 A 
HETATM   22  C   UNL     1      43.845 -17.830   4.388  1.00  0.00     0.005 A 
HETATM   23  C   UNL     1      43.794 -18.289   3.080  1.00  0.00     0.017 A 
HETATM   24  C   UNL     1      42.779 -17.836   2.253  1.00  0.00     0.089 A 
HETATM   25  N   UNL     1      41.854 -16.980   2.720  1.00  0.00    -0.357 N 
HETATM   26  H   UNL     1      41.147 -16.651   2.074  1.00  0.00     0.166 HD
ENDBRANCH  18  20
ENDBRANCH  17  18
ENDBRANCH   1  17
TORSDOF 6
ENDMDL
MODEL 8
REMARK VINA RESULT:      -7.2      3.725      8.132
REMARK  6 active torsions:
REMARK  status: ('A' for Active; 'I' for Inactive)
REMARK    1  A    between atoms: C_3  and  N_4 
REMARK    2  A    between atoms: N_4  and  C_5 
REMARK    3  A    between atoms: C_5  and  C_6 
REMARK    4  A    between atoms: N_8  and  C_10 
REMARK    5  A    between atoms: C_10  and  C_11 
REMARK    6  A    between atoms: C_12  and  O_13 
ROOT
HETATM    1  C   UNL     1      43.057 -14.208   6.132  1.00  0.00     0.026 C 
HETATM    2  C   UNL     1      41.572 -14.185   5.787  1.00  0.00     0.241 C 
HETATM    3  N   UNL     1      41.057 -15.507   6.305  1.00  0.00    -0.067 N 
HETATM    4  H   UNL     1      40.172 -15.332   6.819  1.00  0.00     0.280 HD
HETATM    5  C   UNL     1      42.074 -16.062   7.274  1.00  0.00     0.235 C 
HETATM    6  C   UNL     1      43.054 -14.917   7.484  1.00  0.00     0.035 C 
ENDROOT
BRANCH   3   7
HETATM    7  C   UNL     1      40.633 -16.494   5.243  1.00  0.00     0.276 C 
BRANCH   7   8
HETATM    8  C   UNL     1      41.310 -16.268   3.919  1.00  0.00     0.002 A 
HETATM    9  C   UNL     1      42.605 -16.745   3.675  1.00  0.00     0.073 A 
HETATM   10  C   UNL     1      43.247 -16.514   2.460  1.00  0.00     0.038 A 
HETATM   11  C   UNL     1      42.590 -15.794   1.462  1.00  0.00     0.022 A 
HETATM   12  C   UNL     1      41.304 -15.309   1.691  1.00  0.00     0.011 A 
HETATM   13 BR   UNL     1      40.409 -14.343   0.336  1.00  0.00    -0.051 Br
HETATM   14  C   UNL     1      40.665 -15.535   2.911  1.00  0.00     0.030 A 
BRANCH   9  15
HETATM   15  O   UNL     1      43.222 -17.474   4.657  1.00  0.00    -0.360 OA
HETATM   16  H   UNL     1      43.406 -16.865   5.404  1.00  0.00     0.217 HD
ENDBRANCH   9  15
ENDBRANCH   7   8
ENDBRANCH   3   7
BRANCH   1  17
HETATM   17  C   UNL     1      43.700 -12.815   6.147  1.00  0.00     0.100 C 
BRANCH  17  18
HETATM   18  N   UNL     1      43.888 -12.382   7.529  1.00  0.00    -0.279 NA
HETATM   19  H   UNL     1      44.364 -13.087   8.100  1.00  0.00     0.129 HD
BRANCH  18  20
HETATM   20  C   UNL     1      44.377 -11.120   7.869  1.00  0.00     0.079 A 
HETATM   21  C   UNL     1      45.722 -10.813   7.615  1.00  0.00     0.042 A 
HETATM   22  C   UNL     1      46.247  -9.575   7.979  1.00  0.00     0.005 A 
HETATM   23  C   UNL     1      45.432  -8.654   8.619  1.00  0.00     0.017 A 
HETATM   24  C   UNL     1      44.118  -9.000   8.890  1.00  0.00     0.089 A 
HETATM   25  N   UNL     1      43.643 -10.203   8.523  1.00  0.00    -0.357 N 
HETATM   26  H   UNL     1      42.686 -10.427   8.767  1.00  0.00     0.166 HD
ENDBRANCH  18  20
ENDBRANCH  17  18
ENDBRANCH   1  17
TORSDOF 6
ENDMDL
MODEL 9
REMARK VINA RESULT:      -7.2      5.923      7.306
REMARK  6 active torsions:
REMARK  status: ('A' for Active; 'I' for Inactive)
REMARK    1  A    between atoms: C_3  and  N_4 
REMARK    2  A    between atoms: N_4  and  C_5 
REMARK    3  A    between atoms: C_5  and  C_6 
REMARK    4  A    between atoms: N_8  and  C_10 
REMARK    5  A    between atoms: C_10  and  C_11 
REMARK    6  A    between atoms: C_12  and  O_13 
ROOT
HETATM    1  C   UNL     1      41.842 -15.339   1.497  1.00  0.00     0.026 C 
HETATM    2  C   UNL     1      41.818 -14.001   2.228  1.00  0.00     0.241 C 
HETATM    3  N   UNL     1      40.349 -13.740   2.461  1.00  0.00    -0.067 N 
HETATM    4  H   UNL     1      40.226 -13.425   3.443  1.00  0.00     0.280 HD
HETATM    5  C   UNL     1      39.604 -15.041   2.277  1.00  0.00     0.235 C 
HETATM    6  C   UNL     1      40.701 -16.089   2.180  1.00  0.00     0.035 C 
ENDROOT
BRANCH   3   7
HETATM    7  C   UNL     1      39.764 -12.592   1.671  1.00  0.00     0.276 C 
BRANCH   7   8
HETATM    8  C   UNL     1      40.040 -12.687   0.196  1.00  0.00     0.002 A 
HETATM    9  C   UNL     1      40.954 -11.827  -0.429  1.00  0.00     0.073 A 
HETATM   10  C   UNL     1      41.192 -11.892  -1.800  1.00  0.00     0.038 A 
HETATM   11  C   UNL     1      40.510 -12.833  -2.572  1.00  0.00     0.022 A 
HETATM   12  C   UNL     1      39.596 -13.693  -1.967  1.00  0.00     0.011 A 
HETATM   13 BR   UNL     1      38.680 -14.975  -3.009  1.00  0.00    -0.051 Br
HETATM   14  C   UNL     1      39.353 -13.621  -0.595  1.00  0.00     0.030 A 
BRANCH   9  15
HETATM   15  O   UNL     1      41.634 -10.929   0.350  1.00  0.00    -0.360 OA
HETATM   16  H   UNL     1      42.260 -11.439   0.908  1.00  0.00     0.217 HD
ENDBRANCH   9  15
ENDBRANCH   7   8
ENDBRANCH   3   7
BRANCH   1  17
HETATM   17  C   UNL     1      43.201 -16.047   1.569  1.00  0.00     0.100 C 
BRANCH  17  18
HETATM   18  N   UNL     1      43.368 -16.645   2.891  1.00  0.00    -0.279 NA
HETATM   19  H   UNL     1      42.668 -16.315   3.562  1.00  0.00     0.129 HD
BRANCH  18  20
HETATM   20  C   UNL     1      43.571 -18.012   3.086  1.00  0.00     0.079 A 
HETATM   21  C   UNL     1      43.188 -18.913   2.080  1.00  0.00     0.042 A 
HETATM   22  C   UNL     1      43.345 -20.285   2.263  1.00  0.00     0.005 A 
HETATM   23  C   UNL     1      43.860 -20.757   3.461  1.00  0.00     0.017 A 
HETATM   24  C   UNL     1      44.192 -19.844   4.450  1.00  0.00     0.089 A 
HETATM   25  N   UNL     1      44.031 -18.526   4.239  1.00  0.00    -0.357 N 
HETATM   26  H   UNL     1      44.258 -17.897   4.999  1.00  0.00     0.166 HD
ENDBRANCH  18  20
ENDBRANCH  17  18
ENDBRANCH   1  17
TORSDOF 6
ENDMDL
MODEL 10
REMARK VINA RESULT:      -7.2      6.130      7.650
REMARK  6 active torsions:
REMARK  status: ('A' for Active; 'I' for Inactive)
REMARK    1  A    between atoms: C_3  and  N_4 
REMARK    2  A    between atoms: N_4  and  C_5 
REMARK    3  A    between atoms: C_5  and  C_6 
REMARK    4  A    between atoms: N_8  and  C_10 
REMARK    5  A    between atoms: C_10  and  C_11 
REMARK    6  A    between atoms: C_12  and  O_13 
ROOT
HETATM    1  C   UNL     1      42.068 -15.937   1.762  1.00  0.00     0.026 C 
HETATM    2  C   UNL     1      41.810 -14.603   1.070  1.00  0.00     0.241 C 
HETATM    3  N   UNL     1      40.308 -14.555   0.922  1.00  0.00    -0.067 N 
HETATM    4  H   UNL     1      39.984 -13.611   1.211  1.00  0.00     0.280 HD
HETATM    5  C   UNL     1      39.709 -15.577   1.858  1.00  0.00     0.235 C 
HETATM    6  C   UNL     1      40.880 -16.030   2.715  1.00  0.00     0.035 C 
ENDROOT
BRANCH   3   7
HETATM    7  C   UNL     1      39.796 -14.660  -0.496  1.00  0.00     0.276 C 
BRANCH   7   8
HETATM    8  C   UNL     1      39.576 -13.322  -1.147  1.00  0.00     0.002 A 
HETATM    9  C   UNL     1      40.186 -12.998  -2.366  1.00  0.00     0.073 A 
HETATM   10  C   UNL     1      40.007 -11.750  -2.959  1.00  0.00     0.038 A 
HETATM   11  C   UNL     1      39.203 -10.800  -2.330  1.00  0.00     0.022 A 
HETATM   12  C   UNL     1      38.592 -11.104  -1.116  1.00  0.00     0.011 A 
HETATM   13 BR   UNL     1      37.494  -9.822  -0.268  1.00  0.00    -0.051 Br
HETATM   14  C   UNL     1      38.779 -12.352  -0.519  1.00  0.00     0.030 A 
BRANCH   9  15
HETATM   15  O   UNL     1      40.949 -13.955  -2.982  1.00  0.00    -0.360 OA
HETATM   16  H   UNL     1      41.755 -14.083  -2.438  1.00  0.00     0.217 HD
ENDBRANCH   9  15
ENDBRANCH   7   8
ENDBRANCH   3   7
BRANCH   1  17
HETATM   17  C   UNL     1      43.440 -16.013   2.446  1.00  0.00     0.100 C 
BRANCH  17  18
HETATM   18  N   UNL     1      43.340 -16.844   3.643  1.00  0.00    -0.279 NA
HETATM   19  H   UNL     1      42.482 -16.665   4.174  1.00  0.00     0.129 HD
BRANCH  18  20
HETATM   20  C   UNL     1      43.590 -18.217   3.637  1.00  0.00     0.079 A 
HETATM   21  C   UNL     1      43.352 -18.953   2.466  1.00  0.00     0.042 A 
HETATM   22  C   UNL     1      43.557 -20.331   2.442  1.00  0.00     0.005 A 
HETATM   23  C   UNL     1      43.975 -20.975   3.597  1.00  0.00     0.017 A 
HETATM   24  C   UNL     1      44.164 -20.227   4.747  1.00  0.00     0.089 A 
HETATM   25  N   UNL     1      43.961 -18.898   4.735  1.00  0.00    -0.357 N 
HETATM   26  H   UNL     1      44.081 -18.394   5.605  1.00  0.00     0.166 HD
ENDBRANCH  18  20
ENDBRANCH  17  18
ENDBRANCH   1  17
TORSDOF 6
ENDMDL
