MODEL 1
REMARK VINA RESULT:      -8.8      0.000      0.000
REMARK  6 active torsions:
REMARK  status: ('A' for Active; 'I' for Inactive)
REMARK    1  A    between atoms: C_6  and  S_7 
REMARK    2  A    between atoms: S_7  and  C_8 
REMARK    3  A    between atoms: C_8  and  C_9 
REMARK    4  A    between atoms: C_9  and  C_10 
REMARK    5  A    between atoms: C_19  and  N_20 
REMARK    6  A    between atoms: N_20  and  C_21 
ROOT
HETATM    1  C   UNL     1      43.704 -20.426   2.148  1.00  0.00     0.001 A 
HETATM    2  C   UNL     1      43.543 -19.047   2.265  1.00  0.00     0.018 A 
HETATM    3  C   UNL     1      43.630 -18.406   3.530  1.00  0.00     0.039 A 
HETATM    4  C   UNL     1      43.863 -19.178   4.673  1.00  0.00     0.073 A 
HETATM    5  N   UNL     1      43.933 -18.653   5.899  1.00  0.00    -0.222 NA
HETATM    6  C   UNL     1      43.764 -17.329   6.010  1.00  0.00     0.191 A 
HETATM    7  N   UNL     1      43.544 -16.497   4.988  1.00  0.00    -0.204 NA
HETATM    8  C   UNL     1      43.485 -17.023   3.753  1.00  0.00     0.143 A 
HETATM    9  C   UNL     1      44.022 -20.551   4.531  1.00  0.00     0.032 A 
HETATM   10  C   UNL     1      43.949 -21.180   3.286  1.00  0.00     0.002 A 
ENDROOT
BRANCH   6  11
HETATM   11  S   UNL     1      43.836 -16.593   7.623  1.00  0.00    -0.082 SA
BRANCH  11  12
HETATM   12  C   UNL     1      43.200 -14.938   7.234  1.00  0.00     0.166 C 
BRANCH  12  13
HETATM   13  C   UNL     1      41.735 -14.956   6.834  1.00  0.00     0.169 C 
HETATM   14  O   UNL     1      40.944 -15.845   7.146  1.00  0.00    -0.291 OA
BRANCH  13  15
HETATM   15  C   UNL     1      41.226 -13.823   5.993  1.00  0.00     0.011 A 
HETATM   16  C   UNL     1      39.869 -13.477   5.934  1.00  0.00     0.017 A 
HETATM   17  C   UNL     1      39.449 -12.411   5.131  1.00  0.00     0.025 A 
HETATM   18  C   UNL     1      40.380 -11.686   4.388  1.00  0.00     0.034 A 
HETATM   19 CL   UNL     1      39.856 -10.377   3.404  1.00  0.00    -0.084 Cl
HETATM   20  C   UNL     1      41.731 -12.017   4.441  1.00  0.00     0.025 A 
HETATM   21  C   UNL     1      42.153 -13.083   5.242  1.00  0.00     0.017 A 
ENDBRANCH  13  15
ENDBRANCH  12  13
ENDBRANCH  11  12
ENDBRANCH   6  11
BRANCH   8  22
HETATM   22  N   UNL     1      43.274 -16.172   2.636  1.00  0.00    -0.340 N 
HETATM   23  H   UNL     1      44.149 -15.717   2.394  1.00  0.00     0.167 HD
BRANCH  22  24
HETATM   24  C   UNL     1      42.165 -15.350   2.325  1.00  0.00     0.036 A 
HETATM   25  C   UNL     1      42.375 -14.231   1.499  1.00  0.00     0.069 A 
HETATM   26  C   UNL     1      41.286 -13.474   1.114  1.00  0.00     0.107 A 
HETATM   27  C   UNL     1      40.008 -13.796   1.498  1.00  0.00     0.105 A 
HETATM   28  O   UNL     1      41.328 -12.366   0.326  1.00  0.00    -0.323 OA
HETATM   29  O   UNL     1      39.083 -12.932   1.006  1.00  0.00    -0.323 OA
HETATM   30  C   UNL     1      39.751 -14.897   2.282  1.00  0.00     0.042 A 
HETATM   31  C   UNL     1      39.927 -12.029   0.263  1.00  0.00     0.352 A 
HETATM   32  C   UNL     1      40.840 -15.684   2.681  1.00  0.00     0.032 A 
ENDBRANCH  22  24
ENDBRANCH   8  22
TORSDOF 6
ENDMDL
MODEL 2
REMARK VINA RESULT:      -8.6      3.525      4.178
REMARK  6 active torsions:
REMARK  status: ('A' for Active; 'I' for Inactive)
REMARK    1  A    between atoms: C_6  and  S_7 
REMARK    2  A    between atoms: S_7  and  C_8 
REMARK    3  A    between atoms: C_8  and  C_9 
REMARK    4  A    between atoms: C_9  and  C_10 
REMARK    5  A    between atoms: C_19  and  N_20 
REMARK    6  A    between atoms: N_20  and  C_21 
ROOT
HETATM    1  C   UNL     1      43.081 -18.785   2.278  1.00  0.00     0.001 A 
HETATM    2  C   UNL     1      42.263 -17.664   2.407  1.00  0.00     0.018 A 
HETATM    3  C   UNL     1      42.505 -16.696   3.418  1.00  0.00     0.039 A 
HETATM    4  C   UNL     1      43.572 -16.884   4.304  1.00  0.00     0.073 A 
HETATM    5  N   UNL     1      43.849 -16.033   5.294  1.00  0.00    -0.222 NA
HETATM    6  C   UNL     1      43.053 -14.964   5.425  1.00  0.00     0.191 A 
HETATM    7  N   UNL     1      42.013 -14.681   4.634  1.00  0.00    -0.204 NA
HETATM    8  C   UNL     1      41.741 -15.533   3.630  1.00  0.00     0.143 A 
HETATM    9  C   UNL     1      44.375 -18.008   4.153  1.00  0.00     0.032 A 
HETATM   10  C   UNL     1      44.144 -18.954   3.152  1.00  0.00     0.002 A 
ENDROOT
BRANCH   6  11
HETATM   11  S   UNL     1      43.379 -13.814   6.737  1.00  0.00    -0.082 SA
BRANCH  11  12
HETATM   12  C   UNL     1      43.410 -12.266   5.788  1.00  0.00     0.166 C 
BRANCH  12  13
HETATM   13  C   UNL     1      44.533 -11.340   6.220  1.00  0.00     0.169 C 
HETATM   14  O   UNL     1      45.533 -11.103   5.545  1.00  0.00    -0.291 OA
BRANCH  13  15
HETATM   15  C   UNL     1      44.418 -10.683   7.564  1.00  0.00     0.011 A 
HETATM   16  C   UNL     1      45.489 -10.617   8.465  1.00  0.00     0.017 A 
HETATM   17  C   UNL     1      45.326  -9.993   9.708  1.00  0.00     0.025 A 
HETATM   18  C   UNL     1      44.097  -9.432  10.052  1.00  0.00     0.034 A 
HETATM   19 CL   UNL     1      43.906  -8.667  11.581  1.00  0.00    -0.084 Cl
HETATM   20  C   UNL     1      43.027  -9.487   9.165  1.00  0.00     0.025 A 
HETATM   21  C   UNL     1      43.187 -10.111   7.923  1.00  0.00     0.017 A 
ENDBRANCH  13  15
ENDBRANCH  12  13
ENDBRANCH  11  12
ENDBRANCH   6  11
BRANCH   8  22
HETATM   22  N   UNL     1      40.659 -15.260   2.752  1.00  0.00    -0.340 N 
HETATM   23  H   UNL     1      40.051 -16.072   2.712  1.00  0.00     0.167 HD
BRANCH  22  24
HETATM   24  C   UNL     1      40.647 -14.548   1.530  1.00  0.00     0.036 A 
HETATM   25  C   UNL     1      39.954 -15.105   0.440  1.00  0.00     0.069 A 
HETATM   26  C   UNL     1      39.858 -14.377  -0.730  1.00  0.00     0.107 A 
HETATM   27  C   UNL     1      40.399 -13.122  -0.848  1.00  0.00     0.105 A 
HETATM   28  O   UNL     1      39.229 -14.782  -1.866  1.00  0.00    -0.323 OA
HETATM   29  O   UNL     1      40.185 -12.576  -2.074  1.00  0.00    -0.323 OA
HETATM   30  C   UNL     1      41.059 -12.524   0.199  1.00  0.00     0.042 A 
HETATM   31  C   UNL     1      39.441 -13.633  -2.714  1.00  0.00     0.352 A 
HETATM   32  C   UNL     1      41.166 -13.241   1.399  1.00  0.00     0.032 A 
ENDBRANCH  22  24
ENDBRANCH   8  22
TORSDOF 6
ENDMDL
MODEL 3
REMARK VINA RESULT:      -8.6      3.931      6.945
REMARK  6 active torsions:
REMARK  status: ('A' for Active; 'I' for Inactive)
REMARK    1  A    between atoms: C_6  and  S_7 
REMARK    2  A    between atoms: S_7  and  C_8 
REMARK    3  A    between atoms: C_8  and  C_9 
REMARK    4  A    between atoms: C_9  and  C_10 
REMARK    5  A    between atoms: C_19  and  N_20 
REMARK    6  A    between atoms: N_20  and  C_21 
ROOT
HETATM    1  C   UNL     1      43.838 -16.152   6.880  1.00  0.00     0.001 A 
HETATM    2  C   UNL     1      43.955 -14.867   6.357  1.00  0.00     0.018 A 
HETATM    3  C   UNL     1      42.889 -14.275   5.629  1.00  0.00     0.039 A 
HETATM    4  C   UNL     1      41.713 -15.004   5.423  1.00  0.00     0.073 A 
HETATM    5  N   UNL     1      40.676 -14.527   4.730  1.00  0.00    -0.222 NA
HETATM    6  C   UNL     1      40.797 -13.296   4.217  1.00  0.00     0.191 A 
HETATM    7  N   UNL     1      41.868 -12.509   4.357  1.00  0.00    -0.204 NA
HETATM    8  C   UNL     1      42.907 -12.985   5.064  1.00  0.00     0.143 A 
HETATM    9  C   UNL     1      41.619 -16.284   5.957  1.00  0.00     0.032 A 
HETATM   10  C   UNL     1      42.664 -16.862   6.683  1.00  0.00     0.002 A 
ENDROOT
BRANCH   6  11
HETATM   11  S   UNL     1      39.447 -12.629   3.276  1.00  0.00    -0.082 SA
BRANCH  11  12
HETATM   12  C   UNL     1      40.250 -12.473   1.656  1.00  0.00     0.166 C 
BRANCH  12  13
HETATM   13  C   UNL     1      40.307 -13.792   0.904  1.00  0.00     0.169 C 
HETATM   14  O   UNL     1      39.624 -14.056  -0.083  1.00  0.00    -0.291 OA
BRANCH  13  15
HETATM   15  C   UNL     1      41.248 -14.844   1.412  1.00  0.00     0.011 A 
HETATM   16  C   UNL     1      42.629 -14.632   1.524  1.00  0.00     0.017 A 
HETATM   17  C   UNL     1      43.462 -15.650   2.002  1.00  0.00     0.025 A 
HETATM   18  C   UNL     1      42.920 -16.880   2.373  1.00  0.00     0.034 A 
HETATM   19 CL   UNL     1      43.950 -18.125   2.961  1.00  0.00    -0.084 Cl
HETATM   20  C   UNL     1      41.550 -17.103   2.271  1.00  0.00     0.025 A 
HETATM   21  C   UNL     1      40.716 -16.087   1.791  1.00  0.00     0.017 A 
ENDBRANCH  13  15
ENDBRANCH  12  13
ENDBRANCH  11  12
ENDBRANCH   6  11
BRANCH   8  22
HETATM   22  N   UNL     1      44.057 -12.174   5.255  1.00  0.00    -0.340 N 
HETATM   23  H   UNL     1      44.850 -12.605   4.790  1.00  0.00     0.167 HD
BRANCH  22  24
HETATM   24  C   UNL     1      44.466 -11.444   6.396  1.00  0.00     0.036 A 
HETATM   25  C   UNL     1      43.487 -11.066   7.333  1.00  0.00     0.069 A 
HETATM   26  C   UNL     1      43.885 -10.435   8.494  1.00  0.00     0.107 A 
HETATM   27  C   UNL     1      45.207 -10.187   8.767  1.00  0.00     0.105 A 
HETATM   28  O   UNL     1      43.060 -10.006   9.487  1.00  0.00    -0.323 OA
HETATM   29  O   UNL     1      45.385  -9.567   9.963  1.00  0.00    -0.323 OA
HETATM   30  C   UNL     1      46.202 -10.564   7.895  1.00  0.00     0.042 A 
HETATM   31  C   UNL     1      44.020  -9.456  10.415  1.00  0.00     0.352 A 
HETATM   32  C   UNL     1      45.822 -11.212   6.711  1.00  0.00     0.032 A 
ENDBRANCH  22  24
ENDBRANCH   8  22
TORSDOF 6
ENDMDL
MODEL 4
REMARK VINA RESULT:      -8.3      2.135      2.642
REMARK  6 active torsions:
REMARK  status: ('A' for Active; 'I' for Inactive)
REMARK    1  A    between atoms: C_6  and  S_7 
REMARK    2  A    between atoms: S_7  and  C_8 
REMARK    3  A    between atoms: C_8  and  C_9 
REMARK    4  A    between atoms: C_9  and  C_10 
REMARK    5  A    between atoms: C_19  and  N_20 
REMARK    6  A    between atoms: N_20  and  C_21 
ROOT
HETATM    1  C   UNL     1      43.070 -18.728   2.163  1.00  0.00     0.001 A 
HETATM    2  C   UNL     1      42.132 -17.755   2.502  1.00  0.00     0.018 A 
HETATM    3  C   UNL     1      42.317 -16.928   3.642  1.00  0.00     0.039 A 
HETATM    4  C   UNL     1      43.451 -17.108   4.441  1.00  0.00     0.073 A 
HETATM    5  N   UNL     1      43.685 -16.387   5.540  1.00  0.00    -0.222 NA
HETATM    6  C   UNL     1      42.774 -15.463   5.872  1.00  0.00     0.191 A 
HETATM    7  N   UNL     1      41.661 -15.201   5.180  1.00  0.00    -0.204 NA
HETATM    8  C   UNL     1      41.432 -15.919   4.067  1.00  0.00     0.143 A 
HETATM    9  C   UNL     1      44.374 -18.083   4.080  1.00  0.00     0.032 A 
HETATM   10  C   UNL     1      44.198 -18.889   2.953  1.00  0.00     0.002 A 
ENDROOT
BRANCH   6  11
HETATM   11  S   UNL     1      43.039 -14.492   7.334  1.00  0.00    -0.082 SA
BRANCH  11  12
HETATM   12  C   UNL     1      44.113 -13.197   6.652  1.00  0.00     0.166 C 
BRANCH  12  13
HETATM   13  C   UNL     1      43.412 -11.854   6.544  1.00  0.00     0.169 C 
HETATM   14  O   UNL     1      43.186 -11.113   7.500  1.00  0.00    -0.291 OA
BRANCH  13  15
HETATM   15  C   UNL     1      42.953 -11.413   5.187  1.00  0.00     0.011 A 
HETATM   16  C   UNL     1      42.191 -10.253   4.987  1.00  0.00     0.017 A 
HETATM   17  C   UNL     1      41.788  -9.888   3.697  1.00  0.00     0.025 A 
HETATM   18  C   UNL     1      42.147 -10.676   2.604  1.00  0.00     0.034 A 
HETATM   19 CL   UNL     1      41.648 -10.220   1.023  1.00  0.00    -0.084 Cl
HETATM   20  C   UNL     1      42.906 -11.827   2.787  1.00  0.00     0.025 A 
HETATM   21  C   UNL     1      43.309 -12.195   4.076  1.00  0.00     0.017 A 
ENDBRANCH  13  15
ENDBRANCH  12  13
ENDBRANCH  11  12
ENDBRANCH   6  11
BRANCH   8  22
HETATM   22  N   UNL     1      40.272 -15.659   3.290  1.00  0.00    -0.340 N 
HETATM   23  H   UNL     1      39.863 -16.541   2.997  1.00  0.00     0.167 HD
BRANCH  22  24
HETATM   24  C   UNL     1      40.035 -14.641   2.336  1.00  0.00     0.036 A 
HETATM   25  C   UNL     1      40.290 -14.924   0.981  1.00  0.00     0.069 A 
HETATM   26  C   UNL     1      39.976 -13.972   0.032  1.00  0.00     0.107 A 
HETATM   27  C   UNL     1      39.406 -12.771   0.372  1.00  0.00     0.105 A 
HETATM   28  O   UNL     1      40.167 -14.095  -1.309  1.00  0.00    -0.323 OA
HETATM   29  O   UNL     1      39.169 -11.982  -0.708  1.00  0.00    -0.323 OA
HETATM   30  C   UNL     1      39.112 -12.461   1.680  1.00  0.00     0.042 A 
HETATM   31  C   UNL     1      39.652 -12.829  -1.771  1.00  0.00     0.352 A 
HETATM   32  C   UNL     1      39.416 -13.415   2.661  1.00  0.00     0.032 A 
ENDBRANCH  22  24
ENDBRANCH   8  22
TORSDOF 6
ENDMDL
MODEL 5
REMARK VINA RESULT:      -8.3      4.050      7.951
REMARK  6 active torsions:
REMARK  status: ('A' for Active; 'I' for Inactive)
REMARK    1  A    between atoms: C_6  and  S_7 
REMARK    2  A    between atoms: S_7  and  C_8 
REMARK    3  A    between atoms: C_8  and  C_9 
REMARK    4  A    between atoms: C_9  and  C_10 
REMARK    5  A    between atoms: C_19  and  N_20 
REMARK    6  A    between atoms: N_20  and  C_21 
ROOT
HETATM    1  C   UNL     1      38.997  -9.342   4.222  1.00  0.00     0.001 A 
HETATM    2  C   UNL     1      39.754 -10.240   4.971  1.00  0.00     0.018 A 
HETATM    3  C   UNL     1      39.943 -11.578   4.533  1.00  0.00     0.039 A 
HETATM    4  C   UNL     1      39.344 -11.999   3.341  1.00  0.00     0.073 A 
HETATM    5  N   UNL     1      39.454 -13.246   2.876  1.00  0.00    -0.222 NA
HETATM    6  C   UNL     1      40.172 -14.111   3.605  1.00  0.00     0.191 A 
HETATM    7  N   UNL     1      40.792 -13.816   4.752  1.00  0.00    -0.204 NA
HETATM    8  C   UNL     1      40.690 -12.559   5.214  1.00  0.00     0.143 A 
HETATM    9  C   UNL     1      38.595 -11.084   2.610  1.00  0.00     0.032 A 
HETATM   10  C   UNL     1      38.419  -9.765   3.035  1.00  0.00     0.002 A 
ENDROOT
BRANCH   6  11
HETATM   11  S   UNL     1      40.332 -15.782   3.030  1.00  0.00    -0.082 SA
BRANCH  11  12
HETATM   12  C   UNL     1      41.443 -15.515   1.619  1.00  0.00     0.166 C 
BRANCH  12  13
HETATM   13  C   UNL     1      42.906 -15.685   1.988  1.00  0.00     0.169 C 
HETATM   14  O   UNL     1      43.789 -14.879   1.702  1.00  0.00    -0.291 OA
BRANCH  13  15
HETATM   15  C   UNL     1      43.298 -16.925   2.735  1.00  0.00     0.011 A 
HETATM   16  C   UNL     1      43.310 -18.194   2.139  1.00  0.00     0.017 A 
HETATM   17  C   UNL     1      43.682 -19.319   2.884  1.00  0.00     0.025 A 
HETATM   18  C   UNL     1      44.047 -19.181   4.223  1.00  0.00     0.034 A 
HETATM   19 CL   UNL     1      44.505 -20.567   5.131  1.00  0.00    -0.084 Cl
HETATM   20  C   UNL     1      44.043 -17.926   4.826  1.00  0.00     0.025 A 
HETATM   21  C   UNL     1      43.670 -16.801   4.083  1.00  0.00     0.017 A 
ENDBRANCH  13  15
ENDBRANCH  12  13
ENDBRANCH  11  12
ENDBRANCH   6  11
BRANCH   8  22
HETATM   22  N   UNL     1      41.351 -12.197   6.418  1.00  0.00    -0.340 N 
HETATM   23  H   UNL     1      40.697 -11.711   7.024  1.00  0.00     0.167 HD
BRANCH  22  24
HETATM   24  C   UNL     1      42.674 -11.736   6.617  1.00  0.00     0.036 A 
HETATM   25  C   UNL     1      42.862 -10.524   7.306  1.00  0.00     0.069 A 
HETATM   26  C   UNL     1      44.149 -10.111   7.586  1.00  0.00     0.107 A 
HETATM   27  C   UNL     1      45.243 -10.859   7.230  1.00  0.00     0.105 A 
HETATM   28  O   UNL     1      44.491  -8.966   8.236  1.00  0.00    -0.323 OA
HETATM   29  O   UNL     1      46.414 -10.280   7.606  1.00  0.00    -0.323 OA
HETATM   30  C   UNL     1      45.109 -12.064   6.582  1.00  0.00     0.042 A 
HETATM   31  C   UNL     1      45.929  -9.081   8.245  1.00  0.00     0.352 A 
HETATM   32  C   UNL     1      43.811 -12.507   6.291  1.00  0.00     0.032 A 
ENDBRANCH  22  24
ENDBRANCH   8  22
TORSDOF 6
ENDMDL
MODEL 6
REMARK VINA RESULT:      -8.2      3.911      4.797
REMARK  6 active torsions:
REMARK  status: ('A' for Active; 'I' for Inactive)
REMARK    1  A    between atoms: C_6  and  S_7 
REMARK    2  A    between atoms: S_7  and  C_8 
REMARK    3  A    between atoms: C_8  and  C_9 
REMARK    4  A    between atoms: C_9  and  C_10 
REMARK    5  A    between atoms: C_19  and  N_20 
REMARK    6  A    between atoms: N_20  and  C_21 
ROOT
HETATM    1  C   UNL     1      42.494 -17.865   2.339  1.00  0.00     0.001 A 
HETATM    2  C   UNL     1      41.612 -16.801   2.163  1.00  0.00     0.018 A 
HETATM    3  C   UNL     1      41.718 -15.626   2.953  1.00  0.00     0.039 A 
HETATM    4  C   UNL     1      42.713 -15.547   3.932  1.00  0.00     0.073 A 
HETATM    5  N   UNL     1      42.862 -14.487   4.730  1.00  0.00    -0.222 NA
HETATM    6  C   UNL     1      42.004 -13.472   4.568  1.00  0.00     0.191 A 
HETATM    7  N   UNL     1      41.021 -13.437   3.662  1.00  0.00    -0.204 NA
HETATM    8  C   UNL     1      40.879 -14.499   2.851  1.00  0.00     0.143 A 
HETATM    9  C   UNL     1      43.584 -16.619   4.088  1.00  0.00     0.032 A 
HETATM   10  C   UNL     1      43.487 -17.771   3.302  1.00  0.00     0.002 A 
ENDROOT
BRANCH   6  11
HETATM   11  S   UNL     1      42.158 -12.049   5.617  1.00  0.00    -0.082 SA
BRANCH  11  12
HETATM   12  C   UNL     1      43.700 -12.468   6.479  1.00  0.00     0.166 C 
BRANCH  12  13
HETATM   13  C   UNL     1      44.563 -11.250   6.756  1.00  0.00     0.169 C 
HETATM   14  O   UNL     1      45.390 -10.794   5.969  1.00  0.00    -0.291 OA
BRANCH  13  15
HETATM   15  C   UNL     1      44.404 -10.569   8.083  1.00  0.00     0.011 A 
HETATM   16  C   UNL     1      45.435 -10.514   9.031  1.00  0.00     0.017 A 
HETATM   17  C   UNL     1      45.231  -9.867  10.256  1.00  0.00     0.025 A 
HETATM   18  C   UNL     1      44.002  -9.271  10.536  1.00  0.00     0.034 A 
HETATM   19 CL   UNL     1      43.761  -8.478  12.042  1.00  0.00    -0.084 Cl
HETATM   20  C   UNL     1      42.972  -9.316   9.602  1.00  0.00     0.025 A 
HETATM   21  C   UNL     1      43.172  -9.963   8.378  1.00  0.00     0.017 A 
ENDBRANCH  13  15
ENDBRANCH  12  13
ENDBRANCH  11  12
ENDBRANCH   6  11
BRANCH   8  22
HETATM   22  N   UNL     1      39.862 -14.494   1.860  1.00  0.00    -0.340 N 
HETATM   23  H   UNL     1      39.272 -15.311   1.985  1.00  0.00     0.167 HD
BRANCH  22  24
HETATM   24  C   UNL     1      39.931 -14.114   0.499  1.00  0.00     0.036 A 
HETATM   25  C   UNL     1      40.549 -12.892   0.178  1.00  0.00     0.069 A 
HETATM   26  C   UNL     1      40.704 -12.553  -1.152  1.00  0.00     0.107 A 
HETATM   27  C   UNL     1      40.292 -13.384  -2.163  1.00  0.00     0.105 A 
HETATM   28  O   UNL     1      41.274 -11.410  -1.618  1.00  0.00    -0.323 OA
HETATM   29  O   UNL     1      40.544 -12.869  -3.395  1.00  0.00    -0.323 OA
HETATM   30  C   UNL     1      39.709 -14.601  -1.899  1.00  0.00     0.042 A 
HETATM   31  C   UNL     1      41.169 -11.618  -3.042  1.00  0.00     0.352 A 
HETATM   32  C   UNL     1      39.545 -14.970  -0.556  1.00  0.00     0.032 A 
ENDBRANCH  22  24
ENDBRANCH   8  22
TORSDOF 6
ENDMDL
MODEL 7
REMARK VINA RESULT:      -8.1      5.461      8.977
REMARK  6 active torsions:
REMARK  status: ('A' for Active; 'I' for Inactive)
REMARK    1  A    between atoms: C_6  and  S_7 
REMARK    2  A    between atoms: S_7  and  C_8 
REMARK    3  A    between atoms: C_8  and  C_9 
REMARK    4  A    between atoms: C_9  and  C_10 
REMARK    5  A    between atoms: C_19  and  N_20 
REMARK    6  A    between atoms: N_20  and  C_21 
ROOT
HETATM    1  C   UNL     1      46.016  -9.281   8.199  1.00  0.00     0.001 A 
HETATM    2  C   UNL     1      44.633  -9.137   8.128  1.00  0.00     0.018 A 
HETATM    3  C   UNL     1      43.837 -10.071   7.411  1.00  0.00     0.039 A 
HETATM    4  C   UNL     1      44.460 -11.138   6.754  1.00  0.00     0.073 A 
HETATM    5  N   UNL     1      43.785 -12.042   6.041  1.00  0.00    -0.222 NA
HETATM    6  C   UNL     1      42.456 -11.894   5.963  1.00  0.00     0.191 A 
HETATM    7  N   UNL     1      41.758 -10.919   6.554  1.00  0.00    -0.204 NA
HETATM    8  C   UNL     1      42.436 -10.016   7.281  1.00  0.00     0.143 A 
HETATM    9  C   UNL     1      45.842 -11.262   6.842  1.00  0.00     0.032 A 
HETATM   10  C   UNL     1      46.622 -10.350   7.557  1.00  0.00     0.002 A 
ENDROOT
BRANCH   6  11
HETATM   11  S   UNL     1      41.522 -13.067   5.012  1.00  0.00    -0.082 SA
BRANCH  11  12
HETATM   12  C   UNL     1      42.880 -14.058   4.328  1.00  0.00     0.166 C 
BRANCH  12  13
HETATM   13  C   UNL     1      43.065 -15.376   5.059  1.00  0.00     0.169 C 
HETATM   14  O   UNL     1      43.095 -15.490   6.283  1.00  0.00    -0.291 OA
BRANCH  13  15
HETATM   15  C   UNL     1      43.238 -16.615   4.232  1.00  0.00     0.011 A 
HETATM   16  C   UNL     1      42.618 -16.783   2.985  1.00  0.00     0.017 A 
HETATM   17  C   UNL     1      42.812 -17.961   2.255  1.00  0.00     0.025 A 
HETATM   18  C   UNL     1      43.627 -18.972   2.764  1.00  0.00     0.034 A 
HETATM   19 CL   UNL     1      43.860 -20.416   1.860  1.00  0.00    -0.084 Cl
HETATM   20  C   UNL     1      44.251 -18.817   3.998  1.00  0.00     0.025 A 
HETATM   21  C   UNL     1      44.057 -17.641   4.730  1.00  0.00     0.017 A 
ENDBRANCH  13  15
ENDBRANCH  12  13
ENDBRANCH  11  12
ENDBRANCH   6  11
BRANCH   8  22
HETATM   22  N   UNL     1      41.732  -8.976   7.944  1.00  0.00    -0.340 N 
HETATM   23  H   UNL     1      42.246  -8.107   7.840  1.00  0.00     0.167 HD
BRANCH  22  24
HETATM   24  C   UNL     1      41.017  -9.007   9.164  1.00  0.00     0.036 A 
HETATM   25  C   UNL     1      41.662  -9.523  10.303  1.00  0.00     0.069 A 
HETATM   26  C   UNL     1      41.008  -9.473  11.518  1.00  0.00     0.107 A 
HETATM   27  C   UNL     1      39.760  -8.918  11.647  1.00  0.00     0.105 A 
HETATM   28  O   UNL     1      41.497  -9.934  12.701  1.00  0.00    -0.323 OA
HETATM   29  O   UNL     1      39.300  -8.961  12.925  1.00  0.00    -0.323 OA
HETATM   30  C   UNL     1      39.102  -8.375  10.568  1.00  0.00     0.042 A 
HETATM   31  C   UNL     1      40.407  -9.605  13.588  1.00  0.00     0.352 A 
HETATM   32  C   UNL     1      39.748  -8.408   9.324  1.00  0.00     0.032 A 
ENDBRANCH  22  24
ENDBRANCH   8  22
TORSDOF 6
ENDMDL
MODEL 8
REMARK VINA RESULT:      -7.9      3.603      6.473
REMARK  6 active torsions:
REMARK  status: ('A' for Active; 'I' for Inactive)
REMARK    1  A    between atoms: C_6  and  S_7 
REMARK    2  A    between atoms: S_7  and  C_8 
REMARK    3  A    between atoms: C_8  and  C_9 
REMARK    4  A    between atoms: C_9  and  C_10 
REMARK    5  A    between atoms: C_19  and  N_20 
REMARK    6  A    between atoms: N_20  and  C_21 
ROOT
HETATM    1  C   UNL     1      39.029 -14.708  -2.418  1.00  0.00     0.001 A 
HETATM    2  C   UNL     1      39.473 -15.030  -1.138  1.00  0.00     0.018 A 
HETATM    3  C   UNL     1      40.064 -14.046  -0.301  1.00  0.00     0.039 A 
HETATM    4  C   UNL     1      40.215 -12.741  -0.781  1.00  0.00     0.073 A 
HETATM    5  N   UNL     1      40.782 -11.766  -0.065  1.00  0.00    -0.222 NA
HETATM    6  C   UNL     1      41.221 -12.082   1.160  1.00  0.00     0.191 A 
HETATM    7  N   UNL     1      41.123 -13.291   1.721  1.00  0.00    -0.204 NA
HETATM    8  C   UNL     1      40.542 -14.269   1.005  1.00  0.00     0.143 A 
HETATM    9  C   UNL     1      39.761 -12.443  -2.061  1.00  0.00     0.032 A 
HETATM   10  C   UNL     1      39.169 -13.408  -2.879  1.00  0.00     0.002 A 
ENDROOT
BRANCH   6  11
HETATM   11  S   UNL     1      41.993 -10.820   2.140  1.00  0.00    -0.082 SA
BRANCH  11  12
HETATM   12  C   UNL     1      42.979 -11.858   3.256  1.00  0.00     0.166 C 
BRANCH  12  13
HETATM   13  C   UNL     1      42.424 -11.887   4.669  1.00  0.00     0.169 C 
HETATM   14  O   UNL     1      41.337 -12.374   4.975  1.00  0.00    -0.291 OA
BRANCH  13  15
HETATM   15  C   UNL     1      43.250 -11.267   5.756  1.00  0.00     0.011 A 
HETATM   16  C   UNL     1      42.699 -10.440   6.745  1.00  0.00     0.017 A 
HETATM   17  C   UNL     1      43.517  -9.886   7.736  1.00  0.00     0.025 A 
HETATM   18  C   UNL     1      44.884 -10.158   7.747  1.00  0.00     0.034 A 
HETATM   19 CL   UNL     1      45.882  -9.474   8.969  1.00  0.00    -0.084 Cl
HETATM   20  C   UNL     1      45.444 -10.980   6.774  1.00  0.00     0.025 A 
HETATM   21  C   UNL     1      44.628 -11.534   5.781  1.00  0.00     0.017 A 
ENDBRANCH  13  15
ENDBRANCH  12  13
ENDBRANCH  11  12
ENDBRANCH   6  11
BRANCH   8  22
HETATM   22  N   UNL     1      40.398 -15.563   1.571  1.00  0.00    -0.340 N 
HETATM   23  H   UNL     1      39.410 -15.783   1.651  1.00  0.00     0.167 HD
BRANCH  22  24
HETATM   24  C   UNL     1      41.148 -16.188   2.595  1.00  0.00     0.036 A 
HETATM   25  C   UNL     1      42.226 -17.013   2.224  1.00  0.00     0.069 A 
HETATM   26  C   UNL     1      43.021 -17.554   3.215  1.00  0.00     0.107 A 
HETATM   27  C   UNL     1      42.801 -17.292   4.543  1.00  0.00     0.105 A 
HETATM   28  O   UNL     1      44.091 -18.371   3.016  1.00  0.00    -0.323 OA
HETATM   29  O   UNL     1      43.699 -17.913   5.352  1.00  0.00    -0.323 OA
HETATM   30  C   UNL     1      41.778 -16.469   4.953  1.00  0.00     0.042 A 
HETATM   31  C   UNL     1      44.515 -18.593   4.377  1.00  0.00     0.352 A 
HETATM   32  C   UNL     1      40.960 -15.904   3.965  1.00  0.00     0.032 A 
ENDBRANCH  22  24
ENDBRANCH   8  22
TORSDOF 6
ENDMDL
MODEL 9
REMARK VINA RESULT:      -7.9      3.400      6.631
REMARK  6 active torsions:
REMARK  status: ('A' for Active; 'I' for Inactive)
REMARK    1  A    between atoms: C_6  and  S_7 
REMARK    2  A    between atoms: S_7  and  C_8 
REMARK    3  A    between atoms: C_8  and  C_9 
REMARK    4  A    between atoms: C_9  and  C_10 
REMARK    5  A    between atoms: C_19  and  N_20 
REMARK    6  A    between atoms: N_20  and  C_21 
ROOT
HETATM    1  C   UNL     1      38.950 -14.841  -2.562  1.00  0.00     0.001 A 
HETATM    2  C   UNL     1      39.390 -15.003  -1.250  1.00  0.00     0.018 A 
HETATM    3  C   UNL     1      39.775 -13.884  -0.466  1.00  0.00     0.039 A 
HETATM    4  C   UNL     1      39.727 -12.604  -1.029  1.00  0.00     0.073 A 
HETATM    5  N   UNL     1      40.096 -11.506  -0.365  1.00  0.00    -0.222 NA
HETATM    6  C   UNL     1      40.531 -11.666   0.891  1.00  0.00     0.191 A 
HETATM    7  N   UNL     1      40.612 -12.837   1.531  1.00  0.00    -0.204 NA
HETATM    8  C   UNL     1      40.230 -13.941   0.866  1.00  0.00     0.143 A 
HETATM    9  C   UNL     1      39.282 -12.467  -2.339  1.00  0.00     0.032 A 
HETATM   10  C   UNL     1      38.892 -13.567  -3.106  1.00  0.00     0.002 A 
ENDROOT
BRANCH   6  11
HETATM   11  S   UNL     1      41.044 -10.233   1.805  1.00  0.00    -0.082 SA
BRANCH  11  12
HETATM   12  C   UNL     1      42.434 -10.943   2.733  1.00  0.00     0.166 C 
BRANCH  12  13
HETATM   13  C   UNL     1      42.348 -10.657   4.222  1.00  0.00     0.169 C 
HETATM   14  O   UNL     1      42.122  -9.547   4.701  1.00  0.00    -0.291 OA
BRANCH  13  15
HETATM   15  C   UNL     1      42.569 -11.801   5.166  1.00  0.00     0.011 A 
HETATM   16  C   UNL     1      43.771 -11.981   5.865  1.00  0.00     0.017 A 
HETATM   17  C   UNL     1      43.924 -13.068   6.733  1.00  0.00     0.025 A 
HETATM   18  C   UNL     1      42.880 -13.975   6.909  1.00  0.00     0.034 A 
HETATM   19 CL   UNL     1      43.076 -15.307   7.978  1.00  0.00    -0.084 Cl
HETATM   20  C   UNL     1      41.680 -13.805   6.225  1.00  0.00     0.025 A 
HETATM   21  C   UNL     1      41.525 -12.721   5.355  1.00  0.00     0.017 A 
ENDBRANCH  13  15
ENDBRANCH  12  13
ENDBRANCH  11  12
ENDBRANCH   6  11
BRANCH   8  22
HETATM   22  N   UNL     1      40.280 -15.204   1.514  1.00  0.00    -0.340 N 
HETATM   23  H   UNL     1      39.405 -15.359   2.006  1.00  0.00     0.167 HD
BRANCH  22  24
HETATM   24  C   UNL     1      41.359 -15.837   2.173  1.00  0.00     0.036 A 
HETATM   25  C   UNL     1      41.210 -16.167   3.533  1.00  0.00     0.069 A 
HETATM   26  C   UNL     1      42.221 -16.867   4.163  1.00  0.00     0.107 A 
HETATM   27  C   UNL     1      43.351 -17.265   3.494  1.00  0.00     0.105 A 
HETATM   28  O   UNL     1      42.225 -17.252   5.467  1.00  0.00    -0.323 OA
HETATM   29  O   UNL     1      44.214 -17.947   4.292  1.00  0.00    -0.323 OA
HETATM   30  C   UNL     1      43.528 -16.991   2.158  1.00  0.00     0.042 A 
HETATM   31  C   UNL     1      43.493 -17.937   5.541  1.00  0.00     0.352 A 
HETATM   32  C   UNL     1      42.514 -16.286   1.496  1.00  0.00     0.032 A 
ENDBRANCH  22  24
ENDBRANCH   8  22
TORSDOF 6
ENDMDL
MODEL 10
REMARK VINA RESULT:      -7.9      4.882      7.222
REMARK  6 active torsions:
REMARK  status: ('A' for Active; 'I' for Inactive)
REMARK    1  A    between atoms: C_6  and  S_7 
REMARK    2  A    between atoms: S_7  and  C_8 
REMARK    3  A    between atoms: C_8  and  C_9 
REMARK    4  A    between atoms: C_9  and  C_10 
REMARK    5  A    between atoms: C_19  and  N_20 
REMARK    6  A    between atoms: N_20  and  C_21 
ROOT
HETATM    1  C   UNL     1      40.016 -12.095   3.482  1.00  0.00     0.001 A 
HETATM    2  C   UNL     1      40.705 -12.957   4.333  1.00  0.00     0.018 A 
HETATM    3  C   UNL     1      41.941 -12.572   4.917  1.00  0.00     0.039 A 
HETATM    4  C   UNL     1      42.478 -11.315   4.617  1.00  0.00     0.073 A 
HETATM    5  N   UNL     1      43.645 -10.891   5.107  1.00  0.00    -0.222 NA
HETATM    6  C   UNL     1      44.312 -11.726   5.913  1.00  0.00     0.191 A 
HETATM    7  N   UNL     1      43.892 -12.943   6.272  1.00  0.00    -0.204 NA
HETATM    8  C   UNL     1      42.712 -13.366   5.788  1.00  0.00     0.143 A 
HETATM    9  C   UNL     1      41.771 -10.472   3.767  1.00  0.00     0.032 A 
HETATM   10  C   UNL     1      40.549 -10.847   3.202  1.00  0.00     0.002 A 
ENDROOT
BRANCH   6  11
HETATM   11  S   UNL     1      45.875 -11.206   6.575  1.00  0.00    -0.082 SA
BRANCH  11  12
HETATM   12  C   UNL     1      45.363 -10.763   8.259  1.00  0.00     0.166 C 
BRANCH  12  13
HETATM   13  C   UNL     1      45.401  -9.265   8.505  1.00  0.00     0.169 C 
HETATM   14  O   UNL     1      46.151  -8.487   7.919  1.00  0.00    -0.291 OA
BRANCH  13  15
HETATM   15  C   UNL     1      44.475  -8.704   9.543  1.00  0.00     0.011 A 
HETATM   16  C   UNL     1      43.662  -7.587   9.304  1.00  0.00     0.017 A 
HETATM   17  C   UNL     1      42.817  -7.104  10.309  1.00  0.00     0.025 A 
HETATM   18  C   UNL     1      42.776  -7.735  11.552  1.00  0.00     0.034 A 
HETATM   19 CL   UNL     1      41.733  -7.135  12.781  1.00  0.00    -0.084 Cl
HETATM   20  C   UNL     1      43.574  -8.847  11.801  1.00  0.00     0.025 A 
HETATM   21  C   UNL     1      44.421  -9.331  10.798  1.00  0.00     0.017 A 
ENDBRANCH  13  15
ENDBRANCH  12  13
ENDBRANCH  11  12
ENDBRANCH   6  11
BRANCH   8  22
HETATM   22  N   UNL     1      42.217 -14.644   6.161  1.00  0.00    -0.340 N 
HETATM   23  H   UNL     1      41.962 -14.628   7.143  1.00  0.00     0.167 HD
BRANCH  22  24
HETATM   24  C   UNL     1      42.652 -15.930   5.764  1.00  0.00     0.036 A 
HETATM   25  C   UNL     1      42.829 -16.181   4.391  1.00  0.00     0.069 A 
HETATM   26  C   UNL     1      43.341 -17.401   3.997  1.00  0.00     0.107 A 
HETATM   27  C   UNL     1      43.699 -18.363   4.907  1.00  0.00     0.105 A 
HETATM   28  O   UNL     1      43.562 -17.792   2.713  1.00  0.00    -0.323 OA
HETATM   29  O   UNL     1      44.188 -19.484   4.315  1.00  0.00    -0.323 OA
HETATM   30  C   UNL     1      43.572 -18.153   6.261  1.00  0.00     0.042 A 
HETATM   31  C   UNL     1      44.100 -19.114   2.924  1.00  0.00     0.352 A 
HETATM   32  C   UNL     1      43.060 -16.919   6.685  1.00  0.00     0.032 A 
ENDBRANCH  22  24
ENDBRANCH   8  22
TORSDOF 6
ENDMDL
