MODEL 1
REMARK VINA RESULT:      -8.7      0.000      0.000
REMARK  3 active torsions:
REMARK  status: ('A' for Active; 'I' for Inactive)
REMARK    1  A    between atoms: N_7  and  C_9 
REMARK    2  A    between atoms: C_9  and  C_10 
REMARK    3  A    between atoms: C_13  and  C_14 
ROOT
HETATM    1  C   UNL     1      42.837  -6.457  10.179  1.00  0.00     0.269 C 
HETATM    2  N   UNL     1      43.492  -7.811   9.993  1.00  0.00    -0.074 N 
HETATM    3  H   UNL     1      44.503  -7.610   9.973  1.00  0.00     0.279 HD
HETATM    4  C   UNL     1      43.074  -8.460   8.696  1.00  0.00     0.245 C 
HETATM    5  C   UNL     1      43.843  -9.794   8.438  1.00  0.00     0.008 C 
HETATM    6  C   UNL     1      43.212 -10.448   7.169  1.00  0.00     0.246 C 
HETATM    7  N   UNL     1      44.031 -11.560   6.552  1.00  0.00    -0.063 N 
HETATM    8  H   UNL     1      43.632 -11.665   5.601  1.00  0.00     0.280 HD
HETATM    9  C   UNL     1      45.474 -11.208   6.318  1.00  0.00     0.235 C 
HETATM   10  C   UNL     1      46.102 -10.699   7.604  1.00  0.00     0.029 C 
HETATM   11  C   UNL     1      45.340  -9.498   8.164  1.00  0.00     0.014 C 
HETATM   12  C   UNL     1      43.662 -10.694   9.688  1.00  0.00     0.014 C 
HETATM   13  C   UNL     1      43.990  -9.999  11.013  1.00  0.00     0.029 C 
HETATM   14  C   UNL     1      43.234  -8.693  11.192  1.00  0.00     0.234 C 
ENDROOT
BRANCH   7  15
HETATM   15  C   UNL     1      43.814 -12.983   7.096  1.00  0.00     0.323 C 
BRANCH  15  16
HETATM   16  C   UNL     1      43.460 -13.956   6.034  1.00  0.00     0.199 A 
HETATM   17  O   UNL     1      42.550 -13.569   5.107  1.00  0.00    -0.194 OA
HETATM   18  N   UNL     1      42.419 -14.634   4.227  1.00  0.00    -0.106 NA
HETATM   19  C   UNL     1      43.241 -15.577   4.717  1.00  0.00     0.189 A 
HETATM   20  N   UNL     1      43.957 -15.155   5.828  1.00  0.00    -0.202 NA
BRANCH  19  21
HETATM   21  C   UNL     1      43.390 -16.912   4.148  1.00  0.00     0.016 A 
HETATM   22  C   UNL     1      43.784 -17.984   4.960  1.00  0.00     0.039 A 
HETATM   23  C   UNL     1      43.913 -19.266   4.422  1.00  0.00     0.035 A 
HETATM   24 CL   UNL     1      44.401 -20.563   5.442  1.00  0.00    -0.084 Cl
HETATM   25  C   UNL     1      43.651 -19.500   3.076  1.00  0.00     0.024 A 
HETATM   26  C   UNL     1      43.257 -18.442   2.258  1.00  0.00     0.003 A 
HETATM   27  C   UNL     1      43.127 -17.155   2.789  1.00  0.00     0.015 A 
ENDBRANCH  19  21
ENDBRANCH  15  16
ENDBRANCH   7  15
TORSDOF 3
ENDMDL
MODEL 2
REMARK VINA RESULT:      -8.5      6.550      9.397
REMARK  3 active torsions:
REMARK  status: ('A' for Active; 'I' for Inactive)
REMARK    1  A    between atoms: N_7  and  C_9 
REMARK    2  A    between atoms: C_9  and  C_10 
REMARK    3  A    between atoms: C_13  and  C_14 
ROOT
HETATM    1  C   UNL     1      36.785  -9.202  -4.287  1.00  0.00     0.269 C 
HETATM    2  N   UNL     1      37.939 -10.088  -3.862  1.00  0.00    -0.074 N 
HETATM    3  H   UNL     1      38.048 -10.761  -4.635  1.00  0.00     0.279 HD
HETATM    4  C   UNL     1      37.635 -10.825  -2.580  1.00  0.00     0.245 C 
HETATM    5  C   UNL     1      38.765 -11.835  -2.207  1.00  0.00     0.008 C 
HETATM    6  C   UNL     1      38.421 -12.405  -0.795  1.00  0.00     0.246 C 
HETATM    7  N   UNL     1      39.194 -13.644  -0.403  1.00  0.00    -0.063 N 
HETATM    8  H   UNL     1      38.652 -14.037   0.387  1.00  0.00     0.280 HD
HETATM    9  C   UNL     1      39.187 -14.731  -1.442  1.00  0.00     0.235 C 
HETATM   10  C   UNL     1      39.654 -14.180  -2.778  1.00  0.00     0.029 C 
HETATM   11  C   UNL     1      38.795 -12.999  -3.230  1.00  0.00     0.014 C 
HETATM   12  C   UNL     1      40.107 -11.057  -2.191  1.00  0.00     0.014 C 
HETATM   13  C   UNL     1      40.365 -10.228  -3.454  1.00  0.00     0.029 C 
HETATM   14  C   UNL     1      39.218  -9.289  -3.781  1.00  0.00     0.234 C 
ENDROOT
BRANCH   7  15
HETATM   15  C   UNL     1      40.559 -13.440   0.278  1.00  0.00     0.323 C 
BRANCH  15  16
HETATM   16  C   UNL     1      40.871 -14.500   1.268  1.00  0.00     0.199 A 
HETATM   17  O   UNL     1      39.837 -15.027   1.968  1.00  0.00    -0.194 OA
HETATM   18  N   UNL     1      40.386 -16.001   2.792  1.00  0.00    -0.106 NA
HETATM   19  C   UNL     1      41.704 -15.955   2.533  1.00  0.00     0.189 A 
HETATM   20  N   UNL     1      42.034 -15.054   1.530  1.00  0.00    -0.202 NA
BRANCH  19  21
HETATM   21  C   UNL     1      42.704 -16.768   3.216  1.00  0.00     0.016 A 
HETATM   22  C   UNL     1      43.269 -16.325   4.421  1.00  0.00     0.039 A 
HETATM   23  C   UNL     1      44.214 -17.107   5.086  1.00  0.00     0.035 A 
HETATM   24 CL   UNL     1      44.894 -16.538   6.560  1.00  0.00    -0.084 Cl
HETATM   25  C   UNL     1      44.609 -18.337   4.567  1.00  0.00     0.024 A 
HETATM   26  C   UNL     1      44.053 -18.789   3.371  1.00  0.00     0.003 A 
HETATM   27  C   UNL     1      43.106 -18.010   2.699  1.00  0.00     0.015 A 
ENDBRANCH  19  21
ENDBRANCH  15  16
ENDBRANCH   7  15
TORSDOF 3
ENDMDL
MODEL 3
REMARK VINA RESULT:      -8.2      3.360      8.382
REMARK  3 active torsions:
REMARK  status: ('A' for Active; 'I' for Inactive)
REMARK    1  A    between atoms: N_7  and  C_9 
REMARK    2  A    between atoms: C_9  and  C_10 
REMARK    3  A    between atoms: C_13  and  C_14 
ROOT
HETATM    1  C   UNL     1      44.364 -19.131   4.752  1.00  0.00     0.269 C 
HETATM    2  N   UNL     1      43.271 -18.090   4.609  1.00  0.00    -0.074 N 
HETATM    3  H   UNL     1      42.453 -18.617   4.271  1.00  0.00     0.279 HD
HETATM    4  C   UNL     1      43.643 -17.025   3.605  1.00  0.00     0.245 C 
HETATM    5  C   UNL     1      42.472 -16.024   3.358  1.00  0.00     0.008 C 
HETATM    6  C   UNL     1      43.026 -14.887   2.442  1.00  0.00     0.246 C 
HETATM    7  N   UNL     1      41.972 -14.010   1.806  1.00  0.00    -0.063 N 
HETATM    8  H   UNL     1      42.475 -13.532   1.037  1.00  0.00     0.280 HD
HETATM    9  C   UNL     1      40.869 -14.768   1.119  1.00  0.00     0.235 C 
HETATM   10  C   UNL     1      40.256 -15.777   2.074  1.00  0.00     0.029 C 
HETATM   11  C   UNL     1      41.308 -16.739   2.627  1.00  0.00     0.014 C 
HETATM   12  C   UNL     1      42.023 -15.471   4.736  1.00  0.00     0.014 C 
HETATM   13  C   UNL     1      41.744 -16.553   5.784  1.00  0.00     0.029 C 
HETATM   14  C   UNL     1      42.909 -17.513   5.956  1.00  0.00     0.234 C 
ENDROOT
BRANCH   7  15
HETATM   15  C   UNL     1      41.485 -12.793   2.611  1.00  0.00     0.323 C 
BRANCH  15  16
HETATM   16  C   UNL     1      42.553 -12.194   3.449  1.00  0.00     0.199 A 
HETATM   17  O   UNL     1      43.687 -11.791   2.825  1.00  0.00    -0.194 OA
HETATM   18  N   UNL     1      44.500 -11.252   3.813  1.00  0.00    -0.106 NA
HETATM   19  C   UNL     1      43.794 -11.401   4.947  1.00  0.00     0.189 A 
HETATM   20  N   UNL     1      42.533 -11.942   4.739  1.00  0.00    -0.202 NA
BRANCH  19  21
HETATM   21  C   UNL     1      44.279 -11.029   6.271  1.00  0.00     0.016 A 
HETATM   22  C   UNL     1      43.385 -10.558   7.243  1.00  0.00     0.039 A 
HETATM   23  C   UNL     1      43.844 -10.216   8.516  1.00  0.00     0.035 A 
HETATM   24 CL   UNL     1      42.725  -9.638   9.688  1.00  0.00    -0.084 Cl
HETATM   25  C   UNL     1      45.192 -10.337   8.840  1.00  0.00     0.024 A 
HETATM   26  C   UNL     1      46.090 -10.805   7.883  1.00  0.00     0.003 A 
HETATM   27  C   UNL     1      45.638 -11.149   6.606  1.00  0.00     0.015 A 
ENDBRANCH  19  21
ENDBRANCH  15  16
ENDBRANCH   7  15
TORSDOF 3
ENDMDL
MODEL 4
REMARK VINA RESULT:      -7.8      6.429      8.442
REMARK  3 active torsions:
REMARK  status: ('A' for Active; 'I' for Inactive)
REMARK    1  A    between atoms: N_7  and  C_9 
REMARK    2  A    between atoms: C_9  and  C_10 
REMARK    3  A    between atoms: C_13  and  C_14 
ROOT
HETATM    1  C   UNL     1      38.624  -7.099  -3.107  1.00  0.00     0.269 C 
HETATM    2  N   UNL     1      39.642  -8.170  -2.768  1.00  0.00    -0.074 N 
HETATM    3  H   UNL     1      39.858  -8.618  -3.670  1.00  0.00     0.279 HD
HETATM    4  C   UNL     1      39.077  -9.193  -1.812  1.00  0.00     0.245 C 
HETATM    5  C   UNL     1      40.075 -10.366  -1.559  1.00  0.00     0.008 C 
HETATM    6  C   UNL     1      39.455 -11.261  -0.440  1.00  0.00     0.246 C 
HETATM    7  N   UNL     1      40.088 -12.626  -0.292  1.00  0.00    -0.063 N 
HETATM    8  H   UNL     1      39.395 -13.165   0.257  1.00  0.00     0.280 HD
HETATM    9  C   UNL     1      40.221 -13.388  -1.582  1.00  0.00     0.235 C 
HETATM   10  C   UNL     1      40.947 -12.544  -2.615  1.00  0.00     0.029 C 
HETATM   11  C   UNL     1      40.238 -11.210  -2.849  1.00  0.00     0.014 C 
HETATM   12  C   UNL     1      41.425  -9.751  -1.109  1.00  0.00     0.014 C 
HETATM   13  C   UNL     1      41.945  -8.641  -2.028  1.00  0.00     0.029 C 
HETATM   14  C   UNL     1      40.918  -7.545  -2.259  1.00  0.00     0.234 C 
ENDROOT
BRANCH   7  15
HETATM   15  C   UNL     1      41.314 -12.741   0.631  1.00  0.00     0.323 C 
BRANCH  15  16
HETATM   16  C   UNL     1      41.373 -14.037   1.349  1.00  0.00     0.199 A 
HETATM   17  O   UNL     1      40.199 -14.593   1.737  1.00  0.00    -0.194 OA
HETATM   18  N   UNL     1      40.525 -15.793   2.352  1.00  0.00    -0.106 NA
HETATM   19  C   UNL     1      41.868 -15.841   2.304  1.00  0.00     0.189 A 
HETATM   20  N   UNL     1      42.429 -14.770   1.623  1.00  0.00    -0.202 NA
BRANCH  19  21
HETATM   21  C   UNL     1      42.672 -16.907   2.891  1.00  0.00     0.016 A 
HETATM   22  C   UNL     1      42.887 -18.099   2.185  1.00  0.00     0.039 A 
HETATM   23  C   UNL     1      43.669 -19.115   2.737  1.00  0.00     0.035 A 
HETATM   24 CL   UNL     1      43.912 -20.568   1.850  1.00  0.00    -0.084 Cl
HETATM   25  C   UNL     1      44.248 -18.960   3.993  1.00  0.00     0.024 A 
HETATM   26  C   UNL     1      44.044 -17.779   4.704  1.00  0.00     0.003 A 
HETATM   27  C   UNL     1      43.261 -16.758   4.158  1.00  0.00     0.015 A 
ENDBRANCH  19  21
ENDBRANCH  15  16
ENDBRANCH   7  15
TORSDOF 3
ENDMDL
MODEL 5
REMARK VINA RESULT:      -7.8      2.503      3.900
REMARK  3 active torsions:
REMARK  status: ('A' for Active; 'I' for Inactive)
REMARK    1  A    between atoms: N_7  and  C_9 
REMARK    2  A    between atoms: C_9  and  C_10 
REMARK    3  A    between atoms: C_13  and  C_14 
ROOT
HETATM    1  C   UNL     1      44.667  -9.678   7.907  1.00  0.00     0.269 C 
HETATM    2  N   UNL     1      44.164 -10.785   7.003  1.00  0.00    -0.074 N 
HETATM    3  H   UNL     1      44.939 -10.956   6.346  1.00  0.00     0.279 HD
HETATM    4  C   UNL     1      42.931 -10.365   6.239  1.00  0.00     0.245 C 
HETATM    5  C   UNL     1      42.484 -11.453   5.212  1.00  0.00     0.008 C 
HETATM    6  C   UNL     1      41.121 -10.983   4.613  1.00  0.00     0.246 C 
HETATM    7  N   UNL     1      40.692 -11.712   3.359  1.00  0.00    -0.063 N 
HETATM    8  H   UNL     1      39.961 -11.100   2.952  1.00  0.00     0.280 HD
HETATM    9  C   UNL     1      41.753 -11.788   2.296  1.00  0.00     0.235 C 
HETATM   10  C   UNL     1      43.030 -12.374   2.873  1.00  0.00     0.029 C 
HETATM   11  C   UNL     1      43.527 -11.564   4.071  1.00  0.00     0.014 C 
HETATM   12  C   UNL     1      42.334 -12.793   5.978  1.00  0.00     0.014 C 
HETATM   13  C   UNL     1      43.549 -13.165   6.833  1.00  0.00     0.029 C 
HETATM   14  C   UNL     1      43.953 -12.057   7.789  1.00  0.00     0.234 C 
ENDROOT
BRANCH   7  15
HETATM   15  C   UNL     1      39.890 -13.013   3.537  1.00  0.00     0.323 C 
BRANCH  15  16
HETATM   16  C   UNL     1      40.636 -14.213   3.086  1.00  0.00     0.199 A 
HETATM   17  O   UNL     1      40.547 -14.551   1.776  1.00  0.00    -0.194 OA
HETATM   18  N   UNL     1      41.345 -15.674   1.612  1.00  0.00    -0.106 NA
HETATM   19  C   UNL     1      41.822 -15.929   2.843  1.00  0.00     0.189 A 
HETATM   20  N   UNL     1      41.436 -14.987   3.785  1.00  0.00    -0.202 NA
BRANCH  19  21
HETATM   21  C   UNL     1      42.670 -17.069   3.174  1.00  0.00     0.016 A 
HETATM   22  C   UNL     1      42.752 -18.163   2.302  1.00  0.00     0.039 A 
HETATM   23  C   UNL     1      43.574 -19.249   2.608  1.00  0.00     0.035 A 
HETATM   24 CL   UNL     1      43.654 -20.580   1.521  1.00  0.00    -0.084 Cl
HETATM   25  C   UNL     1      44.324 -19.262   3.780  1.00  0.00     0.024 A 
HETATM   26  C   UNL     1      44.252 -18.179   4.655  1.00  0.00     0.003 A 
HETATM   27  C   UNL     1      43.430 -17.089   4.355  1.00  0.00     0.015 A 
ENDBRANCH  19  21
ENDBRANCH  15  16
ENDBRANCH   7  15
TORSDOF 3
ENDMDL
MODEL 6
REMARK VINA RESULT:      -7.8      3.450      4.522
REMARK  3 active torsions:
REMARK  status: ('A' for Active; 'I' for Inactive)
REMARK    1  A    between atoms: N_7  and  C_9 
REMARK    2  A    between atoms: C_9  and  C_10 
REMARK    3  A    between atoms: C_13  and  C_14 
ROOT
HETATM    1  C   UNL     1      39.069  -9.575   9.466  1.00  0.00     0.269 C 
HETATM    2  N   UNL     1      39.614  -9.558   8.052  1.00  0.00    -0.074 N 
HETATM    3  H   UNL     1      39.206  -8.713   7.626  1.00  0.00     0.279 HD
HETATM    4  C   UNL     1      39.186 -10.780   7.274  1.00  0.00     0.245 C 
HETATM    5  C   UNL     1      39.635 -10.707   5.781  1.00  0.00     0.008 C 
HETATM    6  C   UNL     1      39.288 -12.083   5.131  1.00  0.00     0.246 C 
HETATM    7  N   UNL     1      39.322 -12.099   3.619  1.00  0.00    -0.063 N 
HETATM    8  H   UNL     1      38.800 -12.958   3.367  1.00  0.00     0.280 HD
HETATM    9  C   UNL     1      38.549 -10.984   2.971  1.00  0.00     0.235 C 
HETATM   10  C   UNL     1      39.001  -9.644   3.526  1.00  0.00     0.029 C 
HETATM   11  C   UNL     1      38.854  -9.588   5.047  1.00  0.00     0.014 C 
HETATM   12  C   UNL     1      41.164 -10.441   5.760  1.00  0.00     0.014 C 
HETATM   13  C   UNL     1      41.606  -9.261   6.632  1.00  0.00     0.029 C 
HETATM   14  C   UNL     1      41.113  -9.375   8.064  1.00  0.00     0.234 C 
ENDROOT
BRANCH   7  15
HETATM   15  C   UNL     1      40.674 -12.396   2.946  1.00  0.00     0.323 C 
BRANCH  15  16
HETATM   16  C   UNL     1      40.971 -13.848   2.869  1.00  0.00     0.199 A 
HETATM   17  O   UNL     1      40.055 -14.643   2.264  1.00  0.00    -0.194 OA
HETATM   18  N   UNL     1      40.577 -15.928   2.300  1.00  0.00    -0.106 NA
HETATM   19  C   UNL     1      41.748 -15.797   2.946  1.00  0.00     0.189 A 
HETATM   20  N   UNL     1      42.051 -14.481   3.267  1.00  0.00    -0.202 NA
BRANCH  19  21
HETATM   21  C   UNL     1      42.633 -16.909   3.276  1.00  0.00     0.016 A 
HETATM   22  C   UNL     1      42.721 -18.017   2.421  1.00  0.00     0.039 A 
HETATM   23  C   UNL     1      43.578 -19.076   2.726  1.00  0.00     0.035 A 
HETATM   24 CL   UNL     1      43.664 -20.424   1.661  1.00  0.00    -0.084 Cl
HETATM   25  C   UNL     1      44.357 -19.049   3.878  1.00  0.00     0.024 A 
HETATM   26  C   UNL     1      44.280 -17.952   4.735  1.00  0.00     0.003 A 
HETATM   27  C   UNL     1      43.423 -16.888   4.437  1.00  0.00     0.015 A 
ENDBRANCH  19  21
ENDBRANCH  15  16
ENDBRANCH   7  15
TORSDOF 3
ENDMDL
MODEL 7
REMARK VINA RESULT:      -7.7      3.284      4.751
REMARK  3 active torsions:
REMARK  status: ('A' for Active; 'I' for Inactive)
REMARK    1  A    between atoms: N_7  and  C_9 
REMARK    2  A    between atoms: C_9  and  C_10 
REMARK    3  A    between atoms: C_13  and  C_14 
ROOT
HETATM    1  C   UNL     1      39.423 -10.089   7.943  1.00  0.00     0.269 C 
HETATM    2  N   UNL     1      39.992 -10.214   6.543  1.00  0.00    -0.074 N 
HETATM    3  H   UNL     1      39.500  -9.491   5.997  1.00  0.00     0.279 HD
HETATM    4  C   UNL     1      39.721 -11.575   5.950  1.00  0.00     0.245 C 
HETATM    5  C   UNL     1      40.189 -11.667   4.464  1.00  0.00     0.008 C 
HETATM    6  C   UNL     1      40.013 -13.153   4.019  1.00  0.00     0.246 C 
HETATM    7  N   UNL     1      40.080 -13.383   2.526  1.00  0.00    -0.063 N 
HETATM    8  H   UNL     1      39.663 -14.323   2.399  1.00  0.00     0.280 HD
HETATM    9  C   UNL     1      39.199 -12.468   1.719  1.00  0.00     0.235 C 
HETATM   10  C   UNL     1      39.486 -11.020   2.075  1.00  0.00     0.029 C 
HETATM   11  C   UNL     1      39.302 -10.762   3.571  1.00  0.00     0.014 C 
HETATM   12  C   UNL     1      41.678 -11.233   4.410  1.00  0.00     0.014 C 
HETATM   13  C   UNL     1      41.966  -9.898   5.103  1.00  0.00     0.029 C 
HETATM   14  C   UNL     1      41.460  -9.860   6.534  1.00  0.00     0.234 C 
ENDROOT
BRANCH   7  15
HETATM   15  C   UNL     1      41.470 -13.616   1.908  1.00  0.00     0.323 C 
BRANCH  15  16
HETATM   16  C   UNL     1      42.180 -14.771   2.512  1.00  0.00     0.199 A 
HETATM   17  O   UNL     1      43.023 -14.518   3.543  1.00  0.00    -0.194 OA
HETATM   18  N   UNL     1      43.529 -15.748   3.938  1.00  0.00    -0.106 NA
HETATM   19  C   UNL     1      42.966 -16.629   3.093  1.00  0.00     0.189 A 
HETATM   20  N   UNL     1      42.062 -16.046   2.217  1.00  0.00    -0.202 NA
BRANCH  19  21
HETATM   21  C   UNL     1      43.253 -18.059   3.088  1.00  0.00     0.016 A 
HETATM   22  C   UNL     1      43.701 -18.692   4.256  1.00  0.00     0.039 A 
HETATM   23  C   UNL     1      43.962 -20.064   4.259  1.00  0.00     0.035 A 
HETATM   24 CL   UNL     1      44.515 -20.814   5.705  1.00  0.00    -0.084 Cl
HETATM   25  C   UNL     1      43.780 -20.823   3.107  1.00  0.00     0.024 A 
HETATM   26  C   UNL     1      43.333 -20.205   1.940  1.00  0.00     0.003 A 
HETATM   27  C   UNL     1      43.071 -18.832   1.929  1.00  0.00     0.015 A 
ENDBRANCH  19  21
ENDBRANCH  15  16
ENDBRANCH   7  15
TORSDOF 3
ENDMDL
MODEL 8
REMARK VINA RESULT:      -7.5      4.493      5.340
REMARK  3 active torsions:
REMARK  status: ('A' for Active; 'I' for Inactive)
REMARK    1  A    between atoms: N_7  and  C_9 
REMARK    2  A    between atoms: C_9  and  C_10 
REMARK    3  A    between atoms: C_13  and  C_14 
ROOT
HETATM    1  C   UNL     1      36.824  -7.294   5.145  1.00  0.00     0.269 C 
HETATM    2  N   UNL     1      37.899  -8.048   4.387  1.00  0.00    -0.074 N 
HETATM    3  H   UNL     1      37.502  -8.192   3.448  1.00  0.00     0.279 HD
HETATM    4  C   UNL     1      38.201  -9.382   5.026  1.00  0.00     0.245 C 
HETATM    5  C   UNL     1      39.213 -10.217   4.180  1.00  0.00     0.008 C 
HETATM    6  C   UNL     1      39.570 -11.486   5.016  1.00  0.00     0.246 C 
HETATM    7  N   UNL     1      40.259 -12.586   4.239  1.00  0.00    -0.063 N 
HETATM    8  H   UNL     1      40.152 -13.422   4.843  1.00  0.00     0.280 HD
HETATM    9  C   UNL     1      39.570 -12.960   2.956  1.00  0.00     0.235 C 
HETATM   10  C   UNL     1      39.354 -11.724   2.100  1.00  0.00     0.029 C 
HETATM   11  C   UNL     1      38.554 -10.657   2.848  1.00  0.00     0.014 C 
HETATM   12  C   UNL     1      40.463  -9.333   3.931  1.00  0.00     0.014 C 
HETATM   13  C   UNL     1      40.145  -7.940   3.378  1.00  0.00     0.029 C 
HETATM   14  C   UNL     1      39.132  -7.191   4.227  1.00  0.00     0.234 C 
ENDROOT
BRANCH   7  15
HETATM   15  C   UNL     1      41.792 -12.522   4.131  1.00  0.00     0.323 C 
BRANCH  15  16
HETATM   16  C   UNL     1      42.389 -13.800   3.672  1.00  0.00     0.199 A 
HETATM   17  O   UNL     1      42.911 -13.834   2.421  1.00  0.00    -0.194 OA
HETATM   18  N   UNL     1      43.422 -15.113   2.251  1.00  0.00    -0.106 NA
HETATM   19  C   UNL     1      43.140 -15.743   3.404  1.00  0.00     0.189 A 
HETATM   20  N   UNL     1      42.538 -14.919   4.345  1.00  0.00    -0.202 NA
BRANCH  19  21
HETATM   21  C   UNL     1      43.437 -17.147   3.666  1.00  0.00     0.016 A 
HETATM   22  C   UNL     1      43.399 -18.082   2.622  1.00  0.00     0.039 A 
HETATM   23  C   UNL     1      43.698 -19.424   2.867  1.00  0.00     0.035 A 
HETATM   24 CL   UNL     1      43.640 -20.550   1.568  1.00  0.00    -0.084 Cl
HETATM   25  C   UNL     1      44.040 -19.853   4.145  1.00  0.00     0.024 A 
HETATM   26  C   UNL     1      44.083 -18.932   5.191  1.00  0.00     0.003 A 
HETATM   27  C   UNL     1      43.783 -17.587   4.954  1.00  0.00     0.015 A 
ENDBRANCH  19  21
ENDBRANCH  15  16
ENDBRANCH   7  15
TORSDOF 3
ENDMDL
MODEL 9
REMARK VINA RESULT:      -7.4      2.636      4.268
REMARK  3 active torsions:
REMARK  status: ('A' for Active; 'I' for Inactive)
REMARK    1  A    between atoms: N_7  and  C_9 
REMARK    2  A    between atoms: C_9  and  C_10 
REMARK    3  A    between atoms: C_13  and  C_14 
ROOT
HETATM    1  C   UNL     1      39.582  -7.003  13.997  1.00  0.00     0.269 C 
HETATM    2  N   UNL     1      40.898  -7.154  13.260  1.00  0.00    -0.074 N 
HETATM    3  H   UNL     1      41.150  -6.195  12.980  1.00  0.00     0.279 HD
HETATM    4  C   UNL     1      40.755  -8.024  12.034  1.00  0.00     0.245 C 
HETATM    5  C   UNL     1      42.074  -8.078  11.202  1.00  0.00     0.008 C 
HETATM    6  C   UNL     1      41.855  -9.128  10.067  1.00  0.00     0.246 C 
HETATM    7  N   UNL     1      42.875  -9.080   8.951  1.00  0.00    -0.063 N 
HETATM    8  H   UNL     1      42.427  -9.609   8.181  1.00  0.00     0.280 HD
HETATM    9  C   UNL     1      43.104  -7.708   8.381  1.00  0.00     0.235 C 
HETATM   10  C   UNL     1      43.446  -6.731   9.493  1.00  0.00     0.029 C 
HETATM   11  C   UNL     1      42.355  -6.694  10.564  1.00  0.00     0.014 C 
HETATM   12  C   UNL     1      43.218  -8.507  12.157  1.00  0.00     0.014 C 
HETATM   13  C   UNL     1      43.297  -7.687  13.448  1.00  0.00     0.029 C 
HETATM   14  C   UNL     1      41.975  -7.647  14.197  1.00  0.00     0.234 C 
ENDROOT
BRANCH   7  15
HETATM   15  C   UNL     1      44.162  -9.904   9.134  1.00  0.00     0.323 C 
BRANCH  15  16
HETATM   16  C   UNL     1      44.337 -10.936   8.083  1.00  0.00     0.199 A 
HETATM   17  O   UNL     1      45.349 -10.763   7.197  1.00  0.00    -0.194 OA
HETATM   18  N   UNL     1      45.313 -11.862   6.351  1.00  0.00    -0.106 NA
HETATM   19  C   UNL     1      44.268 -12.586   6.786  1.00  0.00     0.189 A 
HETATM   20  N   UNL     1      43.666 -12.054   7.918  1.00  0.00    -0.202 NA
BRANCH  19  21
HETATM   21  C   UNL     1      43.802 -13.816   6.155  1.00  0.00     0.016 A 
HETATM   22  C   UNL     1      43.090 -13.763   4.948  1.00  0.00     0.039 A 
HETATM   23  C   UNL     1      42.656 -14.938   4.333  1.00  0.00     0.035 A 
HETATM   24 CL   UNL     1      41.781 -14.843   2.855  1.00  0.00    -0.084 Cl
HETATM   25  C   UNL     1      42.924 -16.179   4.905  1.00  0.00     0.024 A 
HETATM   26  C   UNL     1      43.632 -16.245   6.103  1.00  0.00     0.003 A 
HETATM   27  C   UNL     1      44.069 -15.072   6.725  1.00  0.00     0.015 A 
ENDBRANCH  19  21
ENDBRANCH  15  16
ENDBRANCH   7  15
TORSDOF 3
ENDMDL
MODEL 10
REMARK VINA RESULT:      -7.3      3.158      4.189
REMARK  3 active torsions:
REMARK  status: ('A' for Active; 'I' for Inactive)
REMARK    1  A    between atoms: N_7  and  C_9 
REMARK    2  A    between atoms: C_9  and  C_10 
REMARK    3  A    between atoms: C_13  and  C_14 
ROOT
HETATM    1  C   UNL     1      38.197  -6.267   6.629  1.00  0.00     0.269 C 
HETATM    2  N   UNL     1      38.874  -7.366   5.834  1.00  0.00    -0.074 N 
HETATM    3  H   UNL     1      38.122  -7.771   5.258  1.00  0.00     0.279 HD
HETATM    4  C   UNL     1      39.457  -8.429   6.735  1.00  0.00     0.245 C 
HETATM    5  C   UNL     1      40.041  -9.625   5.920  1.00  0.00     0.008 C 
HETATM    6  C   UNL     1      40.756 -10.567   6.940  1.00  0.00     0.246 C 
HETATM    7  N   UNL     1      41.084 -11.945   6.412  1.00  0.00    -0.063 N 
HETATM    8  H   UNL     1      41.268 -12.503   7.266  1.00  0.00     0.280 HD
HETATM    9  C   UNL     1      39.929 -12.644   5.749  1.00  0.00     0.235 C 
HETATM   10  C   UNL     1      39.334 -11.758   4.668  1.00  0.00     0.029 C 
HETATM   11  C   UNL     1      38.895 -10.406   5.229  1.00  0.00     0.014 C 
HETATM   12  C   UNL     1      41.042  -9.049   4.885  1.00  0.00     0.014 C 
HETATM   13  C   UNL     1      40.478  -7.901   4.041  1.00  0.00     0.029 C 
HETATM   14  C   UNL     1      39.898  -6.783   4.889  1.00  0.00     0.234 C 
ENDROOT
BRANCH   7  15
HETATM   15  C   UNL     1      42.425 -12.121   5.679  1.00  0.00     0.323 C 
BRANCH  15  16
HETATM   16  C   UNL     1      42.870 -13.535   5.626  1.00  0.00     0.199 A 
HETATM   17  O   UNL     1      43.481 -14.041   6.725  1.00  0.00    -0.194 OA
HETATM   18  N   UNL     1      43.768 -15.367   6.431  1.00  0.00    -0.106 NA
HETATM   19  C   UNL     1      43.328 -15.533   5.172  1.00  0.00     0.189 A 
HETATM   20  N   UNL     1      42.703 -14.407   4.657  1.00  0.00    -0.202 NA
BRANCH  19  21
HETATM   21  C   UNL     1      43.474 -16.768   4.409  1.00  0.00     0.016 A 
HETATM   22  C   UNL     1      43.903 -17.942   5.043  1.00  0.00     0.039 A 
HETATM   23  C   UNL     1      44.029 -19.129   4.319  1.00  0.00     0.035 A 
HETATM   24 CL   UNL     1      44.562 -20.554   5.123  1.00  0.00    -0.084 Cl
HETATM   25  C   UNL     1      43.728 -19.167   2.961  1.00  0.00     0.024 A 
HETATM   26  C   UNL     1      43.298 -18.007   2.320  1.00  0.00     0.003 A 
HETATM   27  C   UNL     1      43.171 -16.814   3.038  1.00  0.00     0.015 A 
ENDBRANCH  19  21
ENDBRANCH  15  16
ENDBRANCH   7  15
TORSDOF 3
ENDMDL
