MODEL 1
REMARK VINA RESULT:      -9.0      0.000      0.000
REMARK  3 active torsions:
REMARK  status: ('A' for Active; 'I' for Inactive)
REMARK    1  A    between atoms: C_6  and  C_7 
REMARK    2  A    between atoms: C_7  and  N_8 
REMARK    3  A    between atoms: C_12  and  C_13 
ROOT
HETATM    1  N   UNL     1      42.419 -12.786   6.526  1.00  0.00    -0.066 N 
HETATM    2  H   UNL     1      42.111 -12.521   7.471  1.00  0.00     0.280 HD
HETATM    3  C   UNL     1      41.173 -12.989   5.691  1.00  0.00     0.236 C 
HETATM    4  C   UNL     1      40.348 -14.141   6.258  1.00  0.00     0.037 C 
HETATM    5  C   UNL     1      41.158 -15.453   6.323  1.00  0.00     0.024 C 
HETATM    6  C   UNL     1      42.374 -15.169   7.213  1.00  0.00     0.037 C 
HETATM    7  C   UNL     1      43.239 -14.049   6.656  1.00  0.00     0.236 C 
ENDROOT
BRANCH   1   8
HETATM    8  C   UNL     1      43.275 -11.642   6.022  1.00  0.00     0.293 C 
BRANCH   8   9
HETATM    9  C   UNL     1      44.244 -11.170   7.029  1.00  0.00     0.061 A 
HETATM   10  N   UNL     1      43.914 -10.510   8.203  1.00  0.00    -0.308 N 
HETATM   11  C   UNL     1      45.116 -10.233   8.850  1.00  0.00     0.134 A 
HETATM   12  C   UNL     1      42.672 -10.148   8.731  1.00  0.00     0.099 A 
HETATM   13  C   UNL     1      45.053  -9.549  10.095  1.00  0.00     0.057 A 
HETATM   14  N   UNL     1      46.145 -10.668   8.158  1.00  0.00    -0.241 NA
HETATM   15  C   UNL     1      43.860  -9.188  10.615  1.00  0.00    -0.057 A 
HETATM   16  C   UNL     1      43.735  -8.448  11.915  1.00  0.00     0.048 C 
HETATM   17  C   UNL     1      42.620  -9.502   9.908  1.00  0.00     0.024 A 
HETATM   18  C   UNL     1      45.625 -11.214   7.023  1.00  0.00     0.146 A 
ENDBRANCH   8   9
ENDBRANCH   1   8
BRANCH   5  19
HETATM   19  C   UNL     1      41.473 -16.013   4.942  1.00  0.00    -0.024 A 
HETATM   20  C   UNL     1      42.488 -16.958   4.529  1.00  0.00     0.018 A 
HETATM   21  C   UNL     1      42.372 -17.106   3.148  1.00  0.00     0.138 A 
HETATM   22  C   UNL     1      43.505 -17.723   5.136  1.00  0.00     0.017 A 
HETATM   23  N   UNL     1      43.131 -17.845   2.322  1.00  0.00    -0.242 NA
HETATM   24  N   UNL     1      41.304 -16.376   2.726  1.00  0.00    -0.350 N 
HETATM   25  C   UNL     1      44.094 -18.540   2.958  1.00  0.00     0.119 A 
HETATM   26  C   UNL     1      44.317 -18.522   4.325  1.00  0.00     0.020 A 
HETATM   27  H   UNL     1      40.982 -16.364   1.768  1.00  0.00     0.166 HD
HETATM   28  C   UNL     1      40.746 -15.723   3.792  1.00  0.00     0.098 A 
ENDBRANCH   5  19
TORSDOF 3
ENDMDL
MODEL 2
REMARK VINA RESULT:      -8.7      1.622      8.491
REMARK  3 active torsions:
REMARK  status: ('A' for Active; 'I' for Inactive)
REMARK    1  A    between atoms: C_6  and  C_7 
REMARK    2  A    between atoms: C_7  and  N_8 
REMARK    3  A    between atoms: C_12  and  C_13 
ROOT
HETATM    1  N   UNL     1      42.999 -13.863   5.543  1.00  0.00    -0.066 N 
HETATM    2  H   UNL     1      43.582 -14.172   4.754  1.00  0.00     0.280 HD
HETATM    3  C   UNL     1      42.281 -12.606   5.101  1.00  0.00     0.236 C 
HETATM    4  C   UNL     1      43.295 -11.504   4.806  1.00  0.00     0.037 C 
HETATM    5  C   UNL     1      44.188 -11.200   6.027  1.00  0.00     0.024 C 
HETATM    6  C   UNL     1      44.901 -12.509   6.381  1.00  0.00     0.037 C 
HETATM    7  C   UNL     1      43.918 -13.621   6.717  1.00  0.00     0.236 C 
ENDROOT
BRANCH   1   8
HETATM    8  C   UNL     1      42.045 -15.003   5.836  1.00  0.00     0.293 C 
BRANCH   8   9
HETATM    9  C   UNL     1      42.715 -16.318   5.844  1.00  0.00     0.061 A 
HETATM   10  N   UNL     1      42.921 -17.112   4.726  1.00  0.00    -0.308 N 
HETATM   11  C   UNL     1      43.567 -18.261   5.175  1.00  0.00     0.134 A 
HETATM   12  C   UNL     1      42.596 -16.904   3.384  1.00  0.00     0.099 A 
HETATM   13  C   UNL     1      43.895 -19.254   4.210  1.00  0.00     0.057 A 
HETATM   14  N   UNL     1      43.762 -18.227   6.474  1.00  0.00    -0.241 NA
HETATM   15  C   UNL     1      43.582 -19.069   2.910  1.00  0.00    -0.057 A 
HETATM   16  C   UNL     1      43.887 -20.089   1.852  1.00  0.00     0.048 C 
HETATM   17  C   UNL     1      42.909 -17.846   2.477  1.00  0.00     0.024 A 
HETATM   18  C   UNL     1      43.213 -17.055   6.901  1.00  0.00     0.146 A 
ENDBRANCH   8   9
ENDBRANCH   1   8
BRANCH   5  19
HETATM   19  C   UNL     1      43.416 -10.545   7.166  1.00  0.00    -0.024 A 
HETATM   20  C   UNL     1      43.858 -10.155   8.487  1.00  0.00     0.018 A 
HETATM   21  C   UNL     1      42.749  -9.632   9.152  1.00  0.00     0.138 A 
HETATM   22  C   UNL     1      45.056 -10.169   9.229  1.00  0.00     0.017 A 
HETATM   23  N   UNL     1      42.670  -9.185  10.416  1.00  0.00    -0.242 NA
HETATM   24  N   UNL     1      41.700  -9.609   8.285  1.00  0.00    -0.350 N 
HETATM   25  C   UNL     1      43.842  -9.237  11.077  1.00  0.00     0.119 A 
HETATM   26  C   UNL     1      45.034  -9.702  10.547  1.00  0.00     0.020 A 
HETATM   27  H   UNL     1      40.796  -9.224   8.517  1.00  0.00     0.166 HD
HETATM   28  C   UNL     1      42.087 -10.143   7.085  1.00  0.00     0.098 A 
ENDBRANCH   5  19
TORSDOF 3
ENDMDL
MODEL 3
REMARK VINA RESULT:      -8.7      3.723      5.926
REMARK  3 active torsions:
REMARK  status: ('A' for Active; 'I' for Inactive)
REMARK    1  A    between atoms: C_6  and  C_7 
REMARK    2  A    between atoms: C_7  and  N_8 
REMARK    3  A    between atoms: C_12  and  C_13 
ROOT
HETATM    1  N   UNL     1      41.514 -14.281   6.616  1.00  0.00    -0.066 N 
HETATM    2  H   UNL     1      41.734 -13.885   7.539  1.00  0.00     0.280 HD
HETATM    3  C   UNL     1      41.389 -15.779   6.791  1.00  0.00     0.236 C 
HETATM    4  C   UNL     1      42.724 -16.363   7.248  1.00  0.00     0.037 C 
HETATM    5  C   UNL     1      43.863 -16.041   6.257  1.00  0.00     0.024 C 
HETATM    6  C   UNL     1      43.943 -14.513   6.169  1.00  0.00     0.037 C 
HETATM    7  C   UNL     1      42.638 -13.901   5.681  1.00  0.00     0.236 C 
ENDROOT
BRANCH   1   8
HETATM    8  C   UNL     1      40.214 -13.639   6.178  1.00  0.00     0.293 C 
BRANCH   8   9
HETATM    9  C   UNL     1      40.334 -12.935   4.887  1.00  0.00     0.061 A 
HETATM   10  N   UNL     1      40.232 -13.536   3.641  1.00  0.00    -0.308 N 
HETATM   11  C   UNL     1      40.420 -12.525   2.701  1.00  0.00     0.134 A 
HETATM   12  C   UNL     1      39.989 -14.864   3.282  1.00  0.00     0.099 A 
HETATM   13  C   UNL     1      40.364 -12.884   1.326  1.00  0.00     0.057 A 
HETATM   14  N   UNL     1      40.633 -11.365   3.279  1.00  0.00    -0.241 NA
HETATM   15  C   UNL     1      40.136 -14.165   0.965  1.00  0.00    -0.057 A 
HETATM   16  C   UNL     1      40.085 -14.604  -0.470  1.00  0.00     0.048 C 
HETATM   17  C   UNL     1      39.937 -15.196   1.981  1.00  0.00     0.024 A 
HETATM   18  C   UNL     1      40.617 -11.610   4.619  1.00  0.00     0.146 A 
ENDBRANCH   8   9
ENDBRANCH   1   8
BRANCH   5  19
HETATM   19  C   UNL     1      43.703 -16.767   4.928  1.00  0.00    -0.024 A 
HETATM   20  C   UNL     1      43.783 -18.179   4.622  1.00  0.00     0.018 A 
HETATM   21  C   UNL     1      43.597 -18.311   3.247  1.00  0.00     0.138 A 
HETATM   22  C   UNL     1      43.990 -19.385   5.323  1.00  0.00     0.017 A 
HETATM   23  N   UNL     1      43.634 -19.430   2.505  1.00  0.00    -0.242 NA
HETATM   24  N   UNL     1      43.328 -17.081   2.729  1.00  0.00    -0.350 N 
HETATM   25  C   UNL     1      43.849 -20.545   3.227  1.00  0.00     0.119 A 
HETATM   26  C   UNL     1      44.024 -20.581   4.601  1.00  0.00     0.020 A 
HETATM   27  H   UNL     1      43.104 -16.924   1.757  1.00  0.00     0.166 HD
HETATM   28  C   UNL     1      43.377 -16.144   3.727  1.00  0.00     0.098 A 
ENDBRANCH   5  19
TORSDOF 3
ENDMDL
MODEL 4
REMARK VINA RESULT:      -8.6      2.356      3.972
REMARK  3 active torsions:
REMARK  status: ('A' for Active; 'I' for Inactive)
REMARK    1  A    between atoms: C_6  and  C_7 
REMARK    2  A    between atoms: C_7  and  N_8 
REMARK    3  A    between atoms: C_12  and  C_13 
ROOT
HETATM    1  N   UNL     1      40.977 -14.007   3.274  1.00  0.00    -0.066 N 
HETATM    2  H   UNL     1      40.639 -13.470   2.466  1.00  0.00     0.280 HD
HETATM    3  C   UNL     1      42.490 -13.953   3.245  1.00  0.00     0.236 C 
HETATM    4  C   UNL     1      43.010 -14.630   1.979  1.00  0.00     0.037 C 
HETATM    5  C   UNL     1      42.532 -16.093   1.870  1.00  0.00     0.024 C 
HETATM    6  C   UNL     1      41.000 -16.051   1.870  1.00  0.00     0.037 C 
HETATM    7  C   UNL     1      40.447 -15.416   3.136  1.00  0.00     0.236 C 
ENDROOT
BRANCH   1   8
HETATM    8  C   UNL     1      40.398 -13.335   4.502  1.00  0.00     0.293 C 
BRANCH   8   9
HETATM    9  C   UNL     1      41.088 -12.077   4.842  1.00  0.00     0.061 A 
HETATM   10  N   UNL     1      42.184 -11.974   5.686  1.00  0.00    -0.308 N 
HETATM   11  C   UNL     1      42.509 -10.620   5.742  1.00  0.00     0.134 A 
HETATM   12  C   UNL     1      42.897 -12.951   6.383  1.00  0.00     0.099 A 
HETATM   13  C   UNL     1      43.614 -10.240   6.555  1.00  0.00     0.057 A 
HETATM   14  N   UNL     1      41.695  -9.899   5.006  1.00  0.00    -0.241 NA
HETATM   15  C   UNL     1      44.309 -11.174   7.239  1.00  0.00    -0.057 A 
HETATM   16  C   UNL     1      45.470 -10.830   8.125  1.00  0.00     0.048 C 
HETATM   17  C   UNL     1      43.939 -12.585   7.149  1.00  0.00     0.024 A 
HETATM   18  C   UNL     1      40.798 -10.777   4.476  1.00  0.00     0.146 A 
ENDBRANCH   8   9
ENDBRANCH   1   8
BRANCH   5  19
HETATM   19  C   UNL     1      43.164 -16.994   2.925  1.00  0.00    -0.024 A 
HETATM   20  C   UNL     1      43.402 -18.420   2.910  1.00  0.00     0.018 A 
HETATM   21  C   UNL     1      43.973 -18.753   4.138  1.00  0.00     0.138 A 
HETATM   22  C   UNL     1      43.214 -19.497   2.020  1.00  0.00     0.017 A 
HETATM   23  N   UNL     1      44.322 -19.967   4.593  1.00  0.00    -0.242 NA
HETATM   24  N   UNL     1      44.166 -17.606   4.846  1.00  0.00    -0.350 N 
HETATM   25  C   UNL     1      44.105 -20.955   3.704  1.00  0.00     0.119 A 
HETATM   26  C   UNL     1      43.573 -20.782   2.437  1.00  0.00     0.020 A 
HETATM   27  H   UNL     1      44.616 -17.581   5.750  1.00  0.00     0.166 HD
HETATM   28  C   UNL     1      43.696 -16.540   4.127  1.00  0.00     0.098 A 
ENDBRANCH   5  19
TORSDOF 3
ENDMDL
MODEL 5
REMARK VINA RESULT:      -8.4      2.376      8.999
REMARK  3 active torsions:
REMARK  status: ('A' for Active; 'I' for Inactive)
REMARK    1  A    between atoms: C_6  and  C_7 
REMARK    2  A    between atoms: C_7  and  N_8 
REMARK    3  A    between atoms: C_12  and  C_13 
ROOT
HETATM    1  N   UNL     1      43.401 -10.521   7.108  1.00  0.00    -0.066 N 
HETATM    2  H   UNL     1      43.949 -10.126   6.334  1.00  0.00     0.280 HD
HETATM    3  C   UNL     1      42.714  -9.366   7.804  1.00  0.00     0.236 C 
HETATM    4  C   UNL     1      43.756  -8.422   8.399  1.00  0.00     0.037 C 
HETATM    5  C   UNL     1      44.694  -9.149   9.386  1.00  0.00     0.024 C 
HETATM    6  C   UNL     1      45.372 -10.272   8.593  1.00  0.00     0.037 C 
HETATM    7  C   UNL     1      44.362 -11.253   8.017  1.00  0.00     0.236 C 
ENDROOT
BRANCH   1   8
HETATM    8  C   UNL     1      42.417 -11.488   6.481  1.00  0.00     0.293 C 
BRANCH   8   9
HETATM    9  C   UNL     1      42.665 -11.698   5.042  1.00  0.00     0.061 A 
HETATM   10  N   UNL     1      42.801 -12.935   4.431  1.00  0.00    -0.308 N 
HETATM   11  C   UNL     1      43.037 -12.683   3.082  1.00  0.00     0.134 A 
HETATM   12  C   UNL     1      42.730 -14.228   4.956  1.00  0.00     0.099 A 
HETATM   13  C   UNL     1      43.216 -13.802   2.222  1.00  0.00     0.057 A 
HETATM   14  N   UNL     1      43.061 -11.393   2.831  1.00  0.00    -0.241 NA
HETATM   15  C   UNL     1      43.156 -15.057   2.717  1.00  0.00    -0.057 A 
HETATM   16  C   UNL     1      43.356 -16.274   1.861  1.00  0.00     0.048 C 
HETATM   17  C   UNL     1      42.900 -15.281   4.138  1.00  0.00     0.024 A 
HETATM   18  C   UNL     1      42.868 -10.779   4.031  1.00  0.00     0.146 A 
ENDBRANCH   8   9
ENDBRANCH   1   8
BRANCH   5  19
HETATM   19  C   UNL     1      43.980  -9.583  10.659  1.00  0.00    -0.024 A 
HETATM   20  C   UNL     1      43.299  -8.792  11.661  1.00  0.00     0.018 A 
HETATM   21  C   UNL     1      42.849  -9.675  12.642  1.00  0.00     0.138 A 
HETATM   22  C   UNL     1      42.995  -7.434  11.884  1.00  0.00     0.017 A 
HETATM   23  N   UNL     1      42.205  -9.391  13.786  1.00  0.00    -0.242 NA
HETATM   24  N   UNL     1      43.143 -10.944  12.247  1.00  0.00    -0.350 N 
HETATM   25  C   UNL     1      41.956  -8.078  13.949  1.00  0.00     0.119 A 
HETATM   26  C   UNL     1      42.313  -7.083  13.053  1.00  0.00     0.020 A 
HETATM   27  H   UNL     1      42.870 -11.766  12.766  1.00  0.00     0.166 HD
HETATM   28  C   UNL     1      43.812 -10.907  11.052  1.00  0.00     0.098 A 
ENDBRANCH   5  19
TORSDOF 3
ENDMDL
MODEL 6
REMARK VINA RESULT:      -8.2      4.149      5.356
REMARK  3 active torsions:
REMARK  status: ('A' for Active; 'I' for Inactive)
REMARK    1  A    between atoms: C_6  and  C_7 
REMARK    2  A    between atoms: C_7  and  N_8 
REMARK    3  A    between atoms: C_12  and  C_13 
ROOT
HETATM    1  N   UNL     1      40.969 -14.019   3.113  1.00  0.00    -0.066 N 
HETATM    2  H   UNL     1      40.741 -13.485   2.265  1.00  0.00     0.280 HD
HETATM    3  C   UNL     1      42.465 -13.913   3.320  1.00  0.00     0.236 C 
HETATM    4  C   UNL     1      43.199 -14.556   2.146  1.00  0.00     0.037 C 
HETATM    5  C   UNL     1      42.797 -16.034   1.954  1.00  0.00     0.024 C 
HETATM    6  C   UNL     1      41.283 -16.045   1.716  1.00  0.00     0.037 C 
HETATM    7  C   UNL     1      40.518 -15.443   2.885  1.00  0.00     0.236 C 
ENDROOT
BRANCH   1   8
HETATM    8  C   UNL     1      40.182 -13.383   4.240  1.00  0.00     0.293 C 
BRANCH   8   9
HETATM    9  C   UNL     1      39.485 -12.152   3.823  1.00  0.00     0.061 A 
HETATM   10  N   UNL     1      39.318 -11.025   4.613  1.00  0.00    -0.308 N 
HETATM   11  C   UNL     1      38.599 -10.110   3.847  1.00  0.00     0.134 A 
HETATM   12  C   UNL     1      39.741 -10.750   5.916  1.00  0.00     0.099 A 
HETATM   13  C   UNL     1      38.289  -8.854   4.437  1.00  0.00     0.057 A 
HETATM   14  N   UNL     1      38.314 -10.597   2.660  1.00  0.00    -0.241 NA
HETATM   15  C   UNL     1      38.687  -8.576   5.697  1.00  0.00    -0.057 A 
HETATM   16  C   UNL     1      38.373  -7.275   6.376  1.00  0.00     0.048 C 
HETATM   17  C   UNL     1      39.445  -9.560   6.467  1.00  0.00     0.024 A 
HETATM   18  C   UNL     1      38.822 -11.861   2.646  1.00  0.00     0.146 A 
ENDBRANCH   8   9
ENDBRANCH   1   8
BRANCH   5  19
HETATM   19  C   UNL     1      43.289 -16.924   3.089  1.00  0.00    -0.024 A 
HETATM   20  C   UNL     1      43.490 -18.357   3.128  1.00  0.00     0.018 A 
HETATM   21  C   UNL     1      43.918 -18.674   4.417  1.00  0.00     0.138 A 
HETATM   22  C   UNL     1      43.369 -19.449   2.245  1.00  0.00     0.017 A 
HETATM   23  N   UNL     1      44.185 -19.886   4.931  1.00  0.00    -0.242 NA
HETATM   24  N   UNL     1      44.064 -17.517   5.118  1.00  0.00    -0.350 N 
HETATM   25  C   UNL     1      44.038 -20.889   4.044  1.00  0.00     0.119 A 
HETATM   26  C   UNL     1      43.648 -20.732   2.724  1.00  0.00     0.020 A 
HETATM   27  H   UNL     1      44.416 -17.481   6.065  1.00  0.00     0.166 HD
HETATM   28  C   UNL     1      43.702 -16.456   4.332  1.00  0.00     0.098 A 
ENDBRANCH   5  19
TORSDOF 3
ENDMDL
MODEL 7
REMARK VINA RESULT:      -8.1      1.699      2.713
REMARK  3 active torsions:
REMARK  status: ('A' for Active; 'I' for Inactive)
REMARK    1  A    between atoms: C_6  and  C_7 
REMARK    2  A    between atoms: C_7  and  N_8 
REMARK    3  A    between atoms: C_12  and  C_13 
ROOT
HETATM    1  N   UNL     1      41.823 -12.651   4.185  1.00  0.00    -0.066 N 
HETATM    2  H   UNL     1      40.944 -12.163   3.970  1.00  0.00     0.280 HD
HETATM    3  C   UNL     1      42.061 -13.654   3.077  1.00  0.00     0.236 C 
HETATM    4  C   UNL     1      40.939 -14.690   3.063  1.00  0.00     0.037 C 
HETATM    5  C   UNL     1      40.812 -15.420   4.416  1.00  0.00     0.024 C 
HETATM    6  C   UNL     1      40.537 -14.340   5.468  1.00  0.00     0.037 C 
HETATM    7  C   UNL     1      41.655 -13.310   5.534  1.00  0.00     0.236 C 
ENDROOT
BRANCH   1   8
HETATM    8  C   UNL     1      42.897 -11.584   4.241  1.00  0.00     0.293 C 
BRANCH   8   9
HETATM    9  C   UNL     1      42.696 -10.633   5.352  1.00  0.00     0.061 A 
HETATM   10  N   UNL     1      43.500 -10.545   6.478  1.00  0.00    -0.308 N 
HETATM   11  C   UNL     1      42.954  -9.538   7.272  1.00  0.00     0.134 A 
HETATM   12  C   UNL     1      44.643 -11.259   6.845  1.00  0.00     0.099 A 
HETATM   13  C   UNL     1      43.601  -9.247   8.505  1.00  0.00     0.057 A 
HETATM   14  N   UNL     1      41.883  -9.017   6.718  1.00  0.00    -0.241 NA
HETATM   15  C   UNL     1      44.703  -9.933   8.875  1.00  0.00    -0.057 A 
HETATM   16  C   UNL     1      45.415  -9.681  10.172  1.00  0.00     0.048 C 
HETATM   17  C   UNL     1      45.249 -10.978   8.011  1.00  0.00     0.024 A 
HETATM   18  C   UNL     1      41.695  -9.703   5.556  1.00  0.00     0.146 A 
ENDBRANCH   8   9
ENDBRANCH   1   8
BRANCH   5  19
HETATM   19  C   UNL     1      42.001 -16.328   4.704  1.00  0.00    -0.024 A 
HETATM   20  C   UNL     1      42.654 -17.304   3.858  1.00  0.00     0.018 A 
HETATM   21  C   UNL     1      43.669 -17.887   4.615  1.00  0.00     0.138 A 
HETATM   22  C   UNL     1      42.530 -17.786   2.539  1.00  0.00     0.017 A 
HETATM   23  N   UNL     1      44.508 -18.875   4.263  1.00  0.00    -0.242 NA
HETATM   24  N   UNL     1      43.716 -17.264   5.824  1.00  0.00    -0.350 N 
HETATM   25  C   UNL     1      44.331 -19.303   2.998  1.00  0.00     0.119 A 
HETATM   26  C   UNL     1      43.387 -18.805   2.115  1.00  0.00     0.020 A 
HETATM   27  H   UNL     1      44.406 -17.474   6.531  1.00  0.00     0.166 HD
HETATM   28  C   UNL     1      42.729 -16.317   5.889  1.00  0.00     0.098 A 
ENDBRANCH   5  19
TORSDOF 3
ENDMDL
MODEL 8
REMARK VINA RESULT:      -8.1      1.649      8.504
REMARK  3 active torsions:
REMARK  status: ('A' for Active; 'I' for Inactive)
REMARK    1  A    between atoms: C_6  and  C_7 
REMARK    2  A    between atoms: C_7  and  N_8 
REMARK    3  A    between atoms: C_12  and  C_13 
ROOT
HETATM    1  N   UNL     1      42.057 -12.948   5.047  1.00  0.00    -0.066 N 
HETATM    2  H   UNL     1      42.514 -13.081   4.136  1.00  0.00     0.280 HD
HETATM    3  C   UNL     1      41.368 -11.601   5.009  1.00  0.00     0.236 C 
HETATM    4  C   UNL     1      42.401 -10.491   4.833  1.00  0.00     0.037 C 
HETATM    5  C   UNL     1      43.462 -10.509   5.954  1.00  0.00     0.024 C 
HETATM    6  C   UNL     1      44.132 -11.886   5.897  1.00  0.00     0.037 C 
HETATM    7  C   UNL     1      43.134 -13.015   6.106  1.00  0.00     0.236 C 
ENDROOT
BRANCH   1   8
HETATM    8  C   UNL     1      41.080 -14.095   5.204  1.00  0.00     0.293 C 
BRANCH   8   9
HETATM    9  C   UNL     1      41.070 -14.997   4.037  1.00  0.00     0.061 A 
HETATM   10  N   UNL     1      41.917 -16.081   3.862  1.00  0.00    -0.308 N 
HETATM   11  C   UNL     1      41.585 -16.645   2.632  1.00  0.00     0.134 A 
HETATM   12  C   UNL     1      42.926 -16.595   4.680  1.00  0.00     0.099 A 
HETATM   13  C   UNL     1      42.319 -17.788   2.210  1.00  0.00     0.057 A 
HETATM   14  N   UNL     1      40.610 -15.986   2.049  1.00  0.00    -0.241 NA
HETATM   15  C   UNL     1      43.300 -18.292   2.989  1.00  0.00    -0.057 A 
HETATM   16  C   UNL     1      44.119 -19.484   2.586  1.00  0.00     0.048 C 
HETATM   17  C   UNL     1      43.615 -17.675   4.275  1.00  0.00     0.024 A 
HETATM   18  C   UNL     1      40.309 -14.952   2.885  1.00  0.00     0.146 A 
ENDBRANCH   8   9
ENDBRANCH   1   8
BRANCH   5  19
HETATM   19  C   UNL     1      42.885 -10.116   7.309  1.00  0.00    -0.024 A 
HETATM   20  C   UNL     1      43.528 -10.019   8.602  1.00  0.00     0.018 A 
HETATM   21  C   UNL     1      42.545  -9.653   9.520  1.00  0.00     0.138 A 
HETATM   22  C   UNL     1      44.821 -10.191   9.136  1.00  0.00     0.017 A 
HETATM   23  N   UNL     1      42.666  -9.489  10.848  1.00  0.00    -0.242 NA
HETATM   24  N   UNL     1      41.381  -9.446   8.845  1.00  0.00    -0.350 N 
HETATM   25  C   UNL     1      43.919  -9.680  11.300  1.00  0.00     0.119 A 
HETATM   26  C   UNL     1      45.007 -10.018  10.511  1.00  0.00     0.020 A 
HETATM   27  H   UNL     1      40.533  -9.120   9.287  1.00  0.00     0.166 HD
HETATM   28  C   UNL     1      41.572  -9.708   7.515  1.00  0.00     0.098 A 
ENDBRANCH   5  19
TORSDOF 3
ENDMDL
MODEL 9
REMARK VINA RESULT:      -7.8      5.602      8.185
REMARK  3 active torsions:
REMARK  status: ('A' for Active; 'I' for Inactive)
REMARK    1  A    between atoms: C_6  and  C_7 
REMARK    2  A    between atoms: C_7  and  N_8 
REMARK    3  A    between atoms: C_12  and  C_13 
ROOT
HETATM    1  N   UNL     1      40.501 -13.159   0.949  1.00  0.00    -0.066 N 
HETATM    2  H   UNL     1      39.586 -13.092   0.486  1.00  0.00     0.280 HD
HETATM    3  C   UNL     1      41.088 -14.506   0.587  1.00  0.00     0.236 C 
HETATM    4  C   UNL     1      40.202 -15.623   1.132  1.00  0.00     0.037 C 
HETATM    5  C   UNL     1      40.021 -15.522   2.661  1.00  0.00     0.024 C 
HETATM    6  C   UNL     1      39.392 -14.151   2.934  1.00  0.00     0.037 C 
HETATM    7  C   UNL     1      40.268 -13.012   2.435  1.00  0.00     0.236 C 
ENDROOT
BRANCH   1   8
HETATM    8  C   UNL     1      41.329 -12.005   0.421  1.00  0.00     0.293 C 
BRANCH   8   9
HETATM    9  C   UNL     1      40.924 -11.588  -0.935  1.00  0.00     0.061 A 
HETATM   10  N   UNL     1      41.311 -10.410  -1.554  1.00  0.00    -0.308 N 
HETATM   11  C   UNL     1      40.699 -10.403  -2.805  1.00  0.00     0.134 A 
HETATM   12  C   UNL     1      42.141  -9.375  -1.115  1.00  0.00     0.099 A 
HETATM   13  C   UNL     1      40.937  -9.285  -3.651  1.00  0.00     0.057 A 
HETATM   14  N   UNL     1      39.969 -11.480  -2.988  1.00  0.00    -0.241 NA
HETATM   15  C   UNL     1      41.732  -8.275  -3.237  1.00  0.00    -0.057 A 
HETATM   16  C   UNL     1      42.004  -7.062  -4.079  1.00  0.00     0.048 C 
HETATM   17  C   UNL     1      42.362  -8.321  -1.919  1.00  0.00     0.024 A 
HETATM   18  C   UNL     1      40.071 -12.198  -1.835  1.00  0.00     0.146 A 
ENDBRANCH   8   9
ENDBRANCH   1   8
BRANCH   5  19
HETATM   19  C   UNL     1      41.308 -15.815   3.422  1.00  0.00    -0.024 A 
HETATM   20  C   UNL     1      42.264 -16.888   3.255  1.00  0.00     0.018 A 
HETATM   21  C   UNL     1      43.245 -16.717   4.231  1.00  0.00     0.138 A 
HETATM   22  C   UNL     1      42.443 -17.999   2.406  1.00  0.00     0.017 A 
HETATM   23  N   UNL     1      44.309 -17.496   4.489  1.00  0.00    -0.242 NA
HETATM   24  N   UNL     1      42.980 -15.567   4.910  1.00  0.00    -0.350 N 
HETATM   25  C   UNL     1      44.418 -18.547   3.655  1.00  0.00     0.119 A 
HETATM   26  C   UNL     1      43.542 -18.837   2.621  1.00  0.00     0.020 A 
HETATM   27  H   UNL     1      43.580 -15.198   5.633  1.00  0.00     0.166 HD
HETATM   28  C   UNL     1      41.827 -15.007   4.429  1.00  0.00     0.098 A 
ENDBRANCH   5  19
TORSDOF 3
ENDMDL
MODEL 10
REMARK VINA RESULT:      -7.6     16.755     19.002
REMARK  3 active torsions:
REMARK  status: ('A' for Active; 'I' for Inactive)
REMARK    1  A    between atoms: C_6  and  C_7 
REMARK    2  A    between atoms: C_7  and  N_8 
REMARK    3  A    between atoms: C_12  and  C_13 
ROOT
HETATM    1  N   UNL     1      46.512 -29.614   0.225  1.00  0.00    -0.066 N 
HETATM    2  H   UNL     1      46.134 -29.425   1.162  1.00  0.00     0.280 HD
HETATM    3  C   UNL     1      46.282 -28.371  -0.608  1.00  0.00     0.236 C 
HETATM    4  C   UNL     1      44.785 -28.110  -0.750  1.00  0.00     0.037 C 
HETATM    5  C   UNL     1      44.047 -29.310  -1.379  1.00  0.00     0.024 C 
HETATM    6  C   UNL     1      44.301 -30.508  -0.457  1.00  0.00     0.037 C 
HETATM    7  C   UNL     1      45.785 -30.819  -0.324  1.00  0.00     0.236 C 
ENDROOT
BRANCH   1   8
HETATM    8  C   UNL     1      47.984 -29.919   0.416  1.00  0.00     0.293 C 
BRANCH   8   9
HETATM    9  C   UNL     1      48.456 -29.613   1.780  1.00  0.00     0.061 A 
HETATM   10  N   UNL     1      49.323 -30.405   2.517  1.00  0.00    -0.308 N 
HETATM   11  C   UNL     1      49.493 -29.764   3.743  1.00  0.00     0.134 A 
HETATM   12  C   UNL     1      49.958 -31.608   2.200  1.00  0.00     0.099 A 
HETATM   13  C   UNL     1      50.348 -30.382   4.697  1.00  0.00     0.057 A 
HETATM   14  N   UNL     1      48.794 -28.654   3.806  1.00  0.00    -0.241 NA
HETATM   15  C   UNL     1      50.964 -31.548   4.406  1.00  0.00    -0.057 A 
HETATM   16  C   UNL     1      51.862 -32.254   5.380  1.00  0.00     0.048 C 
HETATM   17  C   UNL     1      50.764 -32.186   3.106  1.00  0.00     0.024 A 
HETATM   18  C   UNL     1      48.127 -28.568   2.621  1.00  0.00     0.146 A 
ENDBRANCH   8   9
ENDBRANCH   1   8
BRANCH   5  19
HETATM   19  C   UNL     1      44.414 -29.519  -2.843  1.00  0.00    -0.024 A 
HETATM   20  C   UNL     1      44.398 -30.723  -3.644  1.00  0.00     0.018 A 
HETATM   21  C   UNL     1      44.860 -30.377  -4.913  1.00  0.00     0.138 A 
HETATM   22  C   UNL     1      44.052 -32.080  -3.476  1.00  0.00     0.017 A 
HETATM   23  N   UNL     1      45.059 -31.176  -5.974  1.00  0.00    -0.242 NA
HETATM   24  N   UNL     1      45.071 -29.032  -4.941  1.00  0.00    -0.350 N 
HETATM   25  C   UNL     1      44.725 -32.460  -5.748  1.00  0.00     0.119 A 
HETATM   26  C   UNL     1      44.226 -32.954  -4.553  1.00  0.00     0.020 A 
HETATM   27  H   UNL     1      45.358 -28.532  -5.770  1.00  0.00     0.166 HD
HETATM   28  C   UNL     1      44.796 -28.500  -3.709  1.00  0.00     0.098 A 
ENDBRANCH   5  19
TORSDOF 3
ENDMDL
