REMARK  2 active torsions:
REMARK  status: ('A' for Active; 'I' for Inactive)
REMARK    1  A    between atoms: S_2  and  N_3 
REMARK    2  A    between atoms: C_10  and  N_11 
ROOT
HETATM    1  N   UNL     1       3.174  -0.356  -1.277  1.00  0.00    -0.311 N 
HETATM    2  C   UNL     1       4.634  -0.543  -1.437  1.00  0.00     0.138 C 
HETATM    3  C   UNL     1       5.082  -1.903  -0.903  1.00  0.00     0.059 C 
HETATM    4  C   UNL     1       4.252  -3.082  -1.459  1.00  0.00     0.073 C 
HETATM    5  O   UNL     1       4.636  -3.226  -2.839  1.00  0.00    -0.339 OA
HETATM    6  C   UNL     1       4.342  -4.411  -3.454  1.00  0.00     0.078 A 
HETATM    7  C   UNL     1       3.998  -5.583  -2.769  1.00  0.00     0.005 A 
HETATM    8  C   UNL     1       3.958  -5.583  -1.268  1.00  0.00     0.222 C 
HETATM    9  C   UNL     1       4.649  -4.352  -0.689  1.00  0.00     0.076 C 
HETATM   10  C   UNL     1       4.411  -4.394  -4.847  1.00  0.00     0.037 A 
HETATM   11  C   UNL     1       4.095  -5.536  -5.577  1.00  0.00     0.003 A 
HETATM   12  C   UNL     1       3.703  -6.695  -4.914  1.00  0.00     0.001 A 
HETATM   13  C   UNL     1       3.648  -6.720  -3.518  1.00  0.00     0.012 A 
HETATM   14  C   UNL     1       2.741  -2.774  -1.359  1.00  0.00     0.059 C 
HETATM   15  C   UNL     1       2.405  -1.415  -1.964  1.00  0.00     0.138 C 
ENDROOT
BRANCH   8  16
HETATM   16  N   UNL     1       4.625  -6.781  -0.677  1.00  0.00    -0.071 N 
HETATM   17  H   UNL     1       4.118  -7.643  -0.905  1.00  0.00     0.275 HD
HETATM   18  H   UNL     1       5.580  -6.879  -1.046  1.00  0.00     0.275 HD
HETATM   19  H   UNL     1       4.682  -6.720   0.347  1.00  0.00     0.275 HD
ENDBRANCH   8  16
BRANCH   1  20
HETATM   20  S   UNL     1       2.576   0.166   0.226  1.00  0.00     0.224 S 
HETATM   21  C   UNL     1       3.107   1.866   0.273  1.00  0.00     0.186 C 
HETATM   22  O   UNL     1       3.269  -0.585   1.251  1.00  0.00    -0.206 OA
HETATM   23  O   UNL     1       1.132   0.150   0.153  1.00  0.00    -0.206 OA
ENDBRANCH   1  20
TORSDOF 2
