REMARK  6 active torsions:
REMARK  status: ('A' for Active; 'I' for Inactive)
REMARK    1  A    between atoms: C_2  and  N_3 
REMARK    2  A    between atoms: C_11  and  C_12 
REMARK    3  A    between atoms: C_14  and  C_15 
REMARK    4  A    between atoms: C_15  and  O_16 
REMARK    5  A    between atoms: O_16  and  C_17 
REMARK    6  A    between atoms: C_25  and  O_26 
ROOT
HETATM    1  N   UNL     1       3.203   1.457   0.482  1.00  0.00    -0.067 N 
HETATM    2  H   UNL     1       2.908   1.535   1.464  1.00  0.00     0.280 HD
HETATM    3  C   UNL     1       4.717   1.679   0.477  1.00  0.00     0.281 C 
HETATM    4  C   UNL     1       5.036   3.093   0.824  1.00  0.00     0.018 A 
HETATM    5  C   UNL     1       4.133   4.139   0.815  1.00  0.00    -0.023 A 
HETATM    6  C   UNL     1       4.746   5.357   1.253  1.00  0.00     0.073 A 
HETATM    7  C   UNL     1       6.082   5.187   1.526  1.00  0.00     0.088 A 
HETATM    8  N   UNL     1       6.883   6.175   1.963  1.00  0.00    -0.358 N 
HETATM    9  C   UNL     1       6.418   7.541   2.026  1.00  0.00     0.219 C 
HETATM   10  N   UNL     1       4.983   7.636   1.908  1.00  0.00    -0.332 N 
HETATM   11  C   UNL     1       4.147   6.662   1.446  1.00  0.00     0.256 C 
HETATM   12  O   UNL     1       2.960   6.881   1.228  1.00  0.00    -0.267 OA
HETATM   13  S   UNL     1       6.602   3.588   1.269  1.00  0.00    -0.074 SA
HETATM   14  C   UNL     1       2.697   3.933   0.436  1.00  0.00     0.068 C 
HETATM   15  C   UNL     1       2.486   2.582  -0.271  1.00  0.00     0.240 C 
HETATM   16  H   UNL     1       7.892   6.055   1.985  1.00  0.00     0.162 HD
HETATM   17  H   UNL     1       4.566   8.549   2.002  1.00  0.00     0.165 HD
ENDROOT
BRANCH   9  18
HETATM   18  C   UNL     1       7.133   8.396   0.998  1.00  0.00    -0.016 A 
HETATM   19  C   UNL     1       8.191   9.231   1.394  1.00  0.00     0.023 A 
HETATM   20  C   UNL     1       8.867  10.053   0.469  1.00  0.00    -0.000 A 
HETATM   21  C   UNL     1       8.480  10.033  -0.882  1.00  0.00     0.076 A 
HETATM   22  C   UNL     1       7.447   9.184  -1.287  1.00  0.00     0.038 A 
HETATM   23  C   UNL     1       6.784   8.372  -0.359  1.00  0.00     0.014 A 
BRANCH  20  24
HETATM   24  C   UNL     1       9.999  10.932   0.959  1.00  0.00     0.217 C 
BRANCH  24  25
HETATM   25  O   UNL     1      11.091  10.088   1.331  1.00  0.00    -0.347 OA
BRANCH  25  26
HETATM   26  C   UNL     1      12.277  10.699   1.633  1.00  0.00     0.070 A 
HETATM   27  C   UNL     1      13.347   9.821   1.837  1.00  0.00     0.063 A 
HETATM   28  C   UNL     1      14.614  10.315   2.149  1.00  0.00     0.075 A 
HETATM   29 CL   UNL     1      15.915   9.215   2.394  1.00  0.00    -0.081 Cl
HETATM   30  C   UNL     1      14.813  11.688   2.259  1.00  0.00     0.138 A 
HETATM   31  F   UNL     1      16.021  12.187   2.556  1.00  0.00    -0.204 F 
HETATM   32  C   UNL     1      13.755  12.570   2.063  1.00  0.00     0.047 A 
HETATM   33  C   UNL     1      12.484  12.076   1.753  1.00  0.00     0.040 A 
ENDBRANCH  25  26
ENDBRANCH  24  25
ENDBRANCH  20  24
BRANCH  21  34
HETATM   34  O   UNL     1       9.172  10.866  -1.719  1.00  0.00    -0.355 OA
HETATM   35  C   UNL     1       8.716  10.986  -3.061  1.00  0.00     0.210 C 
ENDBRANCH  21  34
ENDBRANCH   9  18
BRANCH   1  36
HETATM   36  C   UNL     1       2.796   0.095  -0.021  1.00  0.00     0.231 C 
HETATM   37  C   UNL     1       3.178  -0.985   0.975  1.00  0.00     0.034 C 
ENDBRANCH   1  36
TORSDOF 6
