REMARK  3 active torsions:
REMARK  status: ('A' for Active; 'I' for Inactive)
REMARK    1  A    between atoms: C_9  and  C_10 
REMARK       I    between atoms: C_10  and  N_11 
REMARK    2  A    between atoms: N_11  and  C_12 
REMARK    3  A    between atoms: C_12  and  C_13 
ROOT
HETATM    1  C   UNL     1       5.492   3.686   0.603  1.00  0.00     0.273 C 
HETATM    2  N   UNL     1       6.469   4.548   0.156  1.00  0.00    -0.347 N 
HETATM    3  O   UNL     1       5.720   2.542   0.987  1.00  0.00    -0.266 OA
HETATM    4  H   UNL     1       6.127   5.426  -0.223  1.00  0.00     0.163 HD
ENDROOT
BRANCH   2   5
HETATM    5  C   UNL     1       7.861   4.179   0.044  1.00  0.00     0.114 C 
HETATM    6  C   UNL     1       8.755   5.388   0.327  1.00  0.00     0.037 C 
BRANCH   5   7
HETATM    7  C   UNL     1       8.155   3.561  -1.312  1.00  0.00    -0.034 A 
HETATM    8  C   UNL     1       8.518   2.206  -1.393  1.00  0.00     0.041 A 
HETATM    9  C   UNL     1       8.834   1.630  -2.625  1.00  0.00     0.069 A 
HETATM   10  C   UNL     1       8.775   2.388  -3.794  1.00  0.00     0.096 A 
HETATM   11  N   UNL     1       9.191   0.283  -2.680  1.00  0.00    -0.323 N 
HETATM   12  O   UNL     1       9.040   1.889  -5.039  1.00  0.00    -0.340 OA
HETATM   13  C   UNL     1       8.378   3.722  -3.732  1.00  0.00     0.040 A 
HETATM   14  C   UNL     1       9.713   0.639  -5.042  1.00  0.00     0.278 C 
HETATM   15  C   UNL     1       9.587  -0.306  -3.847  1.00  0.00     0.246 C 
HETATM   16  O   UNL     1       9.884  -1.497  -3.898  1.00  0.00    -0.271 OA
HETATM   17  C   UNL     1       8.073   4.307  -2.500  1.00  0.00     0.012 A 
HETATM   18  H   UNL     1       9.158  -0.301  -1.855  1.00  0.00     0.169 HD
ENDBRANCH   5   7
ENDBRANCH   2   5
BRANCH   1  19
HETATM   19  C   UNL     1       4.150   4.292   0.595  1.00  0.00     0.157 A 
HETATM   20  C   UNL     1       2.923   3.694   1.010  1.00  0.00     0.029 A 
HETATM   21  C   UNL     1       2.522   2.438   1.508  1.00  0.00     0.023 A 
HETATM   22  C   UNL     1       1.964   4.686   0.847  1.00  0.00     0.063 A 
HETATM   23  C   UNL     1       1.170   2.218   1.824  1.00  0.00    -0.061 A 
HETATM   24  C   UNL     1       0.720   0.889   2.358  1.00  0.00     0.048 C 
HETATM   25  C   UNL     1       0.239   3.250   1.655  1.00  0.00     0.009 A 
HETATM   26  C   UNL     1       0.615   4.505   1.162  1.00  0.00     0.032 A 
HETATM   27  N   UNL     1       2.642   5.766   0.353  1.00  0.00    -0.277 N 
HETATM   28  H   UNL     1       2.257   6.673   0.116  1.00  0.00     0.189 HD
HETATM   29  N   UNL     1       3.961   5.567   0.181  1.00  0.00    -0.168 NA
ENDBRANCH   1  19
TORSDOF 3
