REMARK  3 active torsions:
REMARK  status: ('A' for Active; 'I' for Inactive)
REMARK    1  A    between atoms: C_6  and  N_7 
REMARK       I    between atoms: N_7  and  C_8 
REMARK    2  A    between atoms: C_8  and  C_9 
REMARK    3  A    between atoms: C_9  and  C_10 
ROOT
HETATM    1  C   UNL     1       5.073   2.012   0.067  1.00  0.00     0.286 C 
HETATM    2  N   UNL     1       4.229   3.250  -0.201  1.00  0.00    -0.056 N 
HETATM    3  H   UNL     1       3.335   3.096   0.313  1.00  0.00     0.278 HD
HETATM    4  H   UNL     1       4.659   4.081   0.220  1.00  0.00     0.278 HD
HETATM    5  C   UNL     1       3.964   3.452  -1.672  1.00  0.00     0.209 C 
HETATM    6  C   UNL     1       3.247   2.198  -2.239  1.00  0.00     0.115 C 
HETATM    7  N   UNL     1       3.917   0.953  -1.858  1.00  0.00    -0.353 N 
HETATM    8  C   UNL     1       4.543   0.753  -0.651  1.00  0.00     0.249 C 
HETATM    9  O   UNL     1       4.762  -0.385  -0.252  1.00  0.00    -0.271 OA
HETATM   10  C   UNL     1       3.167   4.741  -1.869  1.00  0.00     0.035 C 
HETATM   11  C   UNL     1       1.704   4.619  -1.452  1.00  0.00     0.002 C 
HETATM   12  C   UNL     1       1.032   3.430  -2.127  1.00  0.00     0.002 C 
HETATM   13  C   UNL     1       1.769   2.131  -1.828  1.00  0.00     0.027 C 
HETATM   14  H   UNL     1       3.605   0.089  -2.299  1.00  0.00     0.163 HD
ENDROOT
BRANCH   1  15
HETATM   15  C   UNL     1       5.289   1.772   1.567  1.00  0.00     0.146 C 
BRANCH  15  16
HETATM   16  C   UNL     1       3.996   1.801   2.336  1.00  0.00     0.224 C 
HETATM   17  N   UNL     1       3.934   1.581   3.675  1.00  0.00    -0.327 N 
HETATM   18  H   UNL     1       2.982   1.678   4.019  1.00  0.00     0.169 HD
HETATM   19  O   UNL     1       2.960   2.132   1.740  1.00  0.00    -0.273 OA
BRANCH  17  20
HETATM   20  C   UNL     1       4.885   1.288   4.675  1.00  0.00     0.035 A 
HETATM   21  C   UNL     1       6.242   1.030   4.476  1.00  0.00     0.037 A 
HETATM   22  C   UNL     1       7.107   0.746   5.554  1.00  0.00    -0.054 A 
HETATM   23  C   UNL     1       6.609   0.759   6.869  1.00  0.00    -0.056 A 
HETATM   24  C   UNL     1       8.558   0.455   5.274  1.00  0.00     0.049 C 
HETATM   25  C   UNL     1       7.489   0.473   8.055  1.00  0.00     0.049 C 
HETATM   26  C   UNL     1       5.247   1.004   7.070  1.00  0.00     0.009 A 
HETATM   27  C   UNL     1       4.400   1.259   5.989  1.00  0.00     0.030 A 
ENDBRANCH  17  20
ENDBRANCH  15  16
ENDBRANCH   1  15
TORSDOF 3
