REMARK  4 active torsions:
REMARK  status: ('A' for Active; 'I' for Inactive)
REMARK       I    between atoms: N_6  and  C_7 
REMARK    1  A    between atoms: C_7  and  C_8 
REMARK    2  A    between atoms: C_9  and  N_10 
REMARK       I    between atoms: N_10  and  C_11 
REMARK    3  A    between atoms: C_11  and  C_12 
REMARK    4  A    between atoms: N_20  and  C_21 
ROOT
HETATM    1  C   UNL     1       5.393  -1.615   4.055  1.00  0.00     0.097 C 
HETATM    2  C   UNL     1       5.976  -1.761   5.308  1.00  0.00     0.149 C 
HETATM    3  N   UNL     1       5.796  -3.098   5.686  1.00  0.00    -0.217 N 
HETATM    4  N   UNL     1       5.065  -3.760   4.744  1.00  0.00    -0.177 NA
HETATM    5  C   UNL     1       4.965  -2.911   3.727  1.00  0.00     0.160 C 
ENDROOT
BRANCH   2   6
HETATM    6  N   UNL     1       6.570  -0.682   5.971  1.00  0.00    -0.306 N 
HETATM    7  C   UNL     1       6.470  -0.511   7.389  1.00  0.00     0.257 C 
HETATM    8  O   UNL     1       5.585  -1.095   7.988  1.00  0.00    -0.267 OA
HETATM    9  H   UNL     1       6.901   0.083   5.385  1.00  0.00     0.170 HD
BRANCH   7  10
HETATM   10  C   UNL     1       7.440   0.404   8.049  1.00  0.00     0.032 A 
HETATM   11  C   UNL     1       8.435   1.092   7.339  1.00  0.00     0.018 A 
HETATM   12  C   UNL     1       9.354   1.898   8.023  1.00  0.00     0.020 A 
HETATM   13  C   UNL     1       9.288   2.008   9.411  1.00  0.00     0.011 A 
HETATM   14 BR   UNL     1      10.544   3.080  10.327  1.00  0.00    -0.051 Br
HETATM   15  C   UNL     1       8.308   1.323  10.126  1.00  0.00     0.020 A 
HETATM   16  C   UNL     1       7.384   0.524   9.446  1.00  0.00     0.018 A 
ENDBRANCH   7  10
ENDBRANCH   2   6
BRANCH   1  17
HETATM   17  C   UNL     1       5.308  -0.363   3.328  1.00  0.00     0.259 C 
HETATM   18  N   UNL     1       4.326  -0.188   2.345  1.00  0.00    -0.345 N 
HETATM   19  C   UNL     1       4.378   1.048   1.550  1.00  0.00     0.154 C 
HETATM   20  C   UNL     1       2.988  -0.805   2.382  1.00  0.00     0.154 C 
HETATM   21  C   UNL     1       3.373   2.091   2.075  1.00  0.00     0.254 C 
HETATM   22  N   UNL     1       1.969   1.482   2.094  1.00  0.00    -0.072 N 
HETATM   23  C   UNL     1       0.935   2.465   2.571  1.00  0.00     0.269 C 
HETATM   24  H   UNL     1       1.723   1.252   1.121  1.00  0.00     0.279 HD
HETATM   25  C   UNL     1       1.924   0.188   2.896  1.00  0.00     0.254 C 
HETATM   26  O   UNL     1       6.077   0.556   3.621  1.00  0.00    -0.267 OA
ENDBRANCH   1  17
BRANCH   3  27
HETATM   27  C   UNL     1       6.321  -3.833   6.784  1.00  0.00     0.060 A 
HETATM   28  C   UNL     1       7.499  -3.449   7.436  1.00  0.00     0.031 A 
HETATM   29  C   UNL     1       7.951  -4.175   8.542  1.00  0.00     0.002 A 
HETATM   30  C   UNL     1       7.248  -5.294   8.984  1.00  0.00     0.000 A 
HETATM   31  C   UNL     1       6.104  -5.711   8.308  1.00  0.00     0.002 A 
HETATM   32  C   UNL     1       5.646  -4.991   7.204  1.00  0.00     0.031 A 
ENDBRANCH   3  27
TORSDOF 4
