REMARK  9 active torsions:
REMARK  status: ('A' for Active; 'I' for Inactive)
REMARK    1  A    between atoms: C_5  and  C_6 
REMARK    2  A    between atoms: C_8  and  N_9 
REMARK       I    between atoms: N_9  and  C_10 
REMARK    3  A    between atoms: C_10  and  C_11 
REMARK    4  A    between atoms: C_11  and  N_12 
REMARK    5  A    between atoms: N_12  and  C_14 
REMARK    6  A    between atoms: C_14  and  C_15 
REMARK       I    between atoms: C_15  and  N_16 
REMARK    7  A    between atoms: N_16  and  C_17 
REMARK    8  A    between atoms: C_20  and  O_21 
REMARK    9  A    between atoms: O_21  and  C_22 
ROOT
HETATM    1  N   UNL     1       8.629   1.138   1.465  1.00  0.00    -0.058 N 
HETATM    2  H   UNL     1       8.218   1.070   0.527  1.00  0.00     0.280 HD
HETATM    3  C   UNL     1       8.670   2.625   1.744  1.00  0.00     0.270 C 
ENDROOT
BRANCH   1   4
HETATM    4  C   UNL     1      10.023   0.514   1.337  1.00  0.00     0.337 C 
BRANCH   4   5
HETATM    5  C   UNL     1      11.074   0.946   2.366  1.00  0.00     0.248 C 
HETATM    6  N   UNL     1      11.371  -0.022   3.308  1.00  0.00    -0.326 N 
HETATM    7  H   UNL     1      10.759  -0.821   3.402  1.00  0.00     0.169 HD
HETATM    8  O   UNL     1      11.545   2.077   2.296  1.00  0.00    -0.271 OA
BRANCH   6   9
HETATM    9  C   UNL     1      12.418   0.014   4.258  1.00  0.00     0.035 A 
HETATM   10  C   UNL     1      13.467   0.939   4.234  1.00  0.00     0.043 A 
HETATM   11  C   UNL     1      14.516   0.877   5.173  1.00  0.00    -0.005 A 
HETATM   12  C   UNL     1      14.474  -0.121   6.157  1.00  0.00     0.014 A 
HETATM   13  C   UNL     1      13.427  -1.042   6.193  1.00  0.00     0.003 A 
HETATM   14  C   UNL     1      12.412  -0.981   5.241  1.00  0.00     0.029 A 
BRANCH  11  15
HETATM   15  C   UNL     1      15.621   1.835   5.080  1.00  0.00     0.074 A 
HETATM   16  C   UNL     1      16.675   1.922   5.970  1.00  0.00     0.084 A 
HETATM   17  S   UNL     1      17.756   3.168   5.500  1.00  0.00    -0.085 SA
HETATM   18  C   UNL     1      16.760   3.501   4.144  1.00  0.00     0.071 A 
HETATM   19  C   UNL     1      17.121   4.589   3.195  1.00  0.00     0.078 C 
HETATM   20  N   UNL     1      15.686   2.748   4.033  1.00  0.00    -0.245 NA
ENDBRANCH  11  15
ENDBRANCH   6   9
ENDBRANCH   4   5
ENDBRANCH   1   4
BRANCH   1  21
HETATM   21  C   UNL     1       7.678   0.368   2.382  1.00  0.00     0.337 C 
BRANCH  21  22
HETATM   22  C   UNL     1       8.085   0.314   3.859  1.00  0.00     0.248 C 
HETATM   23  N   UNL     1       7.982  -0.944   4.430  1.00  0.00    -0.326 N 
HETATM   24  H   UNL     1       7.499  -1.677   3.920  1.00  0.00     0.169 HD
HETATM   25  O   UNL     1       8.499   1.327   4.409  1.00  0.00    -0.271 OA
BRANCH  23  26
HETATM   26  C   UNL     1       8.335  -1.292   5.757  1.00  0.00     0.034 A 
HETATM   27  C   UNL     1       8.957  -0.427   6.655  1.00  0.00     0.032 A 
HETATM   28  C   UNL     1       9.251  -0.848   7.958  1.00  0.00     0.039 A 
HETATM   29  C   UNL     1       8.928  -2.135   8.389  1.00  0.00     0.078 A 
HETATM   30  C   UNL     1       8.330  -3.012   7.487  1.00  0.00     0.039 A 
HETATM   31  C   UNL     1       8.037  -2.593   6.181  1.00  0.00     0.032 A 
BRANCH  29  32
HETATM   32  O   UNL     1       9.252  -2.395   9.688  1.00  0.00    -0.255 OA
BRANCH  32  33
HETATM   33  C   UNL     1       8.786  -3.609  10.256  1.00  0.00     0.530 C 
HETATM   34  F   UNL     1       7.444  -3.713  10.148  1.00  0.00    -0.144 F 
HETATM   35  F   UNL     1       9.368  -4.670   9.657  1.00  0.00    -0.144 F 
HETATM   36  F   UNL     1       9.110  -3.630  11.566  1.00  0.00    -0.144 F 
ENDBRANCH  32  33
ENDBRANCH  29  32
ENDBRANCH  23  26
ENDBRANCH  21  22
ENDBRANCH   1  21
TORSDOF 9
