REMARK  5 active torsions:
REMARK  status: ('A' for Active; 'I' for Inactive)
REMARK    1  A    between atoms: C_5  and  N_6 
REMARK       I    between atoms: N_6  and  C_7 
REMARK       I    between atoms: C_7  and  N_8 
REMARK    2  A    between atoms: N_8  and  C_9 
REMARK    3  A    between atoms: C_11  and  C_12 
REMARK       I    between atoms: C_12  and  N_13 
REMARK    4  A    between atoms: N_13  and  C_14 
REMARK    5  A    between atoms: C_14  and  C_15 
ROOT
HETATM    1  C   UNL     1       5.500  -2.457   0.100  1.00  0.00     0.175 A 
HETATM    2  S   UNL     1       4.785  -3.986  -0.034  1.00  0.00    -0.044 SA
HETATM    3  C   UNL     1       3.276  -3.328   0.450  1.00  0.00     0.100 A 
HETATM    4  C   UNL     1       3.467  -1.988   0.787  1.00  0.00     0.056 A 
HETATM    5  C   UNL     1       2.443  -1.053   1.335  1.00  0.00     0.072 C 
HETATM    6  N   UNL     1       4.749  -1.492   0.563  1.00  0.00    -0.228 NA
ENDROOT
BRANCH   1   7
HETATM    7  N   UNL     1       6.798  -2.406  -0.302  1.00  0.00    -0.287 N 
HETATM    8  C   UNL     1       7.604  -1.307  -0.331  1.00  0.00     0.326 C 
HETATM    9  N   UNL     1       7.093  -0.144   0.177  1.00  0.00    -0.309 N 
HETATM   10  O   UNL     1       8.733  -1.459  -0.798  1.00  0.00    -0.247 OA
HETATM   11  H   UNL     1       6.169  -0.225   0.595  1.00  0.00     0.170 HD
HETATM   12  H   UNL     1       7.216  -3.249  -0.664  1.00  0.00     0.172 HD
BRANCH   9  13
HETATM   13  C   UNL     1       7.716   1.117   0.247  1.00  0.00     0.036 A 
HETATM   14  C   UNL     1       8.933   1.417  -0.367  1.00  0.00     0.030 A 
HETATM   15  C   UNL     1       9.493   2.694  -0.250  1.00  0.00     0.009 A 
HETATM   16  C   UNL     1       8.847   3.692   0.485  1.00  0.00    -0.062 A 
HETATM   17  C   UNL     1       9.479   5.044   0.627  1.00  0.00     0.048 C 
HETATM   18  C   UNL     1       7.629   3.393   1.102  1.00  0.00     0.009 A 
HETATM   19  C   UNL     1       7.064   2.118   0.974  1.00  0.00     0.030 A 
ENDBRANCH   9  13
ENDBRANCH   1   7
BRANCH   3  20
HETATM   20  C   UNL     1       2.053  -4.102   0.596  1.00  0.00     0.260 C 
HETATM   21  N   UNL     1       1.768  -5.197  -0.187  1.00  0.00    -0.352 N 
HETATM   22  H   UNL     1       0.901  -5.644   0.093  1.00  0.00     0.163 HD
HETATM   23  O   UNL     1       1.186  -3.793   1.417  1.00  0.00    -0.267 OA
BRANCH  21  24
HETATM   24  C   UNL     1       2.495  -5.780  -1.296  1.00  0.00     0.167 C 
BRANCH  24  25
HETATM   25  C   UNL     1       1.738  -6.788  -2.114  1.00  0.00     0.037 A 
HETATM   26  C   UNL     1       2.179  -7.059  -3.415  1.00  0.00     0.127 A 
HETATM   27  F   UNL     1       3.222  -6.380  -3.914  1.00  0.00    -0.205 F 
HETATM   28  C   UNL     1       1.576  -8.031  -4.212  1.00  0.00     0.043 A 
HETATM   29  C   UNL     1       0.509  -8.770  -3.709  1.00  0.00     0.006 A 
HETATM   30  C   UNL     1       0.060  -8.530  -2.412  1.00  0.00     0.043 A 
HETATM   31  C   UNL     1       0.679  -7.554  -1.629  1.00  0.00     0.127 A 
HETATM   32  F   UNL     1       0.230  -7.368  -0.379  1.00  0.00    -0.205 F 
ENDBRANCH  24  25
ENDBRANCH  21  24
ENDBRANCH   3  20
TORSDOF 5
