REMARK  6 active torsions:
REMARK  status: ('A' for Active; 'I' for Inactive)
REMARK    1  A    between atoms: C_2  and  N_3 
REMARK    2  A    between atoms: C_2  and  C_32 
REMARK       I    between atoms: N_3  and  C_4 
REMARK    3  A    between atoms: C_4  and  C_5 
REMARK    4  A    between atoms: C_6  and  N_7 
REMARK       I    between atoms: N_7  and  C_8 
REMARK    5  A    between atoms: C_8  and  C_9 
REMARK    6  A    between atoms: C_9  and  N_10 
ROOT
HETATM    1  N   UNL     1       3.539  -4.919  -2.438  1.00  0.00    -0.325 N 
HETATM    2  C   UNL     1       3.773  -5.650  -3.590  1.00  0.00     0.240 C 
HETATM    3  O   UNL     1       2.920  -5.995  -4.404  1.00  0.00    -0.271 OA
HETATM    4  H   UNL     1       4.319  -4.809  -1.780  1.00  0.00     0.169 HD
ENDROOT
BRANCH   1   5
HETATM    5  C   UNL     1       2.321  -4.308  -2.036  1.00  0.00     0.050 A 
HETATM    6  C   UNL     1       2.211  -3.752  -0.743  1.00  0.00     0.058 A 
HETATM    7  C   UNL     1       1.031  -3.104  -0.337  1.00  0.00     0.019 A 
HETATM    8  C   UNL     1      -0.057  -3.023  -1.202  1.00  0.00     0.001 A 
HETATM    9  C   UNL     1       0.033  -3.584  -2.472  1.00  0.00     0.002 A 
HETATM   10  C   UNL     1       1.210  -4.217  -2.886  1.00  0.00     0.030 A 
BRANCH   6  11
HETATM   11  C   UNL     1       3.344  -3.843   0.215  1.00  0.00     0.254 C 
HETATM   12  N   UNL     1       3.001  -4.098   1.526  1.00  0.00    -0.349 N 
HETATM   13  H   UNL     1       2.060  -4.410   1.716  1.00  0.00     0.163 HD
HETATM   14  O   UNL     1       4.494  -3.736  -0.194  1.00  0.00    -0.268 OA
BRANCH  12  15
HETATM   15  C   UNL     1       4.009  -4.415   2.526  1.00  0.00     0.114 C 
HETATM   16  C   UNL     1       3.659  -3.740   3.853  1.00  0.00     0.037 C 
BRANCH  15  17
HETATM   17  C   UNL     1       4.152  -5.921   2.668  1.00  0.00    -0.036 A 
HETATM   18  C   UNL     1       5.336  -6.548   2.249  1.00  0.00     0.009 A 
HETATM   19  C   UNL     1       5.505  -7.926   2.395  1.00  0.00     0.001 A 
HETATM   20  C   UNL     1       4.485  -8.702   2.939  1.00  0.00     0.000 A 
HETATM   21  C   UNL     1       3.294  -8.100   3.336  1.00  0.00     0.001 A 
HETATM   22  C   UNL     1       3.127  -6.719   3.203  1.00  0.00     0.009 A 
ENDBRANCH  15  17
ENDBRANCH  12  15
ENDBRANCH   6  11
ENDBRANCH   1   5
BRANCH   2  23
HETATM   23  C   UNL     1       5.225  -6.092  -3.752  1.00  0.00     0.240 C 
BRANCH  23  24
HETATM   24  N   UNL     1       5.441  -7.292  -2.977  1.00  0.00    -0.259 N 
HETATM   25  C   UNL     1       5.969  -7.306  -1.727  1.00  0.00     0.326 A 
HETATM   26  O   UNL     1       6.331  -6.345  -1.072  1.00  0.00    -0.247 OA
HETATM   27  N   UNL     1       6.064  -8.609  -1.308  1.00  0.00    -0.324 N 
HETATM   28  C   UNL     1       5.519  -9.544  -2.271  1.00  0.00     0.120 A 
HETATM   29  H   UNL     1       6.422  -8.844  -0.392  1.00  0.00     0.165 HD
HETATM   30  C   UNL     1       6.531 -10.594  -2.733  1.00  0.00     0.080 C 
HETATM   31  C   UNL     1       4.233 -10.192  -1.759  1.00  0.00     0.046 C 
HETATM   32  C   UNL     1       5.204  -8.565  -3.415  1.00  0.00     0.257 A 
HETATM   33  C   UNL     1       6.677 -11.747  -1.766  1.00  0.00    -0.049 A 
HETATM   34  C   UNL     1       5.712 -12.008  -0.777  1.00  0.00    -0.052 A 
HETATM   35  C   UNL     1       7.773 -12.612  -1.907  1.00  0.00     0.007 A 
HETATM   36  C   UNL     1       4.517 -11.109  -0.571  1.00  0.00     0.042 C 
HETATM   37  C   UNL     1       5.888 -13.106   0.080  1.00  0.00     0.007 A 
HETATM   38  C   UNL     1       6.988 -13.951  -0.062  1.00  0.00     0.001 A 
HETATM   39  C   UNL     1       7.928 -13.707  -1.058  1.00  0.00     0.001 A 
HETATM   40  O   UNL     1       4.802  -8.886  -4.524  1.00  0.00    -0.270 OA
ENDBRANCH  23  24
ENDBRANCH   2  23
TORSDOF 6
