REMARK  3 active torsions:
REMARK  status: ('A' for Active; 'I' for Inactive)
REMARK    1  A    between atoms: C_3  and  O_4 
REMARK    2  A    between atoms: C_6  and  C_7 
REMARK    3  A    between atoms: N_8  and  N_9 
ROOT
HETATM    1  N   UNL     1      -3.011  -4.060  -0.496  1.00  0.00    -0.189 N 
HETATM    2  C   UNL     1      -2.242  -5.192  -0.172  1.00  0.00     0.298 A 
HETATM    3  O   UNL     1      -1.086  -5.204   0.240  1.00  0.00    -0.264 OA
HETATM    4  C   UNL     1      -2.988  -6.397  -0.355  1.00  0.00     0.133 A 
HETATM    5  C   UNL     1      -4.304  -6.429  -0.713  1.00  0.00     0.103 A 
HETATM    6  N   UNL     1      -5.063  -5.277  -0.920  1.00  0.00    -0.239 NA
HETATM    7  C   UNL     1      -4.369  -4.183  -0.793  1.00  0.00     0.239 A 
HETATM    8  N   UNL     1      -2.565  -7.689  -0.214  1.00  0.00    -0.349 N 
HETATM    9  H   UNL     1      -1.630  -7.965   0.057  1.00  0.00     0.166 HD
HETATM   10  C   UNL     1      -3.603  -8.553  -0.511  1.00  0.00     0.045 A 
HETATM   11  C   UNL     1      -4.722  -7.771  -0.826  1.00  0.00     0.024 A 
HETATM   12  C   UNL     1      -3.634  -9.953  -0.522  1.00  0.00     0.032 A 
HETATM   13  C   UNL     1      -4.843 -10.567  -0.867  1.00  0.00     0.026 A 
HETATM   14  C   UNL     1      -5.969  -9.807  -1.182  1.00  0.00     0.035 A 
HETATM   15 CL   UNL     1      -7.437 -10.606  -1.602  1.00  0.00    -0.084 Cl
HETATM   16  C   UNL     1      -5.930  -8.411  -1.165  1.00  0.00     0.040 A 
ENDROOT
BRANCH   1  17
HETATM   17  N   UNL     1      -2.544  -2.754  -0.408  1.00  0.00    -0.175 NA
HETATM   18  C   UNL     1      -1.286  -2.535  -0.621  1.00  0.00     0.150 C 
BRANCH  18  19
HETATM   19  C   UNL     1      -0.701  -1.183  -0.501  1.00  0.00    -0.014 A 
HETATM   20  C   UNL     1       0.666  -1.027  -0.739  1.00  0.00     0.049 A 
HETATM   21  C   UNL     1       1.233   0.238  -0.638  1.00  0.00     0.066 A 
HETATM   22  C   UNL     1       0.461   1.347  -0.304  1.00  0.00     0.036 A 
HETATM   23  C   UNL     1      -0.906   1.187  -0.066  1.00  0.00     0.004 A 
HETATM   24  C   UNL     1      -1.490  -0.079  -0.163  1.00  0.00     0.013 A 
BRANCH  21  25
HETATM   25  O   UNL     1       2.571   0.351  -0.879  1.00  0.00    -0.361 OA
HETATM   26  H   UNL     1       2.834   1.279  -0.762  1.00  0.00     0.217 HD
ENDBRANCH  21  25
ENDBRANCH  18  19
ENDBRANCH   1  17
TORSDOF 3
