REMARK  7 active torsions:
REMARK  status: ('A' for Active; 'I' for Inactive)
REMARK    1  A    between atoms: C_4  and  N_5 
REMARK       I    between atoms: N_5  and  C_6 
REMARK    2  A    between atoms: C_6  and  C_7 
REMARK    3  A    between atoms: C_7  and  N_8 
REMARK    4  A    between atoms: N_8  and  C_9 
REMARK    5  A    between atoms: C_10  and  C_11 
REMARK    6  A    between atoms: C_16  and  N_17 
REMARK       I    between atoms: N_17  and  C_18 
REMARK    7  A    between atoms: C_18  and  C_19 
ROOT
HETATM    1  C   UNL     1       0.958   2.176   0.908  1.00  0.00     0.024 A 
HETATM    2  C   UNL     1       0.660   0.842   1.265  1.00  0.00     0.071 A 
HETATM    3  C   UNL     1      -0.670   0.360   1.199  1.00  0.00     0.047 A 
HETATM    4  C   UNL     1      -1.719   1.181   0.796  1.00  0.00     0.035 A 
HETATM    5  C   UNL     1      -1.432   2.503   0.471  1.00  0.00     0.031 A 
HETATM    6  C   UNL     1      -0.122   2.994   0.546  1.00  0.00     0.026 A 
ENDROOT
BRANCH   1   7
HETATM    7  N   UNL     1       2.246   2.686   1.090  1.00  0.00    -0.284 NA
HETATM    8  H   UNL     1       2.967   1.957   1.047  1.00  0.00     0.128 HD
BRANCH   7   9
HETATM    9  C   UNL     1       2.735   3.891   0.377  1.00  0.00     0.195 C 
BRANCH   9  10
HETATM   10  C   UNL     1       3.702   4.685   1.273  1.00  0.00     0.235 C 
HETATM   11  N   UNL     1       3.533   4.369   2.609  1.00  0.00    -0.326 N 
HETATM   12  H   UNL     1       2.845   3.634   2.766  1.00  0.00     0.169 HD
HETATM   13  O   UNL     1       4.469   5.518   0.799  1.00  0.00    -0.272 OA
BRANCH  11  14
HETATM   14  C   UNL     1       4.175   4.910   3.734  1.00  0.00     0.035 A 
HETATM   15  C   UNL     1       5.127   5.929   3.671  1.00  0.00     0.036 A 
HETATM   16  C   UNL     1       5.715   6.434   4.843  1.00  0.00    -0.060 A 
HETATM   17  C   UNL     1       6.759   7.509   4.763  1.00  0.00     0.048 C 
HETATM   18  C   UNL     1       5.360   5.886   6.080  1.00  0.00     0.007 A 
HETATM   19  C   UNL     1       4.412   4.868   6.150  1.00  0.00     0.003 A 
HETATM   20  C   UNL     1       3.820   4.385   4.982  1.00  0.00     0.029 A 
ENDBRANCH  11  14
ENDBRANCH   9  10
ENDBRANCH   7   9
ENDBRANCH   1   7
BRANCH   2  21
HETATM   21  C   UNL     1       1.716  -0.110   1.775  1.00  0.00     0.419 C 
HETATM   22  F   UNL     1       2.965   0.157   1.285  1.00  0.00    -0.166 F 
HETATM   23  F   UNL     1       1.840  -0.075   3.131  1.00  0.00    -0.166 F 
HETATM   24  F   UNL     1       1.477  -1.413   1.453  1.00  0.00    -0.166 F 
ENDBRANCH   2  21
BRANCH   4  25
HETATM   25  N   UNL     1      -3.059   0.770   0.706  1.00  0.00    -0.321 N 
HETATM   26  C   UNL     1      -3.604  -0.466   1.008  1.00  0.00     0.279 C 
HETATM   27  O   UNL     1      -2.981  -1.431   1.438  1.00  0.00    -0.265 OA
HETATM   28  H   UNL     1      -3.734   1.455   0.382  1.00  0.00     0.169 HD
BRANCH  26  29
HETATM   29  C   UNL     1      -5.035  -0.517   0.763  1.00  0.00     0.142 A 
HETATM   30  O   UNL     1      -5.675   0.592   0.267  1.00  0.00    -0.317 OA
HETATM   31  C   UNL     1      -6.987   0.268   0.128  1.00  0.00     0.143 A 
HETATM   32  C   UNL     1      -7.209  -1.029   0.527  1.00  0.00     0.027 A 
HETATM   33  C   UNL     1      -5.953  -1.536   0.938  1.00  0.00     0.045 A 
ENDBRANCH  26  29
ENDBRANCH   4  25
TORSDOF 7
