REMARK  5 active torsions:
REMARK  status: ('A' for Active; 'I' for Inactive)
REMARK    1  A    between atoms: C_7  and  C_8 
REMARK    2  A    between atoms: C_16  and  C_17 
REMARK    3  A    between atoms: C_20  and  O_21 
REMARK    4  A    between atoms: C_24  and  C_25 
REMARK       I    between atoms: C_25  and  N_26 
REMARK    5  A    between atoms: N_26  and  C_27 
ROOT
HETATM    1  C   UNL     1       0.965   0.196   0.034  1.00  0.00     0.070 C 
HETATM    2  C   UNL     1       2.440   0.074   0.342  1.00  0.00     0.037 A 
HETATM    3  N   UNL     1       3.119   1.285   0.447  1.00  0.00    -0.192 N 
HETATM    4  C   UNL     1       4.450   1.381   0.597  1.00  0.00     0.726 A 
HETATM    5  N   UNL     1       5.182   0.244   0.743  1.00  0.00    -0.083 N 
HETATM    6  N   UNL     1       6.505   0.503   0.749  1.00  0.00    -0.135 NA
HETATM    7  C   UNL     1       6.508   1.850   0.711  1.00  0.00     0.199 A 
HETATM    8  N   UNL     1       5.249   2.415   0.600  1.00  0.00    -0.041 NA
HETATM    9  C   UNL     1       4.611  -1.106   0.761  1.00  0.00     0.202 A 
HETATM   10  C   UNL     1       3.107  -1.106   0.480  1.00  0.00     0.062 A 
HETATM   11  H   UNL     1       2.585   2.138   0.304  1.00  0.00     0.184 HD
ENDROOT
BRANCH  10  12
HETATM   12  C   UNL     1       2.373  -2.420   0.402  1.00  0.00     0.256 C 
HETATM   13  N   UNL     1       3.142  -3.519   0.068  1.00  0.00    -0.323 N 
HETATM   14  H   UNL     1       4.144  -3.428   0.030  1.00  0.00     0.169 HD
HETATM   15  O   UNL     1       1.176  -2.465   0.668  1.00  0.00    -0.267 OA
BRANCH  13  16
HETATM   16  C   UNL     1       2.683  -4.835  -0.172  1.00  0.00     0.035 A 
HETATM   17  C   UNL     1       1.339  -5.183  -0.316  1.00  0.00     0.029 A 
HETATM   18  C   UNL     1       0.973  -6.506  -0.586  1.00  0.00     0.002 A 
HETATM   19  C   UNL     1       1.947  -7.494  -0.709  1.00  0.00     0.000 A 
HETATM   20  C   UNL     1       3.290  -7.159  -0.566  1.00  0.00     0.002 A 
HETATM   21  C   UNL     1       3.656  -5.836  -0.305  1.00  0.00     0.029 A 
ENDBRANCH  13  16
ENDBRANCH  10  12
BRANCH   9  22
HETATM   22  C   UNL     1       5.005  -1.801   2.063  1.00  0.00    -0.028 A 
HETATM   23  C   UNL     1       4.282  -1.610   3.254  1.00  0.00     0.012 A 
HETATM   24  C   UNL     1       4.682  -2.235   4.438  1.00  0.00     0.037 A 
HETATM   25  C   UNL     1       5.814  -3.042   4.439  1.00  0.00     0.065 A 
HETATM   26  C   UNL     1       6.551  -3.236   3.279  1.00  0.00     0.037 A 
HETATM   27  C   UNL     1       6.152  -2.615   2.095  1.00  0.00     0.012 A 
BRANCH  25  28
HETATM   28  O   UNL     1       6.245  -3.661   5.575  1.00  0.00    -0.361 OA
HETATM   29  H   UNL     1       5.657  -3.412   6.306  1.00  0.00     0.217 HD
ENDBRANCH  25  28
ENDBRANCH   9  22
BRANCH   7  30
HETATM   30  C   UNL     1       7.723   2.659   0.764  1.00  0.00     0.014 A 
HETATM   31  C   UNL     1       8.980   2.059   0.941  1.00  0.00     0.017 A 
HETATM   32  C   UNL     1      10.140   2.839   0.999  1.00  0.00     0.025 A 
HETATM   33  C   UNL     1      10.049   4.224   0.880  1.00  0.00     0.034 A 
HETATM   34 CL   UNL     1      11.475   5.183   0.954  1.00  0.00    -0.084 Cl
HETATM   35  C   UNL     1       8.810   4.835   0.703  1.00  0.00     0.025 A 
HETATM   36  C   UNL     1       7.651   4.055   0.646  1.00  0.00     0.017 A 
ENDBRANCH   7  30
TORSDOF 5
