REMARK  4 active torsions:
REMARK  status: ('A' for Active; 'I' for Inactive)
REMARK    1  A    between atoms: C_10  and  C_11 
REMARK       I    between atoms: C_11  and  N_12 
REMARK    2  A    between atoms: N_12  and  N_13 
REMARK       I    between atoms: N_13  and  C_14 
REMARK    3  A    between atoms: C_14  and  C_15 
REMARK    4  A    between atoms: C_15  and  C_16 
ROOT
HETATM    1  C   UNL     1      -2.493  -1.780  -0.273  1.00  0.00     0.272 C 
HETATM    2  N   UNL     1      -3.762  -2.163  -0.649  1.00  0.00    -0.263 N 
HETATM    3  O   UNL     1      -2.319  -0.844   0.509  1.00  0.00    -0.266 OA
HETATM    4  H   UNL     1      -3.962  -2.952  -1.262  1.00  0.00     0.190 HD
ENDROOT
BRANCH   2   5
HETATM    5  N   UNL     1      -4.862  -1.522  -0.064  1.00  0.00    -0.267 N 
HETATM    6  C   UNL     1      -6.129  -1.961  -0.381  1.00  0.00     0.240 C 
HETATM    7  O   UNL     1      -6.341  -2.861  -1.193  1.00  0.00    -0.272 OA
HETATM    8  H   UNL     1      -4.661  -0.740   0.556  1.00  0.00     0.190 HD
BRANCH   6   9
HETATM    9  C   UNL     1      -7.243  -1.245   0.358  1.00  0.00     0.143 C 
BRANCH   9  10
HETATM   10  C   UNL     1      -7.769  -0.004  -0.327  1.00  0.00    -0.049 A 
HETATM   11  C   UNL     1      -7.889   0.080  -1.722  1.00  0.00     0.009 A 
HETATM   12  C   UNL     1      -8.433   1.219  -2.323  1.00  0.00     0.024 A 
HETATM   13  C   UNL     1      -8.880   2.274  -1.532  1.00  0.00     0.034 A 
HETATM   14 CL   UNL     1      -9.563   3.669  -2.271  1.00  0.00    -0.084 Cl
HETATM   15  C   UNL     1      -8.787   2.201  -0.145  1.00  0.00     0.024 A 
HETATM   16  C   UNL     1      -8.238   1.064   0.455  1.00  0.00     0.009 A 
ENDBRANCH   9  10
ENDBRANCH   6   9
ENDBRANCH   2   5
BRANCH   1  17
HETATM   17  C   UNL     1      -1.376  -2.530  -0.852  1.00  0.00     0.064 A 
HETATM   18  C   UNL     1      -1.328  -3.720  -1.663  1.00  0.00     0.046 A 
HETATM   19  C   UNL     1      -2.278  -4.613  -2.204  1.00  0.00     0.130 A 
HETATM   20  C   UNL     1       0.020  -3.996  -1.927  1.00  0.00     0.046 A 
HETATM   21  C   UNL     1      -1.884  -5.712  -2.969  1.00  0.00     0.043 A 
HETATM   22  F   UNL     1      -3.587  -4.425  -1.993  1.00  0.00    -0.205 F 
HETATM   23  C   UNL     1      -0.536  -5.947  -3.212  1.00  0.00     0.005 A 
HETATM   24  C   UNL     1       0.441  -5.092  -2.694  1.00  0.00     0.030 A 
HETATM   25  N   UNL     1       0.765  -3.023  -1.307  1.00  0.00    -0.364 N 
HETATM   26  H   UNL     1       1.775  -2.972  -1.326  1.00  0.00     0.165 HD
HETATM   27  C   UNL     1      -0.056  -2.148  -0.658  1.00  0.00     0.106 A 
ENDBRANCH   1  17
TORSDOF 4
