REMARK  3 active torsions:
REMARK  status: ('A' for Active; 'I' for Inactive)
REMARK    1  A    between atoms: C_3  and  N_4 
REMARK       I    between atoms: N_4  and  C_5 
REMARK    2  A    between atoms: C_5  and  C_6 
REMARK    3  A    between atoms: C_6  and  C_7 
ROOT
HETATM    1  C   UNL     1      -1.406   2.752  -0.062  1.00  0.00     0.286 C 
HETATM    2  N   UNL     1      -2.169   3.419   1.081  1.00  0.00    -0.056 N 
HETATM    3  H   UNL     1      -2.833   2.722   1.443  1.00  0.00     0.278 HD
HETATM    4  H   UNL     1      -1.501   3.556   1.870  1.00  0.00     0.278 HD
HETATM    5  C   UNL     1      -2.925   4.679   0.781  1.00  0.00     0.209 C 
HETATM    6  C   UNL     1      -3.772   4.481  -0.498  1.00  0.00     0.115 C 
HETATM    7  N   UNL     1      -3.015   3.881  -1.594  1.00  0.00    -0.353 N 
HETATM    8  C   UNL     1      -2.129   2.849  -1.414  1.00  0.00     0.249 C 
HETATM    9  O   UNL     1      -1.850   2.109  -2.351  1.00  0.00    -0.271 OA
HETATM   10  C   UNL     1      -1.979   5.878   0.720  1.00  0.00     0.035 C 
HETATM   11  C   UNL     1      -2.723   7.149   0.320  1.00  0.00     0.002 C 
HETATM   12  C   UNL     1      -3.453   6.960  -1.006  1.00  0.00     0.002 C 
HETATM   13  C   UNL     1      -4.435   5.791  -0.940  1.00  0.00     0.027 C 
HETATM   14  H   UNL     1      -3.462   3.842  -2.510  1.00  0.00     0.163 HD
ENDROOT
BRANCH   1  15
HETATM   15  C   UNL     1       0.025   3.279  -0.261  1.00  0.00     0.146 C 
BRANCH  15  16
HETATM   16  C   UNL     1       0.759   3.542   1.021  1.00  0.00     0.224 C 
HETATM   17  N   UNL     1       2.030   4.015   1.041  1.00  0.00    -0.325 N 
HETATM   18  H   UNL     1       2.371   4.164   1.992  1.00  0.00     0.169 HD
HETATM   19  O   UNL     1       0.164   3.380   2.095  1.00  0.00    -0.273 OA
BRANCH  17  20
HETATM   20  C   UNL     1       2.970   4.384   0.053  1.00  0.00     0.073 A 
HETATM   21  C   UNL     1       2.820   4.262  -1.327  1.00  0.00     0.033 A 
HETATM   22  C   UNL     1       3.840   4.691  -2.190  1.00  0.00     0.002 A 
HETATM   23  C   UNL     1       5.017   5.242  -1.687  1.00  0.00     0.003 A 
HETATM   24  C   UNL     1       5.185   5.364  -0.313  1.00  0.00     0.044 A 
HETATM   25  C   UNL     1       4.170   4.935   0.536  1.00  0.00     0.143 A 
HETATM   26  F   UNL     1       4.339   5.065   1.862  1.00  0.00    -0.204 F 
ENDBRANCH  17  20
ENDBRANCH  15  16
ENDBRANCH   1  15
TORSDOF 3
