REMARK  7 active torsions:
REMARK  status: ('A' for Active; 'I' for Inactive)
REMARK    1  A    between atoms: C_2  and  N_3 
REMARK    2  A    between atoms: C_2  and  C_25 
REMARK       I    between atoms: N_3  and  C_4 
REMARK    3  A    between atoms: C_4  and  C_5 
REMARK    4  A    between atoms: C_8  and  C_9 
REMARK       I    between atoms: C_9  and  N_10 
REMARK    5  A    between atoms: N_10  and  C_11 
REMARK    6  A    between atoms: N_19  and  C_20 
REMARK    7  A    between atoms: C_33  and  O_34 
ROOT
HETATM    1  C   UNL     1       1.758  -2.627   0.787  1.00  0.00     0.098 A 
HETATM    2  C   UNL     1       1.263  -1.441   1.552  1.00  0.00     0.206 A 
HETATM    3  O   UNL     1       1.379  -0.303   1.091  1.00  0.00    -0.286 OA
HETATM    4  C   UNL     1       0.611  -1.659   2.878  1.00  0.00     0.098 A 
HETATM    5  C   UNL     1       0.547  -2.928   3.317  1.00  0.00     0.112 A 
HETATM    6  N   UNL     1       1.053  -4.009   2.622  1.00  0.00    -0.360 N 
HETATM    7  C   UNL     1       1.605  -3.829   1.369  1.00  0.00     0.112 A 
ENDROOT
BRANCH   1   8
HETATM    8  C   UNL     1       2.403  -2.548  -0.556  1.00  0.00     0.257 C 
HETATM    9  N   UNL     1       2.597  -1.276  -1.018  1.00  0.00    -0.348 N 
HETATM   10  H   UNL     1       2.287  -0.501  -0.434  1.00  0.00     0.163 HD
HETATM   11  O   UNL     1       2.736  -3.551  -1.179  1.00  0.00    -0.267 OA
BRANCH   9  12
HETATM   12  C   UNL     1       3.225  -0.944  -2.284  1.00  0.00     0.114 C 
HETATM   13  C   UNL     1       2.258  -1.134  -3.452  1.00  0.00     0.037 C 
BRANCH  12  14
HETATM   14  C   UNL     1       3.753   0.480  -2.203  1.00  0.00    -0.035 A 
HETATM   15  C   UNL     1       2.885   1.568  -1.990  1.00  0.00     0.021 A 
HETATM   16  C   UNL     1       3.374   2.871  -1.805  1.00  0.00    -0.025 A 
HETATM   17  C   UNL     1       4.764   3.100  -1.854  1.00  0.00    -0.023 A 
HETATM   18  C   UNL     1       2.510   3.948  -1.554  1.00  0.00     0.015 A 
HETATM   19  C   UNL     1       5.628   2.020  -2.093  1.00  0.00     0.013 A 
HETATM   20  C   UNL     1       5.250   4.402  -1.648  1.00  0.00     0.049 A 
HETATM   21  C   UNL     1       5.129   0.725  -2.258  1.00  0.00     0.010 A 
HETATM   22  C   UNL     1       4.384   5.468  -1.385  1.00  0.00     0.069 A 
HETATM   23  C   UNL     1       3.011   5.237  -1.343  1.00  0.00     0.037 A 
BRANCH  22  24
HETATM   24  O   UNL     1       5.003   6.672  -1.189  1.00  0.00    -0.356 OA
HETATM   25  C   UNL     1       4.175   7.768  -0.822  1.00  0.00     0.210 C 
ENDBRANCH  22  24
ENDBRANCH  12  14
ENDBRANCH   9  12
ENDBRANCH   1   8
BRANCH   4  26
HETATM   26  C   UNL     1       0.034  -0.571   3.718  1.00  0.00     0.257 C 
HETATM   27  N   UNL     1       0.061   0.678   3.148  1.00  0.00    -0.352 N 
HETATM   28  H   UNL     1       0.561   0.781   2.265  1.00  0.00     0.163 HD
HETATM   29  O   UNL     1      -0.427  -0.792   4.834  1.00  0.00    -0.267 OA
BRANCH  27  30
HETATM   30  C   UNL     1      -0.334   1.892   3.849  1.00  0.00     0.084 C 
HETATM   31  C   UNL     1       0.819   2.430   4.708  1.00  0.00     0.025 C 
HETATM   32  C   UNL     1       1.952   3.017   3.866  1.00  0.00     0.002 C 
HETATM   33  C   UNL     1       1.443   4.082   2.899  1.00  0.00     0.000 C 
HETATM   34  C   UNL     1       0.314   3.556   2.019  1.00  0.00     0.002 C 
HETATM   35  C   UNL     1      -0.820   2.953   2.851  1.00  0.00     0.025 C 
ENDBRANCH  27  30
ENDBRANCH   4  26
BRANCH   6  36
HETATM   36  C   UNL     1       0.809  -5.368   3.123  1.00  0.00     0.089 A 
HETATM   37  C   UNL     1       1.907  -6.396   3.215  1.00  0.00     0.028 A 
HETATM   38  C   UNL     1       1.325  -5.815   4.467  1.00  0.00     0.028 A 
ENDBRANCH   6  36
TORSDOF 7
