REMARK  8 active torsions:
REMARK  status: ('A' for Active; 'I' for Inactive)
REMARK    1  A    between atoms: C_6  and  S_7 
REMARK    2  A    between atoms: S_7  and  C_8 
REMARK    3  A    between atoms: C_8  and  C_9 
REMARK       I    between atoms: C_9  and  N_10 
REMARK    4  A    between atoms: N_10  and  C_11 
REMARK    5  A    between atoms: C_24  and  C_25 
REMARK    6  A    between atoms: C_25  and  C_26 
REMARK       I    between atoms: C_26  and  N_27 
REMARK    7  A    between atoms: N_27  and  C_28 
REMARK    8  A    between atoms: C_28  and  C_29 
ROOT
HETATM    1  C   UNL     1      -1.348   1.211  -0.258  1.00  0.00     0.001 A 
HETATM    2  C   UNL     1      -0.076   1.330   0.300  1.00  0.00     0.018 A 
HETATM    3  C   UNL     1       0.901   0.389  -0.030  1.00  0.00     0.039 A 
HETATM    4  C   UNL     1       0.633  -0.674  -0.904  1.00  0.00     0.073 A 
HETATM    5  N   UNL     1       1.615  -1.610  -1.282  1.00  0.00    -0.223 NA
HETATM    6  C   UNL     1       2.792  -1.492  -0.754  1.00  0.00     0.178 C 
HETATM    7  N   UNL     1       3.104  -0.545   0.205  1.00  0.00    -0.241 N 
HETATM    8  C   UNL     1       2.247   0.448   0.543  1.00  0.00     0.147 C 
HETATM    9  N   UNL     1       2.685   1.368   1.346  1.00  0.00    -0.256 NA
HETATM   10  C   UNL     1       4.222  -0.409   0.988  1.00  0.00     0.257 C 
HETATM   11  O   UNL     1       5.087  -1.239   1.216  1.00  0.00    -0.270 OA
HETATM   12  C   UNL     1       4.088   0.947   1.661  1.00  0.00     0.211 C 
HETATM   13  C   UNL     1      -0.644  -0.776  -1.456  1.00  0.00     0.032 A 
HETATM   14  C   UNL     1      -1.631   0.161  -1.134  1.00  0.00     0.002 A 
ENDROOT
BRANCH  12  15
HETATM   15  C   UNL     1       5.084   1.945   1.082  1.00  0.00     0.140 C 
BRANCH  15  16
HETATM   16  C   UNL     1       6.476   1.397   1.299  1.00  0.00     0.220 C 
HETATM   17  N   UNL     1       7.136   1.063   0.139  1.00  0.00    -0.357 N 
HETATM   18  H   UNL     1       6.807   1.395  -0.757  1.00  0.00     0.162 HD
HETATM   19  O   UNL     1       6.910   1.184   2.427  1.00  0.00    -0.274 OA
BRANCH  17  20
HETATM   20  C   UNL     1       8.281   0.180   0.144  1.00  0.00     0.161 C 
BRANCH  20  21
HETATM   21  C   UNL     1       9.595   0.915   0.113  1.00  0.00    -0.038 A 
HETATM   22  C   UNL     1      10.441   0.819  -1.005  1.00  0.00     0.048 A 
HETATM   23  C   UNL     1      11.669   1.445  -0.946  1.00  0.00     0.105 A 
HETATM   24  C   UNL     1      12.069   2.160   0.159  1.00  0.00     0.105 A 
HETATM   25  O   UNL     1      12.618   1.425  -1.921  1.00  0.00    -0.323 OA
HETATM   26  O   UNL     1      13.318   2.678   0.019  1.00  0.00    -0.323 OA
HETATM   27  C   UNL     1      11.263   2.293   1.266  1.00  0.00     0.040 A 
HETATM   28  C   UNL     1      13.676   2.172  -1.283  1.00  0.00     0.352 A 
HETATM   29  C   UNL     1      10.017   1.659   1.240  1.00  0.00     0.012 A 
ENDBRANCH  20  21
ENDBRANCH  17  20
ENDBRANCH  15  16
ENDBRANCH  12  15
BRANCH   6  30
HETATM   30  S   UNL     1       4.074  -2.500  -1.363  1.00  0.00    -0.082 SA
BRANCH  30  31
HETATM   31  C   UNL     1       3.821  -3.956  -0.323  1.00  0.00     0.185 C 
BRANCH  31  32
HETATM   32  C   UNL     1       3.204  -5.064  -1.157  1.00  0.00     0.231 C 
HETATM   33  N   UNL     1       1.819  -5.007  -1.196  1.00  0.00    -0.327 N 
HETATM   34  H   UNL     1       1.376  -4.237  -0.708  1.00  0.00     0.169 HD
HETATM   35  O   UNL     1       3.912  -5.904  -1.705  1.00  0.00    -0.272 OA
BRANCH  33  36
HETATM   36  C   UNL     1       0.950  -5.885  -1.874  1.00  0.00     0.034 A 
HETATM   37  C   UNL     1       1.380  -6.895  -2.740  1.00  0.00     0.032 A 
HETATM   38  C   UNL     1       0.453  -7.725  -3.378  1.00  0.00     0.044 A 
HETATM   39  C   UNL     1      -0.903  -7.549  -3.140  1.00  0.00     0.116 A 
HETATM   40  F   UNL     1      -1.791  -8.348  -3.745  1.00  0.00    -0.206 F 
HETATM   41  C   UNL     1      -1.351  -6.553  -2.283  1.00  0.00     0.044 A 
HETATM   42  C   UNL     1      -0.425  -5.715  -1.657  1.00  0.00     0.032 A 
ENDBRANCH  33  36
ENDBRANCH  31  32
ENDBRANCH  30  31
ENDBRANCH   6  30
TORSDOF 8
