REMARK  2 active torsions:
REMARK  status: ('A' for Active; 'I' for Inactive)
REMARK    1  A    between atoms: C_2  and  C_3 
REMARK       I    between atoms: C_3  and  N_4 
REMARK    2  A    between atoms: N_4  and  C_5 
ROOT
HETATM    1  C   UNL     1       1.911   3.104  -0.153  1.00  0.00     0.174 A 
HETATM    2  S   UNL     1       2.650   1.602   0.137  1.00  0.00    -0.050 SA
HETATM    3  C   UNL     1       4.201   2.351   0.116  1.00  0.00     0.040 A 
HETATM    4  C   UNL     1       4.029   3.726  -0.108  1.00  0.00     0.079 A 
HETATM    5  N   UNL     1       2.713   4.135  -0.255  1.00  0.00    -0.223 NA
HETATM    6  C   UNL     1       5.468   1.762   0.283  1.00  0.00     0.061 A 
HETATM    7  C   UNL     1       6.544   2.625   0.209  1.00  0.00     0.106 A 
HETATM    8  C   UNL     1       6.399   3.972  -0.008  1.00  0.00     0.107 A 
HETATM    9  O   UNL     1       7.593   4.624  -0.044  1.00  0.00    -0.323 OA
HETATM   10  C   UNL     1       8.509   3.530   0.167  1.00  0.00     0.352 A 
HETATM   11  O   UNL     1       7.849   2.259   0.337  1.00  0.00    -0.323 OA
HETATM   12  C   UNL     1       5.162   4.567  -0.170  1.00  0.00     0.073 A 
ENDROOT
BRANCH   1  13
HETATM   13  N   UNL     1       0.557   3.263  -0.286  1.00  0.00    -0.301 N 
HETATM   14  C   UNL     1      -0.422   2.298  -0.222  1.00  0.00     0.264 C 
HETATM   15  O   UNL     1      -0.225   1.108   0.001  1.00  0.00    -0.267 OA
HETATM   16  H   UNL     1       0.281   4.218  -0.469  1.00  0.00     0.171 HD
BRANCH  14  17
HETATM   17  C   UNL     1      -1.780   2.798  -0.452  1.00  0.00     0.074 A 
HETATM   18  C   UNL     1      -2.946   2.047  -0.452  1.00  0.00     0.026 A 
HETATM   19  C   UNL     1      -4.108   2.831  -0.718  1.00  0.00     0.028 A 
HETATM   20  C   UNL     1      -3.780   4.148  -0.907  1.00  0.00     0.052 A 
HETATM   21  S   UNL     1      -2.120   4.452  -0.771  1.00  0.00    -0.077 SA
HETATM   22 BR   UNL     1      -5.037   5.485  -1.281  1.00  0.00    -0.043 Br
ENDBRANCH  14  17
ENDBRANCH   1  13
TORSDOF 2
