REMARK  3 active torsions:
REMARK  status: ('A' for Active; 'I' for Inactive)
REMARK    1  A    between atoms: C_6  and  O_7 
REMARK    2  A    between atoms: O_7  and  C_8 
REMARK       I    between atoms: N_10  and  C_11 
REMARK       I    between atoms: C_11  and  N_12 
REMARK    3  A    between atoms: N_12  and  C_13 
ROOT
HETATM    1  C   UNL     1      -2.788  -2.128  -0.028  1.00  0.00     0.148 C 
HETATM    2  C   UNL     1      -3.389  -3.461   0.437  1.00  0.00     0.160 C 
HETATM    3  N   UNL     1      -4.749  -3.136   0.845  1.00  0.00    -0.331 N 
HETATM    4  C   UNL     1      -5.838  -3.984   0.911  1.00  0.00     0.323 C 
HETATM    5  N   UNL     1      -5.509  -5.317   0.839  1.00  0.00    -0.309 N 
HETATM    6  O   UNL     1      -6.975  -3.535   1.017  1.00  0.00    -0.247 OA
HETATM    7  C   UNL     1      -4.938  -1.698   0.906  1.00  0.00     0.130 C 
HETATM    8  C   UNL     1      -3.533  -1.126   0.857  1.00  0.00     0.054 C 
HETATM    9  H   UNL     1      -4.560  -5.542   1.090  1.00  0.00     0.170 HD
ENDROOT
BRANCH   5  10
HETATM   10  C   UNL     1      -6.385  -6.409   0.663  1.00  0.00     0.037 A 
HETATM   11  C   UNL     1      -7.729  -6.265   0.296  1.00  0.00     0.043 A 
HETATM   12  C   UNL     1      -8.529  -7.410   0.100  1.00  0.00    -0.006 A 
HETATM   13  C   UNL     1      -7.961  -8.669   0.278  1.00  0.00     0.042 A 
HETATM   14  C   UNL     1      -9.887  -7.612  -0.274  1.00  0.00     0.030 A 
HETATM   15  N   UNL     1      -8.945  -9.598   0.026  1.00  0.00    -0.365 N 
HETATM   16  C   UNL     1      -6.623  -8.845   0.643  1.00  0.00     0.033 A 
HETATM   17  H   UNL     1      -8.818 -10.599   0.081  1.00  0.00     0.165 HD
HETATM   18  C   UNL     1     -10.114  -8.969  -0.313  1.00  0.00     0.089 A 
HETATM   19  C   UNL     1      -5.848  -7.692   0.827  1.00  0.00     0.032 A 
ENDBRANCH   5  10
BRANCH   1  20
HETATM   20  O   UNL     1      -1.386  -2.119   0.210  1.00  0.00    -0.344 OA
BRANCH  20  21
HETATM   21  C   UNL     1      -0.625  -1.164  -0.404  1.00  0.00     0.070 A 
HETATM   22  C   UNL     1       0.730  -1.198  -0.062  1.00  0.00     0.060 A 
HETATM   23  C   UNL     1       1.619  -0.279  -0.618  1.00  0.00     0.036 A 
HETATM   24  C   UNL     1       1.169   0.680  -1.521  1.00  0.00     0.024 A 
HETATM   25 CL   UNL     1       3.284  -0.330  -0.186  1.00  0.00    -0.084 Cl
HETATM   26  C   UNL     1      -0.180   0.718  -1.867  1.00  0.00     0.004 A 
HETATM   27  C   UNL     1      -1.076  -0.201  -1.310  1.00  0.00     0.037 A 
ENDBRANCH  20  21
ENDBRANCH   1  20
TORSDOF 3
