REMARK  6 active torsions:
REMARK  status: ('A' for Active; 'I' for Inactive)
REMARK    1  A    between atoms: O_2  and  C_3 
REMARK    2  A    between atoms: C_5  and  C_6 
REMARK    3  A    between atoms: C_12  and  C_13 
REMARK       I    between atoms: C_13  and  N_14 
REMARK    4  A    between atoms: N_14  and  C_15 
REMARK    5  A    between atoms: C_17  and  O_18 
REMARK    6  A    between atoms: C_23  and  C_24 
ROOT
HETATM    1  C   UNL     1       2.840   4.516  -1.708  1.00  0.00     0.118 C 
HETATM    2  N   UNL     1       3.965   5.426  -1.479  1.00  0.00    -0.365 N 
HETATM    3  C   UNL     1       3.949   6.694  -1.972  1.00  0.00     0.138 A 
HETATM    4  N   UNL     1       2.992   7.106  -2.864  1.00  0.00    -0.240 N 
HETATM    5  N   UNL     1       3.140   8.379  -3.263  1.00  0.00    -0.181 NA
HETATM    6  C   UNL     1       4.173   8.813  -2.535  1.00  0.00     0.160 A 
HETATM    7  C   UNL     1       4.746   7.799  -1.731  1.00  0.00     0.096 A 
HETATM    8  C   UNL     1       1.909   6.281  -3.362  1.00  0.00     0.221 C 
HETATM    9  C   UNL     1       2.177   4.794  -3.066  1.00  0.00     0.066 C 
HETATM   10  H   UNL     1       4.422   5.250  -0.582  1.00  0.00     0.161 HD
ENDROOT
BRANCH   7  11
HETATM   11  C   UNL     1       5.888   7.919  -0.842  1.00  0.00     0.261 C 
HETATM   12  N   UNL     1       6.551   6.721  -0.654  1.00  0.00    -0.323 N 
HETATM   13  H   UNL     1       6.281   5.975  -1.286  1.00  0.00     0.169 HD
HETATM   14  O   UNL     1       6.202   9.000  -0.360  1.00  0.00    -0.267 OA
BRANCH  12  15
HETATM   15  C   UNL     1       7.581   6.435   0.261  1.00  0.00     0.037 A 
HETATM   16  C   UNL     1       7.983   7.311   1.272  1.00  0.00     0.066 A 
HETATM   17  C   UNL     1       8.983   6.924   2.163  1.00  0.00     0.067 A 
HETATM   18  C   UNL     1       9.597   5.682   2.060  1.00  0.00     0.036 A 
HETATM   19  C   UNL     1       9.204   4.806   1.052  1.00  0.00     0.005 A 
HETATM   20  C   UNL     1       8.196   5.179   0.160  1.00  0.00     0.029 A 
BRANCH  17  21
HETATM   21  O   UNL     1       9.388   7.748   3.173  1.00  0.00    -0.361 OA
HETATM   22  H   UNL     1       8.888   8.580   3.110  1.00  0.00     0.217 HD
ENDBRANCH  17  21
ENDBRANCH  12  15
ENDBRANCH   7  11
BRANCH   1  23
HETATM   23  C   UNL     1       1.903   4.434  -0.518  1.00  0.00    -0.033 A 
HETATM   24  C   UNL     1       1.084   3.299  -0.375  1.00  0.00     0.046 A 
HETATM   25  C   UNL     1       0.234   3.138   0.725  1.00  0.00     0.068 A 
HETATM   26  C   UNL     1       0.178   4.135   1.695  1.00  0.00     0.037 A 
HETATM   27  C   UNL     1       0.975   5.273   1.571  1.00  0.00     0.003 A 
HETATM   28  C   UNL     1       1.834   5.418   0.480  1.00  0.00     0.009 A 
BRANCH  25  29
HETATM   29  O   UNL     1      -0.478   1.971   0.730  1.00  0.00    -0.356 OA
HETATM   30  C   UNL     1      -1.264   1.707   1.886  1.00  0.00     0.210 C 
ENDBRANCH  25  29
ENDBRANCH   1  23
BRANCH   8  31
HETATM   31  C   UNL     1       0.576   6.774  -2.839  1.00  0.00     0.409 C 
HETATM   32  F   UNL     1       0.535   6.913  -1.502  1.00  0.00    -0.169 F 
HETATM   33  F   UNL     1       0.221   7.961  -3.382  1.00  0.00    -0.169 F 
HETATM   34  F   UNL     1      -0.407   5.899  -3.178  1.00  0.00    -0.169 F 
ENDBRANCH   8  31
TORSDOF 6
