REMARK  3 active torsions:
REMARK  status: ('A' for Active; 'I' for Inactive)
REMARK    1  A    between atoms: C_10  and  C_11 
REMARK       I    between atoms: C_11  and  N_12 
REMARK    2  A    between atoms: C_14  and  O_15 
REMARK    3  A    between atoms: O_15  and  C_16 
ROOT
HETATM    1  C   UNL     1       3.537  -4.946   0.449  1.00  0.00     0.255 C 
HETATM    2  N   UNL     1       2.330  -5.485   0.042  1.00  0.00    -0.345 N 
HETATM    3  C   UNL     1       2.125  -6.928   0.089  1.00  0.00     0.158 C 
HETATM    4  C   UNL     1       1.074  -7.210  -0.993  1.00  0.00     0.148 C 
HETATM    5  C   UNL     1       0.233  -5.935  -0.932  1.00  0.00     0.054 C 
HETATM    6  C   UNL     1       1.279  -4.848  -0.740  1.00  0.00     0.129 C 
HETATM    7  O   UNL     1       4.430  -5.618   0.959  1.00  0.00    -0.267 OA
ENDROOT
BRANCH   1   8
HETATM    8  C   UNL     1       3.810  -3.519   0.202  1.00  0.00     0.050 A 
HETATM    9  C   UNL     1       5.001  -3.189  -0.443  1.00  0.00     0.136 A 
HETATM   10  N   UNL     1       5.403  -1.934  -0.771  1.00  0.00    -0.240 NA
HETATM   11  C   UNL     1       4.520  -0.995  -0.381  1.00  0.00     0.155 A 
HETATM   12  N   UNL     1       4.636   0.350  -0.567  1.00  0.00    -0.260 N 
HETATM   13  C   UNL     1       3.321  -1.184   0.292  1.00  0.00     0.038 A 
HETATM   14  N   UNL     1       3.596   1.060  -0.084  1.00  0.00    -0.177 NA
HETATM   15  H   UNL     1       5.400   0.835  -1.021  1.00  0.00     0.191 HD
HETATM   16  C   UNL     1       2.794   0.126   0.449  1.00  0.00     0.065 A 
HETATM   17  C   UNL     1       1.512   0.516   1.085  1.00  0.00     0.073 C 
HETATM   18  C   UNL     1       2.952  -2.498   0.622  1.00  0.00     0.036 A 
ENDBRANCH   1   8
BRANCH   4  19
HETATM   19  O   UNL     1       0.322  -8.369  -0.656  1.00  0.00    -0.344 OA
BRANCH  19  20
HETATM   20  C   UNL     1      -0.274  -9.062  -1.673  1.00  0.00     0.070 A 
HETATM   21  C   UNL     1      -0.525  -8.580  -2.958  1.00  0.00     0.060 A 
HETATM   22  C   UNL     1      -1.162  -9.398  -3.894  1.00  0.00     0.036 A 
HETATM   23 CL   UNL     1      -1.475  -8.793  -5.476  1.00  0.00    -0.084 Cl
HETATM   24  C   UNL     1      -1.551 -10.694  -3.563  1.00  0.00     0.024 A 
HETATM   25  C   UNL     1      -1.307 -11.176  -2.279  1.00  0.00     0.004 A 
HETATM   26  C   UNL     1      -0.677 -10.358  -1.339  1.00  0.00     0.037 A 
ENDBRANCH  19  20
ENDBRANCH   4  19
TORSDOF 3
