REMARK  2 active torsions:
REMARK  status: ('A' for Active; 'I' for Inactive)
REMARK       I    between atoms: N_5  and  C_6 
REMARK    1  A    between atoms: C_6  and  C_7 
REMARK    2  A    between atoms: N_11  and  C_12 
ROOT
HETATM    1  C   UNL     1       0.754   0.527   0.280  1.00  0.00     0.050 C 
HETATM    2  C   UNL     1       2.236   0.434   0.515  1.00  0.00    -0.030 A 
HETATM    3  C   UNL     1       3.132   1.457   0.147  1.00  0.00     0.087 A 
HETATM    4  C   UNL     1       4.510   1.307   0.402  1.00  0.00     0.160 A 
HETATM    5  N   UNL     1       5.425   2.315  -0.014  1.00  0.00    -0.287 N 
HETATM    6  C   UNL     1       6.821   2.326   0.166  1.00  0.00     0.263 C 
HETATM    7  O   UNL     1       7.455   3.369  -0.027  1.00  0.00    -0.267 OA
HETATM    8  C   UNL     1       4.885   3.570  -0.527  1.00  0.00     0.237 C 
HETATM    9  C   UNL     1       3.402   3.673  -0.815  1.00  0.00     0.240 C 
HETATM   10  O   UNL     1       2.889   4.674  -1.312  1.00  0.00    -0.271 OA
HETATM   11  N   UNL     1       2.628   2.613  -0.460  1.00  0.00    -0.322 N 
HETATM   12  N   UNL     1       4.968   0.215   1.042  1.00  0.00    -0.241 NA
HETATM   13  C   UNL     1       4.103  -0.758   1.395  1.00  0.00     0.119 A 
HETATM   14  C   UNL     1       2.748  -0.698   1.150  1.00  0.00     0.028 A 
HETATM   15  H   UNL     1       1.638   2.725  -0.635  1.00  0.00     0.169 HD
ENDROOT
BRANCH   6  16
HETATM   16  C   UNL     1       7.564   1.149   0.583  1.00  0.00     0.076 C 
HETATM   17  C   UNL     1       8.587   1.090   1.564  1.00  0.00     0.068 C 
HETATM   18  C   UNL     1       9.129   2.203   2.383  1.00  0.00     0.073 C 
HETATM   19  N   UNL     1       9.065  -0.149   1.719  1.00  0.00    -0.172 NA
HETATM   20  N   UNL     1       8.341  -0.911   0.860  1.00  0.00    -0.244 N 
HETATM   21  C   UNL     1       7.539  -0.129   0.059  1.00  0.00     0.138 C 
BRANCH  20  22
HETATM   22  C   UNL     1       8.447  -2.330   0.881  1.00  0.00     0.058 A 
HETATM   23  C   UNL     1       9.321  -2.941   1.795  1.00  0.00     0.031 A 
HETATM   24  C   UNL     1       9.408  -4.333   1.866  1.00  0.00     0.002 A 
HETATM   25  C   UNL     1       8.627  -5.124   1.027  1.00  0.00     0.000 A 
HETATM   26  C   UNL     1       7.760  -4.525   0.114  1.00  0.00     0.002 A 
HETATM   27  C   UNL     1       7.667  -3.132   0.037  1.00  0.00     0.031 A 
ENDBRANCH  20  22
ENDBRANCH   6  16
TORSDOF 2
