REMARK  5 active torsions:
REMARK  status: ('A' for Active; 'I' for Inactive)
REMARK    1  A    between atoms: C_2  and  N_3 
REMARK    2  A    between atoms: C_11  and  C_12 
REMARK    3  A    between atoms: C_14  and  C_15 
REMARK    4  A    between atoms: C_15  and  O_16 
REMARK    5  A    between atoms: O_16  and  C_17 
ROOT
HETATM    1  N   UNL     1       2.977   1.495   0.399  1.00  0.00    -0.067 N 
HETATM    2  H   UNL     1       2.782   1.714   1.385  1.00  0.00     0.280 HD
HETATM    3  C   UNL     1       4.482   1.694   0.215  1.00  0.00     0.281 C 
HETATM    4  C   UNL     1       4.838   3.139   0.255  1.00  0.00     0.018 A 
HETATM    5  C   UNL     1       3.942   4.187   0.151  1.00  0.00    -0.023 A 
HETATM    6  C   UNL     1       4.613   5.450   0.199  1.00  0.00     0.073 A 
HETATM    7  C   UNL     1       5.975   5.297   0.319  1.00  0.00     0.088 A 
HETATM    8  N   UNL     1       6.835   6.341   0.368  1.00  0.00    -0.357 N 
HETATM    9  C   UNL     1       6.295   7.629   0.782  1.00  0.00     0.243 C 
HETATM   10  N   UNL     1       4.984   7.803   0.204  1.00  0.00    -0.330 N 
HETATM   11  C   UNL     1       4.066   6.791   0.119  1.00  0.00     0.256 C 
HETATM   12  O   UNL     1       2.872   7.015  -0.048  1.00  0.00    -0.267 OA
HETATM   13  S   UNL     1       6.450   3.668   0.398  1.00  0.00    -0.074 SA
HETATM   14  C   UNL     1       2.471   3.945   0.017  1.00  0.00     0.068 C 
HETATM   15  C   UNL     1       2.180   2.504  -0.435  1.00  0.00     0.240 C 
HETATM   16  H   UNL     1       7.744   6.161   0.789  1.00  0.00     0.162 HD
HETATM   17  H   UNL     1       4.588   8.730   0.194  1.00  0.00     0.165 HD
ENDROOT
BRANCH   9  18
HETATM   18  C   UNL     1       6.228   7.858   2.264  1.00  0.00     0.095 A 
HETATM   19  O   UNL     1       7.045   7.085   3.045  1.00  0.00    -0.313 OA
HETATM   20  C   UNL     1       6.832   7.446   4.343  1.00  0.00     0.077 A 
HETATM   21  C   UNL     1       5.906   8.465   4.401  1.00  0.00     0.037 A 
HETATM   22  C   UNL     1       5.522   8.736   3.066  1.00  0.00     0.039 A 
BRANCH  20  23
HETATM   23  C   UNL     1       7.626   6.733   5.379  1.00  0.00     0.240 C 
BRANCH  23  24
HETATM   24  O   UNL     1       7.227   5.355   5.348  1.00  0.00    -0.341 OA
BRANCH  24  25
HETATM   25  C   UNL     1       7.101   4.810   6.602  1.00  0.00     0.112 A 
HETATM   26  C   UNL     1       8.199   4.576   7.442  1.00  0.00     0.070 A 
HETATM   27 CL   UNL     1       9.817   4.951   6.970  1.00  0.00    -0.081 Cl
HETATM   28  C   UNL     1       8.016   3.984   8.695  1.00  0.00     0.050 A 
HETATM   29  C   UNL     1       6.741   3.602   9.099  1.00  0.00     0.037 A 
HETATM   30 CL   UNL     1       6.520   2.862  10.636  1.00  0.00    -0.084 Cl
HETATM   31  C   UNL     1       5.644   3.794   8.263  1.00  0.00     0.050 A 
HETATM   32  C   UNL     1       5.827   4.389   7.014  1.00  0.00     0.070 A 
HETATM   33 CL   UNL     1       4.445   4.588   5.995  1.00  0.00    -0.081 Cl
ENDBRANCH  24  25
ENDBRANCH  23  24
ENDBRANCH  20  23
ENDBRANCH   9  18
BRANCH   1  34
HETATM   34  C   UNL     1       2.525   0.082   0.130  1.00  0.00     0.231 C 
HETATM   35  C   UNL     1       3.094  -0.881   1.156  1.00  0.00     0.034 C 
ENDBRANCH   1  34
TORSDOF 5
