REMARK  5 active torsions:
REMARK  status: ('A' for Active; 'I' for Inactive)
REMARK    1  A    between atoms: C_2  and  O_3 
REMARK    2  A    between atoms: C_4  and  C_5 
REMARK    3  A    between atoms: C_5  and  O_6 
REMARK    4  A    between atoms: C_9  and  C_10 
REMARK    5  A    between atoms: C_22  and  O_23 
ROOT
HETATM    1  C   UNL     1       2.446   0.268   1.694  1.00  0.00     0.047 C 
HETATM    2  C   UNL     1       2.731   0.158   0.189  1.00  0.00     0.073 C 
HETATM    3  C   UNL     1       3.303   1.479  -0.438  1.00  0.00     0.133 C 
HETATM    4  C   UNL     1       3.821   1.368  -1.914  1.00  0.00     0.074 C 
HETATM    5  C   UNL     1       3.997  -0.045  -2.366  1.00  0.00     0.030 A 
HETATM    6  C   UNL     1       3.925  -1.136  -1.530  1.00  0.00     0.042 A 
HETATM    7  N   UNL     1       4.110  -2.247  -2.301  1.00  0.00    -0.279 N 
HETATM    8  H   UNL     1       4.123  -3.223  -2.021  1.00  0.00     0.189 HD
HETATM    9  N   UNL     1       4.234  -1.951  -3.613  1.00  0.00    -0.149 NA
HETATM   10  C   UNL     1       4.162  -0.626  -3.624  1.00  0.00     0.190 A 
HETATM   11  C   UNL     1       3.615  -1.095  -0.080  1.00  0.00     0.097 C 
ENDROOT
BRANCH   4  12
HETATM   12  C   UNL     1       5.145   2.059  -2.233  1.00  0.00    -0.048 A 
HETATM   13  C   UNL     1       6.385   1.564  -1.779  1.00  0.00     0.009 A 
HETATM   14  C   UNL     1       7.577   2.232  -2.065  1.00  0.00     0.024 A 
HETATM   15  C   UNL     1       7.548   3.405  -2.811  1.00  0.00     0.034 A 
HETATM   16 CL   UNL     1       9.015   4.231  -3.161  1.00  0.00    -0.084 Cl
HETATM   17  C   UNL     1       6.337   3.916  -3.271  1.00  0.00     0.024 A 
HETATM   18  C   UNL     1       5.142   3.248  -2.982  1.00  0.00     0.009 A 
ENDBRANCH   4  12
BRANCH   3  19
HETATM   19  C   UNL     1       4.315   2.137   0.478  1.00  0.00     0.266 C 
HETATM   20  O   UNL     1       5.177   1.547   1.114  1.00  0.00    -0.265 OA
BRANCH  19  21
HETATM   21  O   UNL     1       4.124   3.488   0.480  1.00  0.00    -0.326 OA
HETATM   22  C   UNL     1       5.062   4.219   1.270  1.00  0.00     0.213 C 
ENDBRANCH  19  21
ENDBRANCH   3  19
BRANCH   2  23
HETATM   23  O   UNL     1       1.422  -0.067  -0.393  1.00  0.00    -0.389 OA
HETATM   24  H   UNL     1       1.538  -0.355  -1.317  1.00  0.00     0.210 HD
ENDBRANCH   2  23
BRANCH  10  25
HETATM   25  O   UNL     1       4.217  -0.059  -4.824  1.00  0.00    -0.343 OA
HETATM   26  H   UNL     1       4.344  -0.801  -5.440  1.00  0.00     0.219 HD
ENDBRANCH  10  25
TORSDOF 5
