REMARK  7 active torsions:
REMARK  status: ('A' for Active; 'I' for Inactive)
REMARK    1  A    between atoms: C_7  and  C_8 
REMARK    2  A    between atoms: C_8  and  N_9 
REMARK    3  A    between atoms: C_13  and  C_14 
REMARK    4  A    between atoms: C_14  and  C_15 
REMARK    5  A    between atoms: C_15  and  C_16 
REMARK    6  A    between atoms: N_26  and  C_27 
REMARK    7  A    between atoms: C_27  and  C_28 
ROOT
HETATM    1  C   UNL     1       4.769  -5.184   3.564  1.00  0.00     0.123 C 
HETATM    2  N   UNL     1       4.570  -6.150   4.632  1.00  0.00    -0.324 N 
HETATM    3  C   UNL     1       4.672  -5.600   5.890  1.00  0.00     0.326 C 
HETATM    4  O   UNL     1       4.710  -6.251   6.917  1.00  0.00    -0.247 OA
HETATM    5  N   UNL     1       4.687  -4.251   5.757  1.00  0.00    -0.268 N 
HETATM    6  C   UNL     1       4.635  -3.914   4.441  1.00  0.00     0.257 C 
HETATM    7  O   UNL     1       4.520  -2.776   4.004  1.00  0.00    -0.270 OA
HETATM    8  H   UNL     1       4.734  -7.150   4.538  1.00  0.00     0.165 HD
ENDROOT
BRANCH   1   9
HETATM    9  C   UNL     1       3.677  -5.349   2.456  1.00  0.00     0.027 C 
HETATM   10  C   UNL     1       3.723  -4.378   1.266  1.00  0.00     0.035 C 
HETATM   11  C   UNL     1       3.087  -3.010   1.475  1.00  0.00     0.235 C 
HETATM   12  N   UNL     1       1.747  -3.080   2.167  1.00  0.00    -0.067 N 
HETATM   13  H   UNL     1       1.065  -3.352   1.449  1.00  0.00     0.280 HD
HETATM   14  C   UNL     1       1.627  -4.055   3.307  1.00  0.00     0.235 C 
HETATM   15  C   UNL     1       2.221  -5.406   2.957  1.00  0.00     0.035 C 
BRANCH  12  16
HETATM   16  C   UNL     1       1.305  -1.703   2.658  1.00  0.00     0.277 C 
BRANCH  16  17
HETATM   17  C   UNL     1       1.331  -0.640   1.628  1.00  0.00     0.011 A 
HETATM   18  C   UNL     1       2.238   0.457   1.550  1.00  0.00     0.060 A 
HETATM   19  C   UNL     1       3.349   0.815   2.471  1.00  0.00     0.073 C 
HETATM   20  N   UNL     1       2.001   1.209   0.474  1.00  0.00    -0.178 NA
HETATM   21  N   UNL     1       0.916   0.664  -0.093  1.00  0.00    -0.284 N 
HETATM   22  C   UNL     1       0.331   1.277  -1.262  1.00  0.00     0.179 C 
HETATM   23  C   UNL     1       0.493  -0.470   0.542  1.00  0.00     0.122 A 
ENDBRANCH  16  17
ENDBRANCH  12  16
ENDBRANCH   1   9
BRANCH   1  24
HETATM   24  C   UNL     1       6.255  -5.189   3.081  1.00  0.00     0.082 C 
BRANCH  24  25
HETATM   25  C   UNL     1       6.722  -6.095   1.954  1.00  0.00    -0.034 A 
HETATM   26  C   UNL     1       6.650  -7.499   1.952  1.00  0.00     0.040 A 
HETATM   27 CL   UNL     1       5.955  -8.408   3.239  1.00  0.00    -0.084 Cl
HETATM   28  C   UNL     1       7.191  -8.245   0.895  1.00  0.00     0.024 A 
HETATM   29  C   UNL     1       7.837  -7.612  -0.163  1.00  0.00     0.002 A 
HETATM   30  C   UNL     1       7.944  -6.229  -0.171  1.00  0.00     0.001 A 
HETATM   31  C   UNL     1       7.395  -5.481   0.874  1.00  0.00     0.009 A 
ENDBRANCH  24  25
ENDBRANCH   1  24
BRANCH   5  32
HETATM   32  C   UNL     1       4.742  -3.312   6.857  1.00  0.00     0.141 C 
BRANCH  32  33
HETATM   33  C   UNL     1       6.163  -2.914   7.121  1.00  0.00     0.004 A 
HETATM   34  C   UNL     1       6.873  -1.906   6.250  1.00  0.00     0.007 A 
HETATM   35  C   UNL     1       6.479  -1.538   7.653  1.00  0.00     0.007 A 
ENDBRANCH  32  33
ENDBRANCH   5  32
TORSDOF 7
