REMARK  8 active torsions:
REMARK  status: ('A' for Active; 'I' for Inactive)
REMARK    1  A    between atoms: C_3  and  N_4 
REMARK    2  A    between atoms: C_5  and  S_6 
REMARK    3  A    between atoms: S_6  and  C_7 
REMARK    4  A    between atoms: C_7  and  C_8 
REMARK       I    between atoms: C_8  and  N_9 
REMARK    5  A    between atoms: N_9  and  C_10 
REMARK    6  A    between atoms: C_10  and  C_11 
REMARK    7  A    between atoms: C_11  and  C_12 
REMARK    8  A    between atoms: C_22  and  N_23 
ROOT
HETATM    1  N   UNL     1       2.391   2.052   0.042  1.00  0.00    -0.275 N 
HETATM    2  C   UNL     1       3.029   3.155   0.668  1.00  0.00     0.177 A 
HETATM    3  N   UNL     1       2.534   4.363   0.789  1.00  0.00    -0.204 NA
HETATM    4  C   UNL     1       1.282   4.488   0.294  1.00  0.00     0.162 A 
HETATM    5  C   UNL     1       0.494   3.554  -0.321  1.00  0.00     0.081 A 
HETATM    6  C   UNL     1       1.050   2.244  -0.486  1.00  0.00     0.124 A 
HETATM    7  N   UNL     1       0.530   5.623   0.329  1.00  0.00    -0.260 N 
HETATM    8  H   UNL     1       0.784   6.523   0.721  1.00  0.00     0.191 HD
HETATM    9  N   UNL     1      -0.688   5.470  -0.237  1.00  0.00    -0.177 NA
HETATM   10  C   UNL     1      -0.718   4.188  -0.633  1.00  0.00     0.068 A 
HETATM   11  C   UNL     1      -1.932   3.658  -1.296  1.00  0.00     0.073 C 
ENDROOT
BRANCH   2  12
HETATM   12  S   UNL     1       4.670   2.955   1.317  1.00  0.00    -0.082 SA
BRANCH  12  13
HETATM   13  C   UNL     1       4.586   4.024   2.775  1.00  0.00     0.185 C 
BRANCH  13  14
HETATM   14  C   UNL     1       3.642   3.489   3.846  1.00  0.00     0.227 C 
HETATM   15  N   UNL     1       3.828   3.948   5.129  1.00  0.00    -0.360 N 
HETATM   16  H   UNL     1       3.206   3.524   5.810  1.00  0.00     0.162 HD
HETATM   17  O   UNL     1       2.720   2.702   3.627  1.00  0.00    -0.273 OA
BRANCH  15  18
HETATM   18  C   UNL     1       4.922   4.789   5.586  1.00  0.00     0.127 C 
BRANCH  18  19
HETATM   19  C   UNL     1       4.807   5.181   7.059  1.00  0.00     0.058 C 
BRANCH  19  20
HETATM   20  C   UNL     1       5.967   6.055   7.471  1.00  0.00    -0.057 A 
HETATM   21  C   UNL     1       5.827   7.448   7.520  1.00  0.00     0.007 A 
HETATM   22  C   UNL     1       6.915   8.257   7.855  1.00  0.00     0.001 A 
HETATM   23  C   UNL     1       8.152   7.682   8.138  1.00  0.00     0.000 A 
HETATM   24  C   UNL     1       8.303   6.298   8.093  1.00  0.00     0.001 A 
HETATM   25  C   UNL     1       7.216   5.487   7.762  1.00  0.00     0.007 A 
ENDBRANCH  19  20
ENDBRANCH  18  19
ENDBRANCH  15  18
ENDBRANCH  13  14
ENDBRANCH  12  13
ENDBRANCH   2  12
BRANCH   1  26
HETATM   26  C   UNL     1       3.010   0.767  -0.022  1.00  0.00     0.051 A 
HETATM   27  C   UNL     1       3.970   0.449  -1.008  1.00  0.00    -0.035 A 
HETATM   28  C   UNL     1       4.494   1.464  -1.989  1.00  0.00     0.050 C 
HETATM   29  C   UNL     1       4.507  -0.848  -1.044  1.00  0.00     0.011 A 
HETATM   30  C   UNL     1       4.072  -1.829  -0.151  1.00  0.00     0.024 A 
HETATM   31  C   UNL     1       3.109  -1.516   0.801  1.00  0.00     0.036 A 
HETATM   32  C   UNL     1       2.580  -0.229   0.873  1.00  0.00     0.054 A 
HETATM   33 CL   UNL     1       2.549  -2.729   1.883  1.00  0.00    -0.084 Cl
ENDBRANCH   1  26
BRANCH   6  34
HETATM   34  N   UNL     1       0.383   1.289  -1.106  1.00  0.00    -0.384 N 
HETATM   35  H   UNL     1      -0.543   1.440  -1.477  1.00  0.00     0.157 HD
HETATM   36  H   UNL     1       0.806   0.378  -1.225  1.00  0.00     0.157 HD
ENDBRANCH   6  34
TORSDOF 8
