REMARK  8 active torsions:
REMARK  status: ('A' for Active; 'I' for Inactive)
REMARK    1  A    between atoms: C_7  and  C_8 
REMARK       I    between atoms: C_8  and  N_9 
REMARK    2  A    between atoms: N_9  and  C_10 
REMARK    3  A    between atoms: C_11  and  C_12 
REMARK       I    between atoms: C_12  and  N_13 
REMARK    4  A    between atoms: N_13  and  C_14 
REMARK    5  A    between atoms: C_14  and  C_15 
REMARK    6  A    between atoms: C_15  and  C_16 
REMARK    7  A    between atoms: C_17  and  O_18 
REMARK    8  A    between atoms: C_22  and  O_23 
ROOT
HETATM    1  C   UNL     1      -1.908  -0.308   0.855  1.00  0.00     0.050 A 
HETATM    2  C   UNL     1      -1.345  -1.383   0.146  1.00  0.00     0.058 A 
HETATM    3  C   UNL     1      -0.037  -1.271  -0.366  1.00  0.00     0.019 A 
HETATM    4  C   UNL     1       0.701  -0.102  -0.182  1.00  0.00     0.001 A 
HETATM    5  C   UNL     1       0.129   0.978   0.482  1.00  0.00     0.002 A 
HETATM    6  C   UNL     1      -1.171   0.881   0.982  1.00  0.00     0.030 A 
ENDROOT
BRANCH   2   7
HETATM    7  C   UNL     1      -2.136  -2.574  -0.277  1.00  0.00     0.253 C 
HETATM    8  N   UNL     1      -1.473  -3.781  -0.167  1.00  0.00    -0.356 N 
HETATM    9  H   UNL     1      -0.667  -3.795   0.444  1.00  0.00     0.162 HD
HETATM   10  O   UNL     1      -3.269  -2.444  -0.724  1.00  0.00    -0.268 OA
BRANCH   8  11
HETATM   11  C   UNL     1      -2.134  -5.052  -0.407  1.00  0.00     0.127 C 
BRANCH  11  12
HETATM   12  C   UNL     1      -2.614  -5.250  -1.852  1.00  0.00     0.061 C 
BRANCH  12  13
HETATM   13  C   UNL     1      -2.980  -6.670  -2.264  1.00  0.00    -0.021 A 
HETATM   14  C   UNL     1      -3.195  -6.955  -3.630  1.00  0.00     0.074 A 
HETATM   15  C   UNL     1      -3.497  -8.259  -4.031  1.00  0.00     0.040 A 
HETATM   16  C   UNL     1      -3.619  -9.277  -3.085  1.00  0.00     0.039 A 
HETATM   17  C   UNL     1      -3.454  -9.007  -1.728  1.00  0.00     0.068 A 
HETATM   18  C   UNL     1      -3.140  -7.708  -1.323  1.00  0.00     0.046 A 
BRANCH  14  19
HETATM   19  O   UNL     1      -3.064  -5.898  -4.494  1.00  0.00    -0.355 OA
HETATM   20  C   UNL     1      -3.597  -6.064  -5.802  1.00  0.00     0.210 C 
ENDBRANCH  14  19
BRANCH  17  21
HETATM   21  O   UNL     1      -3.614 -10.091  -0.909  1.00  0.00    -0.356 OA
HETATM   22  C   UNL     1      -3.579  -9.852   0.492  1.00  0.00     0.210 C 
ENDBRANCH  17  21
ENDBRANCH  12  13
ENDBRANCH  11  12
ENDBRANCH   8  11
ENDBRANCH   2   7
BRANCH   1  23
HETATM   23  N   UNL     1      -3.180  -0.304   1.462  1.00  0.00    -0.321 N 
HETATM   24  C   UNL     1      -3.792  -1.383   2.073  1.00  0.00     0.265 C 
HETATM   25  O   UNL     1      -3.238  -2.451   2.318  1.00  0.00    -0.267 OA
HETATM   26  H   UNL     1      -3.610   0.594   1.652  1.00  0.00     0.169 HD
BRANCH  24  27
HETATM   27  C   UNL     1      -5.202  -1.081   2.552  1.00  0.00     0.097 C 
HETATM   28  C   UNL     1      -6.121  -2.068   2.680  1.00  0.00     0.064 C 
HETATM   29  C   UNL     1      -5.881  -3.493   2.253  1.00  0.00     0.078 C 
HETATM   30  O   UNL     1      -7.413  -1.908   3.159  1.00  0.00    -0.353 OA
HETATM   31  C   UNL     1      -7.700  -0.703   3.869  1.00  0.00     0.185 C 
HETATM   32  C   UNL     1      -7.338   0.522   3.057  1.00  0.00     0.106 C 
HETATM   33  S   UNL     1      -5.535   0.597   2.931  1.00  0.00    -0.120 SA
ENDBRANCH  24  27
ENDBRANCH   1  23
TORSDOF 8
