REMARK  6 active torsions:
REMARK  status: ('A' for Active; 'I' for Inactive)
REMARK    1  A    between atoms: C_3  and  C_4 
REMARK    2  A    between atoms: C_9  and  C_10 
REMARK    3  A    between atoms: C_10  and  N_11 
REMARK    4  A    between atoms: C_13  and  C_14 
REMARK    5  A    between atoms: C_15  and  O_16 
REMARK    6  A    between atoms: C_20  and  C_21 
ROOT
HETATM    1  N   UNL     1      -2.627  -2.630  -0.190  1.00  0.00    -0.394 N 
HETATM    2  H   UNL     1      -3.036  -2.323   0.701  1.00  0.00     0.159 HD
HETATM    3  C   UNL     1      -3.414  -2.881  -1.175  1.00  0.00     0.101 C 
ENDROOT
BRANCH   1   4
HETATM    4  C   UNL     1      -1.150  -2.672  -0.203  1.00  0.00     0.157 C 
BRANCH   4   5
HETATM    5  C   UNL     1      -0.594  -1.277  -0.140  1.00  0.00    -0.040 A 
HETATM    6  C   UNL     1      -0.274  -0.581  -1.318  1.00  0.00     0.025 A 
HETATM    7  C   UNL     1       0.212   0.738  -1.274  1.00  0.00     0.048 A 
HETATM    8  C   UNL     1       0.377   1.358  -0.029  1.00  0.00     0.016 A 
HETATM    9  C   UNL     1       0.063   0.676   1.146  1.00  0.00     0.001 A 
HETATM   10  C   UNL     1      -0.420  -0.632   1.094  1.00  0.00     0.009 A 
BRANCH   7  11
HETATM   11  C   UNL     1       0.559   1.457  -2.560  1.00  0.00     0.417 C 
HETATM   12  F   UNL     1       0.878   2.766  -2.392  1.00  0.00    -0.166 F 
HETATM   13  F   UNL     1       1.611   0.879  -3.198  1.00  0.00    -0.166 F 
HETATM   14  F   UNL     1      -0.478   1.425  -3.443  1.00  0.00    -0.166 F 
ENDBRANCH   7  11
ENDBRANCH   4   5
ENDBRANCH   1   4
BRANCH   3  15
HETATM   15  C   UNL     1      -4.860  -2.833  -1.195  1.00  0.00     0.066 A 
HETATM   16  C   UNL     1      -5.706  -2.955  -2.320  1.00  0.00     0.195 A 
HETATM   17  N   UNL     1      -6.992  -2.900  -2.024  1.00  0.00    -0.148 NA
HETATM   18  N   UNL     1      -7.017  -2.733  -0.701  1.00  0.00    -0.270 N 
HETATM   19  H   UNL     1      -7.926  -2.660  -0.245  1.00  0.00     0.189 HD
HETATM   20  C   UNL     1      -5.765  -2.688  -0.145  1.00  0.00     0.150 A 
BRANCH  16  21
HETATM   21  O   UNL     1      -5.433  -3.115  -3.615  1.00  0.00    -0.343 OA
HETATM   22  H   UNL     1      -4.503  -2.989  -3.840  1.00  0.00     0.219 HD
ENDBRANCH  16  21
BRANCH  20  23
HETATM   23  C   UNL     1      -5.657  -2.540   1.315  1.00  0.00     0.435 C 
HETATM   24  F   UNL     1      -4.383  -2.184   1.644  1.00  0.00    -0.165 F 
HETATM   25  F   UNL     1      -6.481  -1.593   1.803  1.00  0.00    -0.165 F 
HETATM   26  F   UNL     1      -5.912  -3.700   1.953  1.00  0.00    -0.165 F 
ENDBRANCH  20  23
ENDBRANCH   3  15
TORSDOF 6
