REMARK  9 active torsions:
REMARK  status: ('A' for Active; 'I' for Inactive)
REMARK    1  A    between atoms: C_7  and  O_8 
REMARK    2  A    between atoms: O_8  and  C_9 
REMARK    3  A    between atoms: C_10  and  N_11 
REMARK    4  A    between atoms: N_11  and  C_12 
REMARK    5  A    between atoms: C_14  and  C_15 
REMARK       I    between atoms: C_15  and  N_16 
REMARK    6  A    between atoms: N_16  and  C_17 
REMARK    7  A    between atoms: C_17  and  C_18 
REMARK    8  A    between atoms: C_18  and  N_19 
REMARK    9  A    between atoms: N_29  and  C_30 
ROOT
HETATM    1  C   UNL     1       4.545  -3.765  -0.738  1.00  0.00     0.122 C 
HETATM    2  C   UNL     1       5.314  -4.859  -0.606  1.00  0.00     0.119 C 
HETATM    3  C   UNL     1       4.648  -6.214  -0.514  1.00  0.00     0.293 C 
HETATM    4  O   UNL     1       5.395  -7.197  -0.508  1.00  0.00    -0.264 OA
HETATM    5  N   UNL     1       3.255  -6.232  -0.490  1.00  0.00    -0.195 N 
HETATM    6  N   UNL     1       2.496  -5.142  -0.854  1.00  0.00    -0.174 NA
HETATM    7  C   UNL     1       3.108  -4.013  -0.972  1.00  0.00     0.178 C 
ENDROOT
BRANCH   2   8
HETATM    8  N   UNL     1       6.714  -4.896  -0.496  1.00  0.00    -0.253 NA
HETATM    9  H   UNL     1       6.982  -5.850  -0.215  1.00  0.00     0.134 HD
BRANCH   8  10
HETATM   10  C   UNL     1       7.609  -4.482  -1.520  1.00  0.00     0.014 A 
HETATM   11  C   UNL     1       8.983  -4.486  -1.237  1.00  0.00     0.040 A 
HETATM   12  C   UNL     1       9.911  -4.089  -2.207  1.00  0.00     0.033 A 
HETATM   13  C   UNL     1       9.482  -3.711  -3.483  1.00  0.00     0.017 A 
HETATM   14  C   UNL     1       8.122  -3.719  -3.777  1.00  0.00     0.003 A 
HETATM   15  C   UNL     1       7.194  -4.094  -2.801  1.00  0.00     0.024 A 
BRANCH  12  16
HETATM   16  C   UNL     1      11.353  -4.094  -1.862  1.00  0.00     0.251 C 
HETATM   17  N   UNL     1      12.096  -3.021  -2.316  1.00  0.00    -0.355 N 
HETATM   18  H   UNL     1      11.550  -2.241  -2.675  1.00  0.00     0.162 HD
HETATM   19  O   UNL     1      11.858  -5.019  -1.239  1.00  0.00    -0.268 OA
BRANCH  17  20
HETATM   20  C   UNL     1      13.382  -2.655  -1.724  1.00  0.00     0.150 C 
BRANCH  20  21
HETATM   21  C   UNL     1      14.386  -3.790  -1.427  1.00  0.00     0.253 C 
BRANCH  21  22
HETATM   22  N   UNL     1      14.419  -4.835  -2.523  1.00  0.00    -0.077 N 
HETATM   23  H   UNL     1      13.425  -5.093  -2.644  1.00  0.00     0.279 HD
HETATM   24  C   UNL     1      14.955  -4.341  -3.827  1.00  0.00     0.269 C 
HETATM   25  C   UNL     1      15.095  -6.095  -2.071  1.00  0.00     0.269 C 
ENDBRANCH  21  22
ENDBRANCH  20  21
ENDBRANCH  17  20
ENDBRANCH  12  16
ENDBRANCH   8  10
ENDBRANCH   2   8
BRANCH   1  26
HETATM   26  O   UNL     1       5.101  -2.489  -0.770  1.00  0.00    -0.307 OA
BRANCH  26  27
HETATM   27  C   UNL     1       4.294  -1.393  -0.596  1.00  0.00     0.076 A 
HETATM   28  C   UNL     1       4.374  -0.389  -1.557  1.00  0.00     0.039 A 
HETATM   29  C   UNL     1       3.571   0.745  -1.441  1.00  0.00     0.027 A 
HETATM   30  C   UNL     1       2.696   0.879  -0.359  1.00  0.00     0.040 A 
HETATM   31  C   UNL     1       2.634  -0.109   0.638  1.00  0.00    -0.038 A 
HETATM   32 CL   UNL     1       1.704   2.291  -0.298  1.00  0.00    -0.084 Cl
HETATM   33  C   UNL     1       1.687  -0.003   1.801  1.00  0.00     0.050 C 
HETATM   34  C   UNL     1       3.456  -1.243   0.515  1.00  0.00     0.045 A 
ENDBRANCH  26  27
ENDBRANCH   1  26
BRANCH   5  35
HETATM   35  C   UNL     1       2.502  -7.440  -0.326  1.00  0.00     0.084 A 
HETATM   36  C   UNL     1       2.828  -8.446   0.604  1.00  0.00     0.063 A 
HETATM   37 CL   UNL     1       3.999  -8.234   1.867  1.00  0.00    -0.082 Cl
HETATM   38  C   UNL     1       2.078  -9.631   0.663  1.00  0.00     0.026 A 
HETATM   39  C   UNL     1       0.978  -9.817  -0.173  1.00  0.00     0.002 A 
HETATM   40  C   UNL     1       0.607  -8.810  -1.055  1.00  0.00     0.002 A 
HETATM   41  C   UNL     1       1.355  -7.632  -1.124  1.00  0.00     0.033 A 
ENDBRANCH   5  35
TORSDOF 9
