REMARK  10 active torsions:
REMARK  status: ('A' for Active; 'I' for Inactive)
REMARK    1  A    between atoms: C_2  and  C_3 
REMARK    2  A    between atoms: C_3  and  N_4 
REMARK    3  A    between atoms: N_4  and  C_5 
REMARK    4  A    between atoms: C_5  and  N_6 
REMARK    5  A    between atoms: N_6  and  N_7 
REMARK       I    between atoms: N_7  and  C_8 
REMARK    6  A    between atoms: C_8  and  C_9 
REMARK    7  A    between atoms: C_9  and  C_10 
REMARK    8  A    between atoms: C_10  and  C_11 
REMARK    9  A    between atoms: C_13  and  O_14 
REMARK   10  A    between atoms: C_15  and  O_16 
ROOT
HETATM    1  N   UNL     1       3.296   4.583  -0.468  1.00  0.00    -0.268 N 
HETATM    2  C   UNL     1       4.524   4.926  -0.999  1.00  0.00     0.236 C 
HETATM    3  O   UNL     1       4.748   6.010  -1.537  1.00  0.00    -0.272 OA
HETATM    4  H   UNL     1       3.213   3.874   0.256  1.00  0.00     0.190 HD
ENDROOT
BRANCH   1   5
HETATM    5  N   UNL     1       2.294   5.572  -0.489  1.00  0.00    -0.274 N 
HETATM    6  H   UNL     1       2.346   6.154  -1.324  1.00  0.00     0.189 HD
BRANCH   5   7
HETATM    7  C   UNL     1       1.928   6.203   0.676  1.00  0.00     0.186 C 
HETATM    8  S   UNL     1       2.311   5.682   2.219  1.00  0.00    -0.040 SA
BRANCH   7   9
HETATM    9  N   UNL     1       1.163   7.323   0.538  1.00  0.00    -0.362 N 
HETATM   10  H   UNL     1       0.937   7.792   1.407  1.00  0.00     0.162 HD
BRANCH   9  11
HETATM   11  C   UNL     1       0.545   7.848  -0.667  1.00  0.00     0.160 C 
BRANCH  11  12
HETATM   12  C   UNL     1       1.348   8.916  -1.373  1.00  0.00    -0.040 A 
HETATM   13  C   UNL     1       2.745   9.013  -1.279  1.00  0.00     0.010 A 
HETATM   14  C   UNL     1       3.446   9.982  -2.004  1.00  0.00     0.024 A 
HETATM   15  C   UNL     1       2.758  10.863  -2.832  1.00  0.00     0.034 A 
HETATM   16  C   UNL     1       1.374  10.781  -2.946  1.00  0.00     0.024 A 
HETATM   17 CL   UNL     1       3.622  12.051  -3.727  1.00  0.00    -0.084 Cl
HETATM   18  C   UNL     1       0.674   9.810  -2.225  1.00  0.00     0.010 A 
ENDBRANCH  11  12
ENDBRANCH   9  11
ENDBRANCH   7   9
ENDBRANCH   5   7
ENDBRANCH   1   5
BRANCH   2  19
HETATM   19  C   UNL     1       5.572   3.840  -0.912  1.00  0.00     0.109 C 
BRANCH  19  20
HETATM   20  C   UNL     1       5.218   2.615  -1.759  1.00  0.00     0.048 C 
BRANCH  20  21
HETATM   21  C   UNL     1       4.826   2.882  -3.198  1.00  0.00    -0.055 A 
HETATM   22  C   UNL     1       5.408   3.912  -3.956  1.00  0.00     0.046 A 
HETATM   23  C   UNL     1       4.978   4.140  -5.260  1.00  0.00     0.099 A 
HETATM   24  C   UNL     1       4.006   3.329  -5.835  1.00  0.00     0.098 A 
HETATM   25  C   UNL     1       3.446   2.284  -5.120  1.00  0.00     0.040 A 
HETATM   26  C   UNL     1       3.857   2.060  -3.804  1.00  0.00     0.010 A 
BRANCH  23  27
HETATM   27  O   UNL     1       5.478   5.168  -6.013  1.00  0.00    -0.358 OA
HETATM   28  H   UNL     1       6.023   5.725  -5.430  1.00  0.00     0.218 HD
ENDBRANCH  23  27
BRANCH  24  29
HETATM   29  O   UNL     1       3.589   3.566  -7.113  1.00  0.00    -0.358 OA
HETATM   30  H   UNL     1       4.114   4.341  -7.398  1.00  0.00     0.218 HD
ENDBRANCH  24  29
ENDBRANCH  20  21
ENDBRANCH  19  20
ENDBRANCH   2  19
TORSDOF 10
