REMARK  6 active torsions:
REMARK  status: ('A' for Active; 'I' for Inactive)
REMARK    1  A    between atoms: C_9  and  C_10 
REMARK    2  A    between atoms: C_10  and  N_11 
REMARK       I    between atoms: N_11  and  C_12 
REMARK    3  A    between atoms: N_11  and  C_22 
REMARK    4  A    between atoms: C_12  and  C_13 
REMARK    5  A    between atoms: C_15  and  O_16 
REMARK    6  A    between atoms: C_22  and  C_23 
ROOT
HETATM    1  N   UNL     1      11.819  -2.232  -1.975  1.00  0.00    -0.341 N 
HETATM    2  C   UNL     1      11.888  -2.205  -3.374  1.00  0.00     0.254 C 
HETATM    3  O   UNL     1      11.649  -1.195  -4.036  1.00  0.00    -0.267 OA
ENDROOT
BRANCH   1   4
HETATM    4  C   UNL     1      11.243  -1.040  -1.333  1.00  0.00     0.170 C 
BRANCH   4   5
HETATM    5  C   UNL     1      12.227   0.086  -1.149  1.00  0.00     0.029 A 
HETATM    6  C   UNL     1      11.626   1.289  -0.485  1.00  0.00     0.253 A 
HETATM    7  N   UNL     1      12.430   2.380  -0.307  1.00  0.00    -0.322 N 
HETATM    8  O   UNL     1      10.460   1.300  -0.098  1.00  0.00    -0.268 OA
HETATM    9  C   UNL     1      13.770   2.428  -0.697  1.00  0.00     0.045 A 
HETATM   10  H   UNL     1      11.995   3.179   0.132  1.00  0.00     0.169 HD
HETATM   11  C   UNL     1      14.346   1.305  -1.299  1.00  0.00    -0.008 A 
HETATM   12  C   UNL     1      14.515   3.585  -0.481  1.00  0.00     0.031 A 
HETATM   13  C   UNL     1      15.688   1.352  -1.692  1.00  0.00     0.020 A 
HETATM   14  C   UNL     1      13.523   0.113  -1.513  1.00  0.00     0.028 A 
HETATM   15  C   UNL     1      16.446   2.516  -1.494  1.00  0.00    -0.061 A 
HETATM   16  C   UNL     1      17.893   2.563  -1.890  1.00  0.00     0.048 C 
HETATM   17  C   UNL     1      15.853   3.626  -0.876  1.00  0.00     0.009 A 
ENDBRANCH   4   5
ENDBRANCH   1   4
BRANCH   1  18
HETATM   18  C   UNL     1      11.821  -3.462  -1.163  1.00  0.00     0.158 C 
BRANCH  18  19
HETATM   19  C   UNL     1      10.468  -4.206  -1.167  1.00  0.00     0.139 C 
HETATM   20  O   UNL     1       9.491  -3.439  -0.436  1.00  0.00    -0.384 OA
HETATM   21  C   UNL     1       9.221  -4.084   0.816  1.00  0.00     0.168 C 
HETATM   22  C   UNL     1      10.252  -5.179   0.980  1.00  0.00     0.029 C 
HETATM   23  C   UNL     1      10.550  -5.548  -0.452  1.00  0.00     0.035 C 
ENDBRANCH  18  19
ENDBRANCH   1  18
BRANCH   2  24
HETATM   24  C   UNL     1      12.224  -3.425  -4.143  1.00  0.00     0.034 A 
HETATM   25  C   UNL     1      11.367  -3.777  -5.196  1.00  0.00     0.053 A 
HETATM   26  C   UNL     1      11.657  -4.884  -5.991  1.00  0.00     0.069 A 
HETATM   27  C   UNL     1      12.786  -5.656  -5.707  1.00  0.00     0.037 A 
HETATM   28  C   UNL     1      13.660  -5.287  -4.681  1.00  0.00     0.004 A 
HETATM   29  C   UNL     1      13.394  -4.154  -3.913  1.00  0.00     0.017 A 
BRANCH  26  30
HETATM   30  O   UNL     1      10.907  -5.311  -7.052  1.00  0.00    -0.356 OA
HETATM   31  C   UNL     1      10.105  -4.314  -7.680  1.00  0.00     0.210 C 
ENDBRANCH  26  30
ENDBRANCH   2  24
TORSDOF 6
