REMARK  4 active torsions:
REMARK  status: ('A' for Active; 'I' for Inactive)
REMARK    1  A    between atoms: C_7  and  C_8 
REMARK    2  A    between atoms: C_8  and  N_9 
REMARK    3  A    between atoms: N_15  and  C_17 
REMARK    4  A    between atoms: C_21  and  C_22 
ROOT
HETATM    1  N   UNL     1       4.031  -3.275  -0.071  1.00  0.00    -0.067 N 
HETATM    2  H   UNL     1       4.724  -2.599   0.282  1.00  0.00     0.280 HD
HETATM    3  C   UNL     1       4.145  -4.476   0.825  1.00  0.00     0.236 C 
HETATM    4  C   UNL     1       3.346  -5.658   0.270  1.00  0.00     0.039 C 
HETATM    5  C   UNL     1       3.701  -6.032  -1.196  1.00  0.00    -0.013 C 
HETATM    6  C   UNL     1       5.111  -6.672  -1.324  1.00  0.00     0.245 C 
HETATM    7  N   UNL     1       5.166  -8.032  -0.670  1.00  0.00    -0.065 N 
HETATM    8  H   UNL     1       4.923  -7.971   0.328  1.00  0.00     0.280 HD
HETATM    9  C   UNL     1       4.181  -9.012  -1.295  1.00  0.00     0.244 C 
HETATM   10  C   UNL     1       2.758  -8.452  -1.165  1.00  0.00     0.045 C 
HETATM   11  C   UNL     1       2.658  -7.037  -1.767  1.00  0.00     0.022 C 
HETATM   12  C   UNL     1       3.620  -4.732  -2.050  1.00  0.00     0.039 C 
HETATM   13  C   UNL     1       4.411  -3.550  -1.494  1.00  0.00     0.236 C 
ENDROOT
BRANCH   7  14
HETATM   14  C   UNL     1       6.556  -8.604  -0.721  1.00  0.00     0.188 A 
HETATM   15  C   UNL     1       7.525  -8.119   0.321  1.00  0.00     0.035 A 
HETATM   16  C   UNL     1       6.958  -9.507   0.410  1.00  0.00     0.035 A 
ENDBRANCH   7  14
BRANCH  10  17
HETATM   17  C   UNL     1       1.752  -9.402  -1.783  1.00  0.00    -0.052 A 
HETATM   18  C   UNL     1       0.776 -10.003  -0.972  1.00  0.00     0.007 A 
HETATM   19  C   UNL     1      -0.146 -10.901  -1.514  1.00  0.00     0.001 A 
HETATM   20  C   UNL     1      -0.106 -11.211  -2.870  1.00  0.00     0.000 A 
HETATM   21  C   UNL     1       0.852 -10.620  -3.688  1.00  0.00     0.001 A 
HETATM   22  C   UNL     1       1.775  -9.721  -3.151  1.00  0.00     0.007 A 
ENDBRANCH  10  17
BRANCH   1  23
HETATM   23  C   UNL     1       2.729  -2.486   0.077  1.00  0.00     0.277 C 
BRANCH  23  24
HETATM   24  C   UNL     1       2.564  -1.953   1.452  1.00  0.00     0.011 A 
HETATM   25  C   UNL     1       1.506  -2.222   2.365  1.00  0.00     0.060 A 
HETATM   26  C   UNL     1       0.281  -3.040   2.163  1.00  0.00     0.073 C 
HETATM   27  N   UNL     1       1.730  -1.654   3.550  1.00  0.00    -0.178 NA
HETATM   28  N   UNL     1       2.842  -0.928   3.382  1.00  0.00    -0.284 N 
HETATM   29  C   UNL     1       3.353  -0.121   4.466  1.00  0.00     0.179 C 
HETATM   30  C   UNL     1       3.402  -1.096   2.145  1.00  0.00     0.122 A 
ENDBRANCH  23  24
ENDBRANCH   1  23
TORSDOF 4
