REMARK  10 active torsions:
REMARK  status: ('A' for Active; 'I' for Inactive)
REMARK    1  A    between atoms: C_6  and  C_7 
REMARK    2  A    between atoms: C_9  and  C_10 
REMARK    3  A    between atoms: C_10  and  C_11 
REMARK       I    between atoms: C_11  and  N_12 
REMARK    4  A    between atoms: N_12  and  C_13 
REMARK    5  A    between atoms: C_13  and  C_14 
REMARK    6  A    between atoms: C_14  and  N_15 
REMARK    7  A    between atoms: C_26  and  C_27 
REMARK    8  A    between atoms: C_27  and  O_28 
REMARK    9  A    between atoms: O_28  and  C_29 
REMARK   10  A    between atoms: C_29  and  C_30 
ROOT
HETATM    1  C   UNL     1       6.967  -4.295  -0.109  1.00  0.00     0.166 C 
HETATM    2  N   UNL     1       7.848  -3.383  -0.872  1.00  0.00    -0.318 N 
HETATM    3  C   UNL     1       9.086  -3.208  -1.195  1.00  0.00     0.011 C 
HETATM    4  C   UNL     1       6.954  -2.300  -1.551  1.00  0.00     0.170 C 
HETATM    5  S   UNL     1       7.861  -0.879  -1.909  1.00  0.00    -0.086 SA
HETATM    6  C   UNL     1       9.398  -1.859  -1.833  1.00  0.00     0.135 C 
HETATM    7  N   UNL     1       5.731  -2.514  -1.906  1.00  0.00    -0.229 NA
HETATM    8  C   UNL     1       5.293  -3.834  -1.845  1.00  0.00     0.048 C 
HETATM    9  C   UNL     1       4.175  -4.168  -2.805  1.00  0.00     0.071 C 
HETATM   10  C   UNL     1       5.912  -4.758  -1.068  1.00  0.00     0.069 C 
ENDROOT
BRANCH   3  11
HETATM   11  C   UNL     1      10.138  -4.273  -1.051  1.00  0.00     0.156 C 
BRANCH  11  12
HETATM   12  C   UNL     1      10.668  -4.678  -2.417  1.00  0.00     0.223 C 
HETATM   13  N   UNL     1      11.924  -5.234  -2.454  1.00  0.00    -0.359 N 
HETATM   14  H   UNL     1      12.489  -5.194  -1.608  1.00  0.00     0.162 HD
HETATM   15  O   UNL     1       9.992  -4.519  -3.430  1.00  0.00    -0.273 OA
BRANCH  13  16
HETATM   16  C   UNL     1      12.643  -5.382  -3.721  1.00  0.00     0.150 C 
BRANCH  16  17
HETATM   17  C   UNL     1      11.923  -6.219  -4.810  1.00  0.00     0.253 C 
BRANCH  17  18
HETATM   18  N   UNL     1      12.820  -7.304  -5.392  1.00  0.00    -0.077 N 
HETATM   19  H   UNL     1      13.743  -6.896  -5.593  1.00  0.00     0.279 HD
HETATM   20  C   UNL     1      13.031  -8.465  -4.454  1.00  0.00     0.269 C 
HETATM   21  C   UNL     1      12.295  -7.796  -6.722  1.00  0.00     0.269 C 
ENDBRANCH  17  18
ENDBRANCH  16  17
ENDBRANCH  13  16
ENDBRANCH  11  12
ENDBRANCH   3  11
BRANCH   1  22
HETATM   22  C   UNL     1       7.613  -5.097   1.024  1.00  0.00    -0.024 A 
HETATM   23  C   UNL     1       8.300  -4.440   2.092  1.00  0.00    -0.053 A 
HETATM   24  C   UNL     1       8.794  -5.186   3.187  1.00  0.00     0.014 A 
HETATM   25  C   UNL     1       8.528  -2.948   2.170  1.00  0.00     0.049 C 
HETATM   26  C   UNL     1       8.597  -6.561   3.285  1.00  0.00    -0.061 A 
HETATM   27  C   UNL     1       9.002  -7.319   4.516  1.00  0.00     0.048 C 
HETATM   28  C   UNL     1       7.911  -7.202   2.263  1.00  0.00     0.007 A 
HETATM   29  C   UNL     1       7.435  -6.485   1.159  1.00  0.00     0.011 A 
ENDBRANCH   1  22
BRANCH  10  30
HETATM   30  C   UNL     1       5.685  -6.170  -1.378  1.00  0.00     0.294 C 
HETATM   31  O   UNL     1       4.725  -6.817  -1.014  1.00  0.00    -0.259 OA
BRANCH  30  32
HETATM   32  O   UNL     1       6.754  -6.584  -2.099  1.00  0.00    -0.313 OA
BRANCH  32  33
HETATM   33  C   UNL     1       6.804  -7.986  -2.429  1.00  0.00     0.217 C 
BRANCH  33  34
HETATM   34  C   UNL     1       8.047  -8.556  -1.788  1.00  0.00    -0.034 A 
HETATM   35  C   UNL     1       7.958  -9.593  -0.851  1.00  0.00     0.009 A 
HETATM   36  C   UNL     1       9.105 -10.074  -0.217  1.00  0.00     0.001 A 
HETATM   37  C   UNL     1      10.352  -9.525  -0.511  1.00  0.00     0.000 A 
HETATM   38  C   UNL     1      10.456  -8.502  -1.451  1.00  0.00     0.001 A 
HETATM   39  C   UNL     1       9.310  -8.028  -2.093  1.00  0.00     0.009 A 
ENDBRANCH  33  34
ENDBRANCH  32  33
ENDBRANCH  30  32
ENDBRANCH  10  30
TORSDOF 10
