REMARK  7 active torsions:
REMARK  status: ('A' for Active; 'I' for Inactive)
REMARK    1  A    between atoms: C_7  and  C_8 
REMARK    2  A    between atoms: C_11  and  N_12 
REMARK       I    between atoms: N_12  and  C_13 
REMARK    3  A    between atoms: C_13  and  C_14 
REMARK    4  A    between atoms: C_14  and  N_15 
REMARK    5  A    between atoms: N_15  and  C_16 
REMARK    6  A    between atoms: C_17  and  O_18 
REMARK    7  A    between atoms: C_22  and  N_23 
REMARK       I    between atoms: N_23  and  C_24 
ROOT
HETATM    1  N   UNL     1      12.146  -4.377  -0.308  1.00  0.00    -0.326 N 
HETATM    2  C   UNL     1      11.551  -5.360  -1.074  1.00  0.00     0.239 C 
HETATM    3  O   UNL     1      11.541  -5.391  -2.304  1.00  0.00    -0.271 OA
HETATM    4  H   UNL     1      12.226  -4.585   0.673  1.00  0.00     0.169 HD
ENDROOT
BRANCH   2   5
HETATM    5  C   UNL     1      10.808  -6.443  -0.244  1.00  0.00     0.148 C 
HETATM    6  C   UNL     1       9.703  -5.863   0.631  1.00  0.00     0.036 C 
BRANCH   5   7
HETATM    7  N   UNL     1      11.676  -7.400   0.489  1.00  0.00    -0.278 NA
HETATM    8  H   UNL     1      12.065  -8.070  -0.187  1.00  0.00     0.128 HD
BRANCH   7   9
HETATM    9  C   UNL     1      12.741  -7.023   1.321  1.00  0.00     0.044 C 
HETATM   10  C   UNL     1      14.005  -7.621   1.120  1.00  0.00     0.089 C 
HETATM   11  C   UNL     1      15.106  -7.216   1.873  1.00  0.00     0.041 C 
HETATM   12  C   UNL     1      14.962  -6.226   2.849  1.00  0.00     0.032 C 
HETATM   13  C   UNL     1      13.713  -5.668   3.111  1.00  0.00     0.036 C 
HETATM   14  C   UNL     1      12.602  -6.118   2.381  1.00  0.00     0.055 C 
BRANCH  10  15
HETATM   15  O   UNL     1      14.060  -8.561   0.115  1.00  0.00    -0.354 OA
HETATM   16  C   UNL     1      15.079  -9.546   0.255  1.00  0.00     0.210 C 
ENDBRANCH  10  15
BRANCH  13  17
HETATM   17  N   UNL     1      13.495  -4.628   4.041  1.00  0.00    -0.327 N 
HETATM   18  C   UNL     1      14.456  -3.924   4.748  1.00  0.00     0.218 C 
HETATM   19  C   UNL     1      13.866  -2.785   5.541  1.00  0.00     0.117 C 
HETATM   20  O   UNL     1      15.667  -4.110   4.729  1.00  0.00    -0.274 OA
HETATM   21  H   UNL     1      12.537  -4.325   4.157  1.00  0.00     0.169 HD
ENDBRANCH  13  17
ENDBRANCH   7   9
ENDBRANCH   5   7
ENDBRANCH   2   5
BRANCH   1  22
HETATM   22  C   UNL     1      12.731  -3.166  -0.706  1.00  0.00     0.034 A 
HETATM   23  C   UNL     1      12.686  -2.652  -2.000  1.00  0.00     0.030 A 
HETATM   24  C   UNL     1      13.247  -1.395  -2.284  1.00  0.00     0.016 A 
HETATM   25  C   UNL     1      13.865  -0.630  -1.282  1.00  0.00    -0.000 A 
HETATM   26  C   UNL     1      13.912  -1.170   0.012  1.00  0.00     0.016 A 
HETATM   27  C   UNL     1      13.356  -2.418   0.296  1.00  0.00     0.030 A 
BRANCH  25  28
HETATM   28  C   UNL     1      14.449   0.710  -1.498  1.00  0.00     0.109 A 
HETATM   29  N   UNL     1      14.780   1.517  -0.508  1.00  0.00    -0.240 NA
HETATM   30  C   UNL     1      15.328   2.689  -0.993  1.00  0.00     0.075 A 
HETATM   31  C   UNL     1      15.416   2.775  -2.380  1.00  0.00     0.036 A 
HETATM   32  C   UNL     1      15.793   3.765  -0.213  1.00  0.00     0.033 A 
HETATM   33  C   UNL     1      15.958   3.903  -3.021  1.00  0.00     0.028 A 
HETATM   34  S   UNL     1      14.780   1.331  -3.068  1.00  0.00    -0.067 SA
HETATM   35  C   UNL     1      16.423   4.967  -2.231  1.00  0.00    -0.061 A 
HETATM   36  C   UNL     1      17.015   6.191  -2.871  1.00  0.00     0.048 C 
HETATM   37  C   UNL     1      16.336   4.893  -0.839  1.00  0.00     0.009 A 
ENDBRANCH  25  28
ENDBRANCH   1  22
TORSDOF 7
