REMARK  2 active torsions:
REMARK  status: ('A' for Active; 'I' for Inactive)
REMARK    1  A    between atoms: C_5  and  C_6 
REMARK       I    between atoms: C_6  and  N_7 
REMARK    2  A    between atoms: N_7  and  C_8 
ROOT
HETATM    1  C   UNL     1       6.414  -0.029  -0.574  1.00  0.00     0.262 C 
HETATM    2  N   UNL     1       7.043  -1.201  -0.927  1.00  0.00    -0.306 N 
HETATM    3  O   UNL     1       5.206   0.192  -0.577  1.00  0.00    -0.267 OA
HETATM    4  H   UNL     1       8.058  -1.241  -0.869  1.00  0.00     0.170 HD
ENDROOT
BRANCH   2   5
HETATM    5  C   UNL     1       6.423  -2.341  -1.389  1.00  0.00     0.152 A 
HETATM    6  N   UNL     1       5.111  -2.505  -1.545  1.00  0.00    -0.156 NA
HETATM    7  N   UNL     1       4.981  -3.746  -2.032  1.00  0.00    -0.275 N 
HETATM    8  H   UNL     1       4.048  -4.088  -2.234  1.00  0.00     0.189 HD
HETATM    9  C   UNL     1       6.169  -4.403  -2.207  1.00  0.00     0.071 A 
HETATM   10  C   UNL     1       6.289  -5.730  -2.739  1.00  0.00     0.034 A 
HETATM   11  C   UNL     1       7.127  -3.508  -1.779  1.00  0.00     0.084 A 
HETATM   12  S   UNL     1       4.917  -6.646  -3.227  1.00  0.00    -0.076 SA
HETATM   13  C   UNL     1       7.457  -6.445  -2.943  1.00  0.00     0.023 A 
HETATM   14  C   UNL     1       5.882  -7.949  -3.700  1.00  0.00     0.075 A 
HETATM   15 CL   UNL     1       5.152  -9.359  -4.354  1.00  0.00    -0.076 Cl
HETATM   16  C   UNL     1       7.220  -7.737  -3.504  1.00  0.00     0.033 A 
ENDBRANCH   2   5
BRANCH   1  17
HETATM   17  C   UNL     1       7.358   1.056  -0.166  1.00  0.00     0.097 A 
HETATM   18  C   UNL     1       6.871   2.268   0.152  1.00  0.00     0.109 A 
HETATM   19  N   UNL     1       7.654   3.331   0.526  1.00  0.00    -0.368 N 
HETATM   20  C   UNL     1       9.026   3.242   0.607  1.00  0.00     0.008 A 
HETATM   21  H   UNL     1       7.202   4.217   0.741  1.00  0.00     0.165 HD
HETATM   22  C   UNL     1       9.782   4.471   1.021  1.00  0.00     0.068 C 
HETATM   23  C   UNL     1       9.653   2.087   0.321  1.00  0.00     0.080 A 
HETATM   24  C   UNL     1       8.841   0.909  -0.092  1.00  0.00     0.190 A 
HETATM   25  O   UNL     1       9.399  -0.152  -0.369  1.00  0.00    -0.287 OA
ENDBRANCH   1  17
TORSDOF 2
