REMARK  10 active torsions:
REMARK  status: ('A' for Active; 'I' for Inactive)
REMARK    1  A    between atoms: C_2  and  C_3 
REMARK    2  A    between atoms: C_3  and  C_4 
REMARK    3  A    between atoms: N_7  and  C_9 
REMARK    4  A    between atoms: C_9  and  C_10 
REMARK    5  A    between atoms: C_12  and  O_13 
REMARK    6  A    between atoms: O_13  and  C_14 
REMARK    7  A    between atoms: C_16  and  O_17 
REMARK    8  A    between atoms: N_25  and  C_26 
REMARK    9  A    between atoms: C_26  and  C_27 
REMARK   10  A    between atoms: C_27  and  C_28 
ROOT
HETATM    1  C   UNL     1       2.725   0.246   0.292  1.00  0.00     0.026 C 
HETATM    2  C   UNL     1       2.787  -0.817   1.403  1.00  0.00     0.035 C 
HETATM    3  C   UNL     1       4.171  -1.015   2.020  1.00  0.00     0.235 C 
HETATM    4  N   UNL     1       5.210  -1.270   0.956  1.00  0.00    -0.067 N 
HETATM    5  H   UNL     1       4.987  -2.184   0.543  1.00  0.00     0.280 HD
HETATM    6  C   UNL     1       5.210  -0.246  -0.153  1.00  0.00     0.235 C 
HETATM    7  C   UNL     1       3.821  -0.084  -0.741  1.00  0.00     0.035 C 
ENDROOT
BRANCH   1   8
HETATM    8  C   UNL     1       2.698   1.716   0.818  1.00  0.00     0.119 C 
HETATM    9  N   UNL     1       3.871   2.059   1.605  1.00  0.00    -0.324 N 
HETATM   10  C   UNL     1       4.405   3.268   1.206  1.00  0.00     0.326 C 
HETATM   11  H   UNL     1       3.918   1.924   2.610  1.00  0.00     0.165 HD
HETATM   12  O   UNL     1       5.217   3.873   1.881  1.00  0.00    -0.247 OA
HETATM   13  N   UNL     1       3.869   3.617   0.011  1.00  0.00    -0.268 N 
HETATM   14  C   UNL     1       2.858   2.756  -0.319  1.00  0.00     0.256 C 
HETATM   15  O   UNL     1       2.165   2.799  -1.325  1.00  0.00    -0.270 OA
BRANCH   8  16
HETATM   16  C   UNL     1       1.445   2.089   1.653  1.00  0.00     0.037 C 
HETATM   17  C   UNL     1       0.101   1.755   1.020  1.00  0.00     0.008 C 
ENDBRANCH   8  16
BRANCH  13  18
HETATM   18  C   UNL     1       4.141   4.874  -0.669  1.00  0.00     0.142 C 
BRANCH  18  19
HETATM   19  C   UNL     1       5.612   5.037  -1.069  1.00  0.00     0.068 C 
BRANCH  19  20
HETATM   20  C   UNL     1       5.884   6.413  -1.587  1.00  0.00     0.010 A 
HETATM   21  S   UNL     1       5.875   6.739  -3.272  1.00  0.00    -0.085 SA
HETATM   22  C   UNL     1       6.235   8.379  -2.942  1.00  0.00     0.166 A 
HETATM   23  N   UNL     1       6.359   8.697  -1.673  1.00  0.00    -0.258 NA
HETATM   24  C   UNL     1       6.165   7.576  -0.884  1.00  0.00     0.044 A 
HETATM   25  C   UNL     1       6.268   7.730   0.593  1.00  0.00     0.071 C 
ENDBRANCH  19  20
ENDBRANCH  18  19
ENDBRANCH  13  18
ENDBRANCH   1   8
BRANCH   4  26
HETATM   26  C   UNL     1       6.624  -1.394   1.511  1.00  0.00     0.273 C 
BRANCH  26  27
HETATM   27  C   UNL     1       6.760  -2.260   2.733  1.00  0.00    -0.030 A 
HETATM   28  C   UNL     1       6.945  -1.661   3.997  1.00  0.00     0.048 A 
HETATM   29  C   UNL     1       7.051  -2.443   5.146  1.00  0.00     0.102 A 
HETATM   30  C   UNL     1       6.969  -3.832   5.019  1.00  0.00     0.099 A 
HETATM   31  C   UNL     1       6.791  -4.442   3.783  1.00  0.00     0.040 A 
HETATM   32  C   UNL     1       6.686  -3.658   2.636  1.00  0.00     0.012 A 
BRANCH  29  33
HETATM   33  O   UNL     1       7.225  -1.984   6.424  1.00  0.00    -0.349 OA
BRANCH  33  34
HETATM   34  C   UNL     1       7.365  -0.574   6.603  1.00  0.00     0.171 C 
HETATM   35  C   UNL     1       7.586  -0.302   8.079  1.00  0.00     0.034 C 
ENDBRANCH  33  34
ENDBRANCH  29  33
BRANCH  30  36
HETATM   36  O   UNL     1       7.067  -4.635   6.120  1.00  0.00    -0.358 OA
HETATM   37  H   UNL     1       7.227  -4.037   6.876  1.00  0.00     0.218 HD
ENDBRANCH  30  36
ENDBRANCH  26  27
ENDBRANCH   4  26
TORSDOF 10
