REMARK  3 active torsions:
REMARK  status: ('A' for Active; 'I' for Inactive)
REMARK    1  A    between atoms: C_2  and  N_3 
REMARK    2  A    between atoms: N_10  and  C_11 
REMARK    3  A    between atoms: C_11  and  C_12 
ROOT
HETATM    1  N   UNL     1       2.689   1.171  -1.292  1.00  0.00    -0.063 N 
HETATM    2  H   UNL     1       3.622   1.411  -0.905  1.00  0.00     0.280 HD
HETATM    3  C   UNL     1       2.943   1.154  -2.795  1.00  0.00     0.277 C 
HETATM    4  C   UNL     1       3.912   2.288  -3.192  1.00  0.00     0.132 C 
HETATM    5  O   UNL     1       5.057   2.137  -2.309  1.00  0.00    -0.373 OA
HETATM    6  C   UNL     1       6.160   2.971  -2.710  1.00  0.00     0.199 C 
HETATM    7  C   UNL     1       6.620   2.628  -4.135  1.00  0.00     0.299 C 
HETATM    8  N   UNL     1       5.540   2.725  -5.129  1.00  0.00     0.097 N 
HETATM    9  C   UNL     1       4.329   2.042  -4.673  1.00  0.00     0.314 C 
HETATM   10  C   UNL     1       3.223   3.658  -2.983  1.00  0.00     0.209 C 
HETATM   11  O   UNL     1       3.340   4.122  -1.644  1.00  0.00    -0.386 OA
HETATM   12  C   UNL     1       2.504   3.597  -0.627  1.00  0.00     0.195 C 
HETATM   13  C   UNL     1       1.748   2.294  -0.889  1.00  0.00     0.261 C 
ENDROOT
BRANCH   1  14
HETATM   14  C   UNL     1       2.303  -0.170  -0.677  1.00  0.00     0.180 C 
HETATM   15  C   UNL     1       3.485  -1.136  -0.711  1.00  0.00     0.039 C 
HETATM   16  C   UNL     1       1.064  -0.748  -1.352  1.00  0.00     0.039 C 
ENDBRANCH   1  14
BRANCH   8  17
HETATM   17  C   UNL     1       5.350   4.068  -5.674  1.00  0.00     0.311 C 
BRANCH  17  18
HETATM   18  C   UNL     1       5.905   4.154  -7.079  1.00  0.00    -0.030 A 
HETATM   19  C   UNL     1       5.173   3.621  -8.155  1.00  0.00     0.012 A 
HETATM   20  C   UNL     1       5.672   3.691  -9.456  1.00  0.00     0.043 A 
HETATM   21  C   UNL     1       6.907   4.289  -9.684  1.00  0.00     0.116 A 
HETATM   22  F   UNL     1       7.385   4.358 -10.931  1.00  0.00    -0.206 F 
HETATM   23  C   UNL     1       7.651   4.811  -8.632  1.00  0.00     0.043 A 
HETATM   24  C   UNL     1       7.153   4.742  -7.329  1.00  0.00     0.012 A 
ENDBRANCH  17  18
ENDBRANCH   8  17
TORSDOF 3
