REMARK  4 active torsions:
REMARK  status: ('A' for Active; 'I' for Inactive)
REMARK    1  A    between atoms: C_9  and  C_10 
REMARK    2  A    between atoms: C_22  and  C_23 
REMARK    3  A    between atoms: C_23  and  C_24 
REMARK    4  A    between atoms: C_24  and  O_25 
ROOT
HETATM    1  C   UNL     1       1.031  -0.068  -0.633  1.00  0.00     0.069 C 
HETATM    2  C   UNL     1       2.520  -0.096  -0.384  1.00  0.00     0.018 A 
HETATM    3  N   UNL     1       3.147   1.142  -0.393  1.00  0.00    -0.343 N 
HETATM    4  C   UNL     1       4.455   1.288  -0.082  1.00  0.00     0.146 A 
HETATM    5  N   UNL     1       5.200   0.156   0.157  1.00  0.00    -0.179 N 
HETATM    6  N   UNL     1       6.496   0.444   0.448  1.00  0.00    -0.167 NA
HETATM    7  C   UNL     1       6.553   1.783   0.407  1.00  0.00     0.066 A 
HETATM    8  C   UNL     1       7.839   2.472   0.683  1.00  0.00     0.073 C 
HETATM    9  C   UNL     1       5.293   2.367   0.086  1.00  0.00     0.047 A 
HETATM   10  C   UNL     1       4.688  -1.150   0.132  1.00  0.00     0.278 A 
HETATM   11  O   UNL     1       5.399  -2.126   0.343  1.00  0.00    -0.265 OA
HETATM   12  C   UNL     1       3.207  -1.238  -0.135  1.00  0.00     0.036 A 
HETATM   13  H   UNL     1       2.559   1.958  -0.570  1.00  0.00     0.167 HD
ENDROOT
BRANCH   9  14
HETATM   14  C   UNL     1       4.908   3.759  -0.106  1.00  0.00    -0.009 A 
HETATM   15  C   UNL     1       3.865   4.381   0.643  1.00  0.00    -0.015 A 
HETATM   16  C   UNL     1       3.518   5.720   0.328  1.00  0.00    -0.025 A 
HETATM   17  C   UNL     1       3.144   3.757   1.693  1.00  0.00     0.013 A 
HETATM   18  C   UNL     1       2.471   6.359   1.013  1.00  0.00     0.012 A 
HETATM   19  C   UNL     1       4.222   6.412  -0.669  1.00  0.00     0.012 A 
HETATM   20  C   UNL     1       1.761   5.703   2.017  1.00  0.00     0.001 A 
HETATM   21  C   UNL     1       2.103   4.403   2.363  1.00  0.00     0.001 A 
HETATM   22  C   UNL     1       5.258   5.802  -1.371  1.00  0.00     0.002 A 
HETATM   23  C   UNL     1       5.594   4.481  -1.096  1.00  0.00     0.013 A 
ENDBRANCH   9  14
BRANCH  12  24
HETATM   24  C   UNL     1       2.646  -2.640  -0.124  1.00  0.00     0.072 C 
BRANCH  24  25
HETATM   25  C   UNL     1       2.547  -3.234   1.282  1.00  0.00     0.169 C 
BRANCH  25  26
HETATM   26  O   UNL     1       1.612  -2.506   2.072  1.00  0.00    -0.401 OA
HETATM   27  H   UNL     1       2.076  -1.723   2.416  1.00  0.00     0.209 HD
ENDBRANCH  25  26
ENDBRANCH  24  25
ENDBRANCH  12  24
TORSDOF 4
