REMARK  3 active torsions:
REMARK  status: ('A' for Active; 'I' for Inactive)
REMARK    1  A    between atoms: C_8  and  C_9 
REMARK       I    between atoms: C_9  and  N_10 
REMARK    2  A    between atoms: C_13  and  O_14 
REMARK    3  A    between atoms: C_13  and  C_15 
ROOT
HETATM    1  C   UNL     1       5.053  -3.351   0.317  1.00  0.00     0.259 C 
HETATM    2  N   UNL     1       3.912  -3.978  -0.216  1.00  0.00    -0.348 N 
HETATM    3  C   UNL     1       2.837  -3.272  -0.910  1.00  0.00     0.129 C 
HETATM    4  C   UNL     1       2.011  -4.166  -1.833  1.00  0.00     0.063 C 
HETATM    5  C   UNL     1       1.526  -5.450  -1.134  1.00  0.00     0.088 C 
HETATM    6  C   UNL     1       2.801  -6.163  -0.647  1.00  0.00     0.063 C 
HETATM    7  C   UNL     1       3.587  -5.296   0.327  1.00  0.00     0.129 C 
HETATM    8  O   UNL     1       5.882  -3.999   0.959  1.00  0.00    -0.267 OA
ENDROOT
BRANCH   1   9
HETATM    9  C   UNL     1       5.331  -1.946   0.061  1.00  0.00     0.099 A 
HETATM   10  C   UNL     1       4.530  -0.818   0.152  1.00  0.00     0.168 A 
HETATM   11  N   UNL     1       3.206  -0.645   0.460  1.00  0.00    -0.233 NA
HETATM   12  N   UNL     1       5.362   0.280  -0.129  1.00  0.00    -0.219 N 
HETATM   13  C   UNL     1       2.745   0.571   0.438  1.00  0.00     0.035 A 
HETATM   14  C   UNL     1       1.286   0.790   0.749  1.00  0.00     0.070 C 
HETATM   15  C   UNL     1       3.555   1.790   0.139  1.00  0.00     0.053 A 
HETATM   16  C   UNL     1       4.856   1.588  -0.131  1.00  0.00     0.036 A 
HETATM   17  C   UNL     1       5.804   2.709  -0.430  1.00  0.00     0.070 C 
HETATM   18  N   UNL     1       6.638  -0.108  -0.371  1.00  0.00    -0.177 NA
HETATM   19  C   UNL     1       6.615  -1.429  -0.217  1.00  0.00     0.160 A 
ENDBRANCH   1   9
BRANCH   5  20
HETATM   20  O   UNL     1       0.945  -6.276  -2.158  1.00  0.00    -0.385 OA
HETATM   21  H   UNL     1      -0.015  -6.318  -2.005  1.00  0.00     0.211 HD
ENDBRANCH   5  20
BRANCH   5  22
HETATM   22  C   UNL     1       0.457  -5.271  -0.047  1.00  0.00    -0.024 A 
HETATM   23  C   UNL     1      -0.308  -4.098   0.078  1.00  0.00     0.010 A 
HETATM   24  C   UNL     1      -1.280  -3.966   1.076  1.00  0.00     0.001 A 
HETATM   25  C   UNL     1      -1.524  -5.012   1.959  1.00  0.00     0.000 A 
HETATM   26  C   UNL     1      -0.809  -6.197   1.834  1.00  0.00     0.001 A 
HETATM   27  C   UNL     1       0.160  -6.328   0.836  1.00  0.00     0.010 A 
ENDBRANCH   5  22
TORSDOF 3
