REMARK  9 active torsions:
REMARK  status: ('A' for Active; 'I' for Inactive)
REMARK    1  A    between atoms: C_6  and  C_7 
REMARK    2  A    between atoms: C_7  and  C_8 
REMARK    3  A    between atoms: C_11  and  N_12 
REMARK       I    between atoms: N_12  and  C_13 
REMARK       I    between atoms: C_13  and  N_14 
REMARK    4  A    between atoms: N_14  and  C_15 
REMARK    5  A    between atoms: C_15  and  C_16 
REMARK    6  A    between atoms: C_16  and  C_17 
REMARK    7  A    between atoms: C_16  and  C_19 
REMARK    8  A    between atoms: C_17  and  O_18 
REMARK    9  A    between atoms: C_19  and  C_20 
ROOT
HETATM    1  N   UNL     1      10.505   1.485  -0.795  1.00  0.00    -0.309 N 
HETATM    2  C   UNL     1      11.760   0.965  -0.853  1.00  0.00     0.320 C 
HETATM    3  N   UNL     1      11.891  -0.385  -0.937  1.00  0.00    -0.342 N 
HETATM    4  O   UNL     1      12.725   1.728  -0.867  1.00  0.00    -0.247 OA
HETATM    5  H   UNL     1      10.535   2.490  -0.923  1.00  0.00     0.170 HD
HETATM    6  H   UNL     1      11.134  -0.875  -1.392  1.00  0.00     0.164 HD
ENDROOT
BRANCH   1   7
HETATM    7  C   UNL     1       9.247   0.936  -0.485  1.00  0.00     0.036 A 
HETATM    8  C   UNL     1       9.039  -0.343   0.032  1.00  0.00     0.030 A 
HETATM    9  C   UNL     1       7.746  -0.789   0.334  1.00  0.00     0.010 A 
HETATM   10  C   UNL     1       6.639   0.049   0.151  1.00  0.00    -0.051 A 
HETATM   11  C   UNL     1       6.848   1.342  -0.339  1.00  0.00     0.010 A 
HETATM   12  C   UNL     1       8.139   1.777  -0.653  1.00  0.00     0.030 A 
BRANCH  10  13
HETATM   13  C   UNL     1       5.253  -0.412   0.544  1.00  0.00     0.118 C 
BRANCH  13  14
HETATM   14  C   UNL     1       4.950  -0.298   2.001  1.00  0.00     0.126 A 
HETATM   15  N   UNL     1       5.818   0.196   2.936  1.00  0.00    -0.263 N 
HETATM   16  N   UNL     1       5.284   0.169   4.167  1.00  0.00    -0.158 NA
HETATM   17  H   UNL     1       6.760   0.550   2.808  1.00  0.00     0.190 HD
HETATM   18  C   UNL     1       4.076  -0.350   3.924  1.00  0.00     0.144 A 
HETATM   19  C   UNL     1       3.079  -0.578   4.987  1.00  0.00     0.095 C 
HETATM   20  N   UNL     1       3.834  -0.648   2.608  1.00  0.00    -0.217 NA
ENDBRANCH  13  14
ENDBRANCH  10  13
ENDBRANCH   1   7
BRANCH   3  21
HETATM   21  C   UNL     1      13.188  -1.035  -0.908  1.00  0.00     0.131 C 
BRANCH  21  22
HETATM   22  C   UNL     1      13.733  -1.425  -2.293  1.00  0.00     0.033 C 
BRANCH  22  23
HETATM   23  C   UNL     1      13.805  -0.219  -3.241  1.00  0.00     0.170 C 
BRANCH  23  24
HETATM   24  O   UNL     1      14.282  -0.631  -4.519  1.00  0.00    -0.400 OA
HETATM   25  H   UNL     1      15.123  -0.170  -4.680  1.00  0.00     0.209 HD
ENDBRANCH  23  24
ENDBRANCH  22  23
BRANCH  22  26
HETATM   26  C   UNL     1      15.133  -2.067  -2.175  1.00  0.00     0.073 C 
BRANCH  26  27
HETATM   27  C   UNL     1      15.178  -3.243  -1.266  1.00  0.00     0.053 A 
HETATM   28  O   UNL     1      14.437  -4.327  -1.631  1.00  0.00    -0.327 OA
HETATM   29  C   UNL     1      14.624  -5.273  -0.676  1.00  0.00     0.142 A 
HETATM   30  C   UNL     1      15.472  -4.809   0.302  1.00  0.00     0.027 A 
HETATM   31  C   UNL     1      15.834  -3.495  -0.080  1.00  0.00     0.034 A 
ENDBRANCH  26  27
ENDBRANCH  22  26
ENDBRANCH  21  22
ENDBRANCH   3  21
TORSDOF 9
