REMARK  5 active torsions:
REMARK  status: ('A' for Active; 'I' for Inactive)
REMARK    1  A    between atoms: C_2  and  C_3 
REMARK    2  A    between atoms: C_3  and  N_4 
REMARK    3  A    between atoms: C_7  and  C_8 
REMARK    4  A    between atoms: C_8  and  O_9 
REMARK    5  A    between atoms: N_13  and  C_15 
ROOT
HETATM    1  N   UNL     1       0.234   3.452  -0.038  1.00  0.00    -0.067 N 
HETATM    2  H   UNL     1      -0.558   3.122   0.532  1.00  0.00     0.280 HD
HETATM    3  C   UNL     1       0.653   4.733   0.636  1.00  0.00     0.242 C 
HETATM    4  C   UNL     1       1.506   5.675  -0.256  1.00  0.00     0.044 C 
HETATM    5  C   UNL     1       0.885   5.895  -1.685  1.00  0.00    -0.029 C 
HETATM    6  C   UNL     1      -0.422   6.750  -1.606  1.00  0.00     0.037 C 
HETATM    7  C   UNL     1      -0.193   8.242  -1.330  1.00  0.00     0.236 C 
HETATM    8  N   UNL     1       0.733   8.853  -2.362  1.00  0.00    -0.067 N 
HETATM    9  H   UNL     1       0.953   9.796  -2.007  1.00  0.00     0.280 HD
HETATM   10  C   UNL     1       2.055   8.110  -2.337  1.00  0.00     0.236 C 
HETATM   11  C   UNL     1       1.841   6.634  -2.672  1.00  0.00     0.037 C 
HETATM   12  C   UNL     1       0.568   4.493  -2.282  1.00  0.00     0.037 C 
HETATM   13  C   UNL     1      -0.339   3.629  -1.411  1.00  0.00     0.236 C 
ENDROOT
BRANCH   4  14
HETATM   14  C   UNL     1       2.994   5.266  -0.271  1.00  0.00     0.171 C 
BRANCH  14  15
HETATM   15  O   UNL     1       3.412   4.992   1.051  1.00  0.00    -0.400 OA
HETATM   16  H   UNL     1       4.390   4.961   1.070  1.00  0.00     0.209 HD
ENDBRANCH  14  15
ENDBRANCH   4  14
BRANCH   1  17
HETATM   17  C   UNL     1       1.203   2.284   0.094  1.00  0.00     0.273 C 
BRANCH  17  18
HETATM   18  C   UNL     1       1.340   1.785   1.510  1.00  0.00    -0.033 A 
HETATM   19  C   UNL     1       0.267   1.144   2.153  1.00  0.00     0.010 A 
HETATM   20  C   UNL     1       0.387   0.715   3.479  1.00  0.00     0.024 A 
HETATM   21  C   UNL     1       1.581   0.914   4.168  1.00  0.00     0.034 A 
HETATM   22  C   UNL     1       2.659   1.530   3.540  1.00  0.00     0.024 A 
HETATM   23 CL   UNL     1       1.722   0.398   5.800  1.00  0.00    -0.084 Cl
HETATM   24  C   UNL     1       2.540   1.961   2.216  1.00  0.00     0.010 A 
ENDBRANCH  17  18
ENDBRANCH   1  17
BRANCH   8  25
HETATM   25  C   UNL     1       0.106   9.087  -3.769  1.00  0.00     0.192 C 
HETATM   26  C   UNL     1      -1.125  10.004  -3.693  1.00  0.00     0.059 C 
HETATM   27  C   UNL     1      -0.740  11.446  -3.394  1.00  0.00     0.169 C 
HETATM   28  O   UNL     1       0.206  11.910  -4.346  1.00  0.00    -0.391 OA
HETATM   29  C   UNL     1       1.411  11.160  -4.400  1.00  0.00     0.169 C 
HETATM   30  C   UNL     1       1.109   9.711  -4.751  1.00  0.00     0.059 C 
ENDBRANCH   8  25
TORSDOF 5
