REMARK  8 active torsions:
REMARK  status: ('A' for Active; 'I' for Inactive)
REMARK    1  A    between atoms: C_2  and  N_3 
REMARK    2  A    between atoms: C_2  and  C_23 
REMARK       I    between atoms: N_3  and  C_4 
REMARK    3  A    between atoms: N_3  and  C_16 
REMARK    4  A    between atoms: C_4  and  C_5 
REMARK    5  A    between atoms: C_5  and  N_6 
REMARK    6  A    between atoms: C_16  and  C_17 
REMARK       I    between atoms: C_23  and  N_24 
REMARK    7  A    between atoms: N_24  and  C_25 
REMARK    8  A    between atoms: C_28  and  O_29 
ROOT
HETATM    1  N   UNL     1       3.224  -1.012  -0.990  1.00  0.00    -0.333 N 
HETATM    2  C   UNL     1       4.592  -1.072  -1.259  1.00  0.00     0.240 C 
HETATM    3  O   UNL     1       5.369  -0.264  -0.740  1.00  0.00    -0.271 OA
ENDROOT
BRANCH   1   4
HETATM    4  C   UNL     1       2.730   0.097  -0.132  1.00  0.00     0.176 C 
HETATM    5  C   UNL     1       3.144  -0.053   1.334  1.00  0.00     0.042 C 
BRANCH   4   6
HETATM    6  C   UNL     1       2.988   1.546  -0.642  1.00  0.00     0.244 C 
HETATM    7  N   UNL     1       3.126   1.657  -2.017  1.00  0.00    -0.325 N 
HETATM    8  H   UNL     1       3.217   0.791  -2.538  1.00  0.00     0.169 HD
HETATM    9  O   UNL     1       2.904   2.493   0.141  1.00  0.00    -0.271 OA
BRANCH   7  10
HETATM   10  C   UNL     1       3.304   2.847  -2.760  1.00  0.00     0.035 A 
HETATM   11  C   UNL     1       3.261   4.128  -2.206  1.00  0.00     0.032 A 
HETATM   12  C   UNL     1       3.458   5.259  -3.006  1.00  0.00     0.039 A 
HETATM   13  C   UNL     1       3.715   5.132  -4.369  1.00  0.00     0.068 A 
HETATM   14  C   UNL     1       3.742   3.860  -4.937  1.00  0.00     0.039 A 
HETATM   15  C   UNL     1       3.536   2.726  -4.136  1.00  0.00     0.032 A 
BRANCH  13  16
HETATM   16  O   UNL     1       3.897   6.312  -5.035  1.00  0.00    -0.356 OA
HETATM   17  C   UNL     1       4.592   6.232  -6.273  1.00  0.00     0.210 C 
ENDBRANCH  13  16
ENDBRANCH   7  10
ENDBRANCH   4   6
ENDBRANCH   1   4
BRANCH   1  18
HETATM   18  C   UNL     1       2.222  -1.978  -1.471  1.00  0.00     0.165 C 
BRANCH  18  19
HETATM   19  C   UNL     1       2.451  -3.416  -1.066  1.00  0.00    -0.040 A 
HETATM   20  C   UNL     1       2.926  -3.773   0.204  1.00  0.00     0.009 A 
HETATM   21  C   UNL     1       3.116  -5.114   0.546  1.00  0.00     0.001 A 
HETATM   22  C   UNL     1       2.821  -6.119  -0.372  1.00  0.00     0.000 A 
HETATM   23  C   UNL     1       2.323  -5.784  -1.627  1.00  0.00     0.001 A 
HETATM   24  C   UNL     1       2.128  -4.444  -1.967  1.00  0.00     0.009 A 
ENDBRANCH  18  19
ENDBRANCH   1  18
BRANCH   2  25
HETATM   25  C   UNL     1       5.168  -2.140  -2.168  1.00  0.00     0.250 C 
BRANCH  25  26
HETATM   26  N   UNL     1       4.640  -2.132  -3.514  1.00  0.00    -0.263 N 
HETATM   27  N   UNL     1       4.177  -0.995  -4.076  1.00  0.00     0.006 NA
HETATM   28  N   UNL     1       3.660  -1.314  -5.256  1.00  0.00    -0.158 NA
HETATM   29  C   UNL     1       3.839  -2.658  -5.451  1.00  0.00     0.102 A 
HETATM   30  C   UNL     1       4.489  -3.208  -4.352  1.00  0.00     0.079 A 
HETATM   31  C   UNL     1       3.470  -3.487  -6.520  1.00  0.00     0.035 A 
HETATM   32  C   UNL     1       4.816  -4.565  -4.260  1.00  0.00     0.033 A 
HETATM   33  C   UNL     1       4.442  -5.378  -5.336  1.00  0.00     0.002 A 
HETATM   34  C   UNL     1       3.778  -4.852  -6.446  1.00  0.00     0.002 A 
ENDBRANCH  25  26
ENDBRANCH   2  25
TORSDOF 8
