REMARK  7 active torsions:
REMARK  status: ('A' for Active; 'I' for Inactive)
REMARK    1  A    between atoms: C_3  and  N_4 
REMARK       I    between atoms: N_4  and  C_5 
REMARK    2  A    between atoms: C_5  and  C_6 
REMARK    3  A    between atoms: C_7  and  C_8 
REMARK    4  A    between atoms: C_19  and  C_20 
REMARK    5  A    between atoms: C_20  and  C_21 
REMARK    6  A    between atoms: C_21  and  C_22 
REMARK    7  A    between atoms: C_22  and  O_23 
ROOT
HETATM    1  C   UNL     1       4.784   3.635  -0.435  1.00  0.00     0.062 A 
HETATM    2  C   UNL     1       5.455   4.958  -0.784  1.00  0.00     0.202 A 
HETATM    3  N   UNL     1       6.804   5.041  -0.209  1.00  0.00    -0.083 N 
HETATM    4  C   UNL     1       7.348   4.085   0.606  1.00  0.00     0.726 A 
HETATM    5  N   UNL     1       6.637   2.980   0.896  1.00  0.00    -0.192 N 
HETATM    6  N   UNL     1       7.622   6.110  -0.322  1.00  0.00    -0.140 NA
HETATM    7  C   UNL     1       8.686   5.685   0.375  1.00  0.00     0.166 A 
HETATM    8  N   UNL     1       8.545   4.457   0.976  1.00  0.00    -0.046 NA
HETATM    9  C   UNL     1       5.381   2.718   0.365  1.00  0.00     0.037 A 
HETATM   10  C   UNL     1       4.772   1.391   0.743  1.00  0.00     0.070 C 
HETATM   11  H   UNL     1       7.075   2.252   1.455  1.00  0.00     0.184 HD
ENDROOT
BRANCH   1  12
HETATM   12  C   UNL     1       3.499   3.320  -1.109  1.00  0.00     0.256 C 
HETATM   13  N   UNL     1       2.485   4.189  -0.769  1.00  0.00    -0.323 N 
HETATM   14  H   UNL     1       2.688   4.880  -0.062  1.00  0.00     0.169 HD
HETATM   15  O   UNL     1       3.445   2.352  -1.857  1.00  0.00    -0.267 OA
BRANCH  13  16
HETATM   16  C   UNL     1       1.160   4.197  -1.274  1.00  0.00     0.041 A 
HETATM   17  C   UNL     1       0.244   5.151  -0.776  1.00  0.00    -0.035 A 
HETATM   18  C   UNL     1       0.621   6.170   0.266  1.00  0.00     0.050 C 
HETATM   19  C   UNL     1      -1.071   5.174  -1.277  1.00  0.00     0.009 A 
HETATM   20  C   UNL     1      -1.483   4.268  -2.251  1.00  0.00     0.001 A 
HETATM   21  C   UNL     1      -0.583   3.332  -2.742  1.00  0.00     0.002 A 
HETATM   22  C   UNL     1       0.727   3.299  -2.258  1.00  0.00     0.030 A 
ENDBRANCH  13  16
ENDBRANCH   1  12
BRANCH   2  23
HETATM   23  C   UNL     1       5.487   5.263  -2.276  1.00  0.00    -0.025 A 
HETATM   24  C   UNL     1       4.921   6.456  -2.756  1.00  0.00     0.052 A 
HETATM   25  C   UNL     1       4.933   6.737  -4.118  1.00  0.00     0.117 A 
HETATM   26  F   UNL     1       4.387   7.879  -4.558  1.00  0.00    -0.206 F 
HETATM   27  C   UNL     1       5.499   5.854  -5.027  1.00  0.00     0.042 A 
HETATM   28  C   UNL     1       6.070   4.669  -4.566  1.00  0.00     0.004 A 
HETATM   29  C   UNL     1       6.067   4.375  -3.200  1.00  0.00     0.010 A 
ENDBRANCH   2  23
BRANCH   7  30
HETATM   30  C   UNL     1       9.941   6.473   0.480  1.00  0.00     0.085 C 
BRANCH  30  31
HETATM   31  C   UNL     1      11.063   5.930  -0.402  1.00  0.00     0.034 C 
BRANCH  31  32
HETATM   32  C   UNL     1      10.762   6.049  -1.892  1.00  0.00     0.164 C 
BRANCH  32  33
HETATM   33  O   UNL     1      11.890   5.610  -2.642  1.00  0.00    -0.401 OA
HETATM   34  H   UNL     1      12.631   6.204  -2.434  1.00  0.00     0.209 HD
ENDBRANCH  32  33
ENDBRANCH  31  32
ENDBRANCH  30  31
ENDBRANCH   7  30
TORSDOF 7
