REMARK  9 active torsions:
REMARK  status: ('A' for Active; 'I' for Inactive)
REMARK    1  A    between atoms: C_2  and  C_3 
REMARK    2  A    between atoms: C_4  and  N_5 
REMARK    3  A    between atoms: C_6  and  S_7 
REMARK    4  A    between atoms: S_7  and  C_8 
REMARK    5  A    between atoms: C_8  and  C_9 
REMARK       I    between atoms: C_9  and  N_10 
REMARK    6  A    between atoms: N_10  and  C_11 
REMARK    7  A    between atoms: C_12  and  O_13 
REMARK    8  A    between atoms: C_16  and  O_17 
REMARK    9  A    between atoms: C_26  and  N_27 
ROOT
HETATM    1  N   UNL     1       0.664   1.707  -0.058  1.00  0.00    -0.275 N 
HETATM    2  C   UNL     1      -0.433   2.555   0.251  1.00  0.00     0.177 A 
HETATM    3  N   UNL     1      -1.594   2.559  -0.359  1.00  0.00    -0.204 NA
HETATM    4  C   UNL     1      -1.718   1.595  -1.300  1.00  0.00     0.162 A 
HETATM    5  C   UNL     1      -0.796   0.677  -1.727  1.00  0.00     0.081 A 
HETATM    6  C   UNL     1       0.504   0.736  -1.129  1.00  0.00     0.124 A 
HETATM    7  N   UNL     1      -2.863   1.289  -1.977  1.00  0.00    -0.260 N 
HETATM    8  H   UNL     1      -3.775   1.724  -1.892  1.00  0.00     0.191 HD
HETATM    9  N   UNL     1      -2.712   0.252  -2.829  1.00  0.00    -0.177 NA
HETATM   10  C   UNL     1      -1.443  -0.149  -2.656  1.00  0.00     0.068 A 
HETATM   11  C   UNL     1      -0.946  -1.336  -3.390  1.00  0.00     0.073 C 
ENDROOT
BRANCH   2  12
HETATM   12  S   UNL     1      -0.294   3.684   1.613  1.00  0.00    -0.082 SA
BRANCH  12  13
HETATM   13  C   UNL     1      -1.230   5.106   1.005  1.00  0.00     0.185 C 
BRANCH  13  14
HETATM   14  C   UNL     1      -2.678   5.058   1.470  1.00  0.00     0.232 C 
HETATM   15  N   UNL     1      -3.520   4.443   0.557  1.00  0.00    -0.324 N 
HETATM   16  H   UNL     1      -3.123   4.257  -0.356  1.00  0.00     0.169 HD
HETATM   17  O   UNL     1      -3.020   5.618   2.509  1.00  0.00    -0.272 OA
BRANCH  15  18
HETATM   18  C   UNL     1      -4.908   4.227   0.704  1.00  0.00     0.070 A 
HETATM   19  C   UNL     1      -5.545   3.945   1.927  1.00  0.00     0.097 A 
HETATM   20  C   UNL     1      -6.943   3.816   1.964  1.00  0.00     0.077 A 
HETATM   21  C   UNL     1      -7.705   3.936   0.796  1.00  0.00     0.092 A 
HETATM   22  C   UNL     1      -7.051   4.124  -0.426  1.00  0.00     0.069 A 
HETATM   23 CL   UNL     1      -7.925   4.214  -1.915  1.00  0.00    -0.081 Cl
HETATM   24  C   UNL     1      -5.664   4.265  -0.473  1.00  0.00     0.059 A 
BRANCH  19  25
HETATM   25  O   UNL     1      -4.741   3.653   2.997  1.00  0.00    -0.354 OA
HETATM   26  C   UNL     1      -5.324   3.688   4.292  1.00  0.00     0.210 C 
ENDBRANCH  19  25
BRANCH  21  27
HETATM   27  O   UNL     1      -9.069   3.802   0.771  1.00  0.00    -0.354 OA
HETATM   28  C   UNL     1      -9.758   4.261   1.930  1.00  0.00     0.210 C 
ENDBRANCH  21  27
ENDBRANCH  15  18
ENDBRANCH  13  14
ENDBRANCH  12  13
ENDBRANCH   2  12
BRANCH   1  29
HETATM   29  C   UNL     1       1.931   1.855   0.586  1.00  0.00     0.049 A 
HETATM   30  C   UNL     1       2.423   0.879   1.482  1.00  0.00    -0.031 A 
HETATM   31  C   UNL     1       3.721   1.032   2.001  1.00  0.00     0.009 A 
HETATM   32  C   UNL     1       4.512   2.128   1.654  1.00  0.00     0.001 A 
HETATM   33  C   UNL     1       4.023   3.090   0.778  1.00  0.00     0.002 A 
HETATM   34  C   UNL     1       2.744   2.951   0.240  1.00  0.00     0.031 A 
BRANCH  30  35
HETATM   35  C   UNL     1       1.605  -0.315   1.928  1.00  0.00     0.036 C 
HETATM   36  C   UNL     1       1.241  -0.262   3.405  1.00  0.00     0.010 C 
ENDBRANCH  30  35
ENDBRANCH   1  29
BRANCH   6  37
HETATM   37  N   UNL     1       1.490  -0.029  -1.554  1.00  0.00    -0.384 N 
HETATM   38  H   UNL     1       1.373  -0.682  -2.315  1.00  0.00     0.157 HD
HETATM   39  H   UNL     1       2.405   0.050  -1.125  1.00  0.00     0.157 HD
ENDBRANCH   6  37
TORSDOF 9
