REMARK  4 active torsions:
REMARK  status: ('A' for Active; 'I' for Inactive)
REMARK    1  A    between atoms: C_11  and  N_12 
REMARK    2  A    between atoms: N_12  and  C_13 
REMARK    3  A    between atoms: C_13  and  C_14 
REMARK    4  A    between atoms: C_15  and  C_16 
ROOT
HETATM    1  N   UNL     1       0.993   2.006  -1.228  1.00  0.00     0.092 N 
HETATM    2  H   UNL     1       0.525   1.551  -0.448  1.00  0.00     0.316 HD
ENDROOT
BRANCH   1   3
HETATM    3  C   UNL     1       2.447   1.906  -1.169  1.00  0.00     0.225 C 
HETATM    4  C   UNL     1       2.996   1.041  -2.313  1.00  0.00     0.073 C 
HETATM    5  C   UNL     1       2.809  -0.475  -2.166  1.00  0.00     0.121 C 
HETATM    6  N   UNL     1       3.240  -0.911  -0.778  1.00  0.00    -0.059 N 
HETATM    7  C   UNL     1       1.391  -0.969  -2.469  1.00  0.00     0.046 C 
HETATM    8  C   UNL     1       3.761  -1.202  -3.142  1.00  0.00     0.046 C 
HETATM    9  C   UNL     1       2.816  -0.121   0.439  1.00  0.00     0.121 C 
HETATM   10  H   UNL     1       4.270  -0.933  -0.780  1.00  0.00     0.279 HD
HETATM   11  H   UNL     1       2.968  -1.896  -0.646  1.00  0.00     0.279 HD
HETATM   12  C   UNL     1       1.415  -0.557   0.884  1.00  0.00     0.046 C 
HETATM   13  C   UNL     1       3.792  -0.517   1.568  1.00  0.00     0.046 C 
HETATM   14  C   UNL     1       2.963   1.388   0.177  1.00  0.00     0.073 C 
ENDBRANCH   1   3
BRANCH   1  15
HETATM   15  C   UNL     1       0.519   3.400  -1.213  1.00  0.00     0.312 C 
BRANCH  15  16
HETATM   16  C   UNL     1      -0.971   3.356  -1.254  1.00  0.00     0.014 A 
HETATM   17  C   UNL     1      -1.961   3.566  -0.232  1.00  0.00     0.071 A 
HETATM   18  N   UNL     1      -3.194   3.424  -0.743  1.00  0.00    -0.178 NA
HETATM   19  N   UNL     1      -3.015   3.150  -2.036  1.00  0.00    -0.288 N 
HETATM   20  H   UNL     1      -3.838   3.021  -2.618  1.00  0.00     0.188 HD
HETATM   21  C   UNL     1      -1.710   3.084  -2.392  1.00  0.00     0.120 A 
BRANCH  17  22
HETATM   22  C   UNL     1      -1.848   3.952   1.247  1.00  0.00    -0.004 C 
HETATM   23  C   UNL     1      -1.823   5.488   1.368  1.00  0.00     0.021 C 
HETATM   24  C   UNL     1      -3.067   3.428   2.052  1.00  0.00     0.021 C 
HETATM   25  C   UNL     1      -0.597   3.373   1.934  1.00  0.00     0.021 C 
ENDBRANCH  17  22
ENDBRANCH  15  16
ENDBRANCH   1  15
TORSDOF 4
