REMARK  7 active torsions:
REMARK  status: ('A' for Active; 'I' for Inactive)
REMARK    1  A    between atoms: C_7  and  C_8 
REMARK    2  A    between atoms: N_9  and  N_10 
REMARK       I    between atoms: N_10  and  C_11 
REMARK    3  A    between atoms: C_11  and  C_12 
REMARK    4  A    between atoms: C_12  and  N_13 
REMARK       I    between atoms: N_13  and  C_14 
REMARK    5  A    between atoms: C_14  and  C_15 
REMARK    6  A    between atoms: C_16  and  C_17 
REMARK    7  A    between atoms: C_18  and  O_19 
ROOT
HETATM    1  N   UNL     1       3.271  -5.408  -1.121  1.00  0.00    -0.246 N 
HETATM    2  C   UNL     1       3.895  -5.909   0.013  1.00  0.00     0.255 C 
HETATM    3  O   UNL     1       3.332  -6.411   0.983  1.00  0.00    -0.270 OA
HETATM    4  H   UNL     1       3.837  -4.941  -1.835  1.00  0.00     0.192 HD
ENDROOT
BRANCH   2   5
HETATM    5  C   UNL     1       5.418  -5.793  -0.058  1.00  0.00     0.227 C 
BRANCH   5   6
HETATM    6  N   UNL     1       5.861  -4.410   0.016  1.00  0.00    -0.349 N 
HETATM    7  C   UNL     1       5.843  -3.595  -1.084  1.00  0.00     0.241 C 
HETATM    8  O   UNL     1       5.428  -3.962  -2.179  1.00  0.00    -0.269 OA
HETATM    9  H   UNL     1       6.081  -4.034   0.929  1.00  0.00     0.163 HD
BRANCH   7  10
HETATM   10  C   UNL     1       6.298  -2.216  -0.803  1.00  0.00     0.075 C 
HETATM   11  C   UNL     1       6.446  -1.345  -1.812  1.00  0.00     0.020 C 
BRANCH  11  12
HETATM   12  C   UNL     1       6.840   0.046  -1.563  1.00  0.00    -0.003 A 
HETATM   13  C   UNL     1       8.188   0.442  -1.464  1.00  0.00     0.078 A 
HETATM   14  C   UNL     1       8.485   1.787  -1.213  1.00  0.00     0.037 A 
HETATM   15  C   UNL     1       7.460   2.725  -1.063  1.00  0.00     0.003 A 
HETATM   16  C   UNL     1       6.129   2.331  -1.161  1.00  0.00     0.001 A 
HETATM   17  C   UNL     1       5.819   0.996  -1.410  1.00  0.00     0.014 A 
BRANCH  13  18
HETATM   18  O   UNL     1       9.127  -0.547  -1.620  1.00  0.00    -0.355 OA
HETATM   19  C   UNL     1      10.495  -0.158  -1.596  1.00  0.00     0.210 C 
ENDBRANCH  13  18
ENDBRANCH  11  12
ENDBRANCH   7  10
ENDBRANCH   5   6
ENDBRANCH   2   5
BRANCH   1  20
HETATM   20  N   UNL     1       1.910  -5.414  -1.218  1.00  0.00    -0.184 NA
HETATM   21  C   UNL     1       1.428  -4.871  -2.288  1.00  0.00     0.153 C 
BRANCH  21  22
HETATM   22  C   UNL     1      -0.008  -4.819  -2.495  1.00  0.00     0.018 A 
HETATM   23  C   UNL     1      -0.616  -4.271  -3.619  1.00  0.00     0.018 A 
HETATM   24  C   UNL     1      -0.036  -3.637  -4.832  1.00  0.00     0.069 C 
HETATM   25  N   UNL     1      -1.974  -4.401  -3.465  1.00  0.00    -0.358 N 
HETATM   26  H   UNL     1      -2.669  -4.092  -4.130  1.00  0.00     0.166 HD
HETATM   27  C   UNL     1      -2.272  -5.015  -2.273  1.00  0.00     0.043 A 
HETATM   28  C   UNL     1      -1.060  -5.291  -1.639  1.00  0.00     0.004 A 
HETATM   29  C   UNL     1      -3.516  -5.343  -1.718  1.00  0.00     0.030 A 
HETATM   30  C   UNL     1      -1.102  -5.929  -0.380  1.00  0.00     0.014 A 
HETATM   31  C   UNL     1      -2.336  -6.264   0.191  1.00  0.00     0.001 A 
HETATM   32  C   UNL     1      -3.525  -5.974  -0.471  1.00  0.00     0.002 A 
ENDBRANCH  21  22
ENDBRANCH   1  20
TORSDOF 7
