REMARK  3 active torsions:
REMARK  status: ('A' for Active; 'I' for Inactive)
REMARK    1  A    between atoms: C_6  and  C_7 
REMARK    2  A    between atoms: C_14  and  N_15 
REMARK    3  A    between atoms: N_15  and  C_16 
ROOT
HETATM    1  C   UNL     1      -2.419   0.640   0.059  1.00  0.00     0.001 A 
HETATM    2  C   UNL     1      -1.234   1.358   0.205  1.00  0.00     0.018 A 
HETATM    3  C   UNL     1       0.027   0.714   0.102  1.00  0.00     0.039 A 
HETATM    4  C   UNL     1       0.076  -0.665  -0.132  1.00  0.00     0.073 A 
HETATM    5  N   UNL     1       1.221  -1.345  -0.220  1.00  0.00    -0.228 NA
HETATM    6  C   UNL     1       2.365  -0.658  -0.070  1.00  0.00     0.164 A 
HETATM    7  N   UNL     1       2.432   0.663   0.152  1.00  0.00    -0.210 NA
HETATM    8  C   UNL     1       1.277   1.347   0.231  1.00  0.00     0.143 A 
HETATM    9  C   UNL     1      -1.120  -1.360  -0.276  1.00  0.00     0.032 A 
HETATM   10  C   UNL     1      -2.361  -0.725  -0.186  1.00  0.00     0.002 A 
ENDROOT
BRANCH   8  11
HETATM   11  N   UNL     1       1.314   2.752   0.438  1.00  0.00    -0.340 N 
HETATM   12  H   UNL     1       0.777   3.208  -0.292  1.00  0.00     0.167 HD
BRANCH  11  13
HETATM   13  C   UNL     1       2.392   3.557   0.874  1.00  0.00     0.036 A 
HETATM   14  C   UNL     1       2.363   4.934   0.589  1.00  0.00     0.069 A 
HETATM   15  C   UNL     1       3.373   5.735   1.084  1.00  0.00     0.107 A 
HETATM   16  C   UNL     1       4.385   5.228   1.861  1.00  0.00     0.105 A 
HETATM   17  O   UNL     1       3.488   7.076   0.890  1.00  0.00    -0.323 OA
HETATM   18  O   UNL     1       5.269   6.184   2.252  1.00  0.00    -0.323 OA
HETATM   19  C   UNL     1       4.438   3.895   2.192  1.00  0.00     0.042 A 
HETATM   20  C   UNL     1       4.691   7.355   1.639  1.00  0.00     0.352 A 
HETATM   21  C   UNL     1       3.422   3.062   1.704  1.00  0.00     0.032 A 
ENDBRANCH  11  13
ENDBRANCH   8  11
BRANCH   6  22
HETATM   22  C   UNL     1       3.629  -1.401  -0.156  1.00  0.00     0.029 A 
HETATM   23  C   UNL     1       3.660  -2.789  -0.295  1.00  0.00     0.131 A 
HETATM   24  N   UNL     1       4.787  -3.545  -0.380  1.00  0.00    -0.272 NA
HETATM   25  C   UNL     1       5.962  -2.885  -0.325  1.00  0.00     0.116 A 
HETATM   26  C   UNL     1       6.061  -1.512  -0.190  1.00  0.00     0.020 A 
HETATM   27  C   UNL     1       4.883  -0.770  -0.105  1.00  0.00     0.018 A 
ENDBRANCH   6  22
TORSDOF 3
