REMARK  5 active torsions:
REMARK  status: ('A' for Active; 'I' for Inactive)
REMARK    1  A    between atoms: C_5  and  C_6 
REMARK    2  A    between atoms: C_6  and  C_7 
REMARK       I    between atoms: C_7  and  N_8 
REMARK    3  A    between atoms: N_8  and  C_9 
REMARK    4  A    between atoms: C_12  and  O_13 
REMARK    5  A    between atoms: O_13  and  C_14 
ROOT
HETATM    1  C   UNL     1      -4.225   1.768   0.504  1.00  0.00     0.076 A 
HETATM    2  C   UNL     1      -4.263   2.988  -0.171  1.00  0.00     0.039 A 
HETATM    3  C   UNL     1      -4.378   4.178   0.550  1.00  0.00     0.025 A 
HETATM    4  C   UNL     1      -4.471   4.145   1.947  1.00  0.00     0.044 A 
HETATM    5  C   UNL     1      -4.591   5.367   2.688  1.00  0.00     0.099 C 
HETATM    6  N   UNL     1      -4.686   6.357   3.286  1.00  0.00    -0.191 NA
HETATM    7  C   UNL     1      -4.455   2.915   2.617  1.00  0.00     0.025 A 
HETATM    8  C   UNL     1      -4.343   1.724   1.894  1.00  0.00     0.039 A 
ENDROOT
BRANCH   1   9
HETATM    9  O   UNL     1      -4.173   0.626  -0.256  1.00  0.00    -0.311 OA
BRANCH   9  10
HETATM   10  C   UNL     1      -3.134  -0.255  -0.056  1.00  0.00     0.076 A 
HETATM   11  C   UNL     1      -3.371  -1.566  -0.468  1.00  0.00     0.039 A 
HETATM   12  C   UNL     1      -2.368  -2.537  -0.370  1.00  0.00     0.032 A 
HETATM   13  C   UNL     1      -1.112  -2.207   0.138  1.00  0.00     0.034 A 
HETATM   14  C   UNL     1      -0.878  -0.888   0.550  1.00  0.00     0.032 A 
HETATM   15  C   UNL     1      -1.878   0.088   0.443  1.00  0.00     0.039 A 
BRANCH  13  16
HETATM   16  N   UNL     1      -0.039  -3.118   0.249  1.00  0.00    -0.327 N 
HETATM   17  C   UNL     1      -0.018  -4.448  -0.140  1.00  0.00     0.227 C 
HETATM   18  O   UNL     1      -0.955  -5.071  -0.638  1.00  0.00    -0.273 OA
HETATM   19  H   UNL     1       0.812  -2.744   0.651  1.00  0.00     0.169 HD
BRANCH  17  20
HETATM   20  C   UNL     1       1.343  -5.115   0.075  1.00  0.00     0.159 C 
BRANCH  20  21
HETATM   21  C   UNL     1       1.231  -6.413   0.814  1.00  0.00     0.017 A 
HETATM   22  N   UNL     1       0.168  -7.272   0.638  1.00  0.00    -0.369 N 
HETATM   23  C   UNL     1       0.338  -8.383   1.419  1.00  0.00     0.088 A 
HETATM   24  H   UNL     1      -0.629  -7.085   0.035  1.00  0.00     0.165 HD
HETATM   25  C   UNL     1       1.527  -8.249   2.097  1.00  0.00     0.019 A 
HETATM   26  C   UNL     1       2.092  -7.009   1.716  1.00  0.00     0.027 A 
ENDBRANCH  20  21
ENDBRANCH  17  20
ENDBRANCH  13  16
ENDBRANCH   9  10
ENDBRANCH   1   9
TORSDOF 5
