REMARK  7 active torsions:
REMARK  status: ('A' for Active; 'I' for Inactive)
REMARK       I    between atoms: C_2  and  N_3 
REMARK    1  A    between atoms: N_3  and  C_4 
REMARK    2  A    between atoms: C_7  and  N_8 
REMARK       I    between atoms: N_8  and  C_9 
REMARK    3  A    between atoms: C_9  and  C_10 
REMARK       I    between atoms: C_10  and  N_11 
REMARK    4  A    between atoms: N_11  and  C_12 
REMARK    5  A    between atoms: C_12  and  C_13 
REMARK    6  A    between atoms: C_13  and  O_14 
REMARK    7  A    between atoms: C_13  and  C_15 
ROOT
HETATM    1  C   UNL     1      -1.176  -2.099   5.234  1.00  0.00     0.309 C 
HETATM    2  N   UNL     1      -1.813  -1.549   6.322  1.00  0.00    -0.350 N 
HETATM    3  O   UNL     1      -1.396  -3.203   4.755  1.00  0.00    -0.262 OA
HETATM    4  H   UNL     1      -1.494  -0.633   6.631  1.00  0.00     0.163 HD
ENDROOT
BRANCH   1   5
HETATM    5  C   UNL     1      -0.070  -1.203   4.637  1.00  0.00     0.313 C 
HETATM    6  N   UNL     1       0.447  -1.732   3.475  1.00  0.00    -0.319 N 
HETATM    7  H   UNL     1       0.001  -2.594   3.171  1.00  0.00     0.169 HD
HETATM    8  O   UNL     1       0.231  -0.178   5.231  1.00  0.00    -0.262 OA
BRANCH   6   9
HETATM    9  C   UNL     1       1.533  -1.256   2.723  1.00  0.00     0.035 A 
HETATM   10  C   UNL     1       2.300  -0.149   3.082  1.00  0.00     0.032 A 
HETATM   11  C   UNL     1       3.405   0.235   2.308  1.00  0.00     0.032 A 
HETATM   12  C   UNL     1       3.754  -0.476   1.161  1.00  0.00     0.034 A 
HETATM   13  C   UNL     1       2.968  -1.571   0.788  1.00  0.00     0.032 A 
HETATM   14  C   UNL     1       1.871  -1.961   1.564  1.00  0.00     0.032 A 
BRANCH  12  15
HETATM   15  N   UNL     1       4.864  -0.170   0.346  1.00  0.00    -0.328 N 
HETATM   16  C   UNL     1       5.809   0.819   0.549  1.00  0.00     0.218 C 
HETATM   17  C   UNL     1       6.875   0.822  -0.519  1.00  0.00     0.117 C 
HETATM   18  O   UNL     1       5.863   1.609   1.484  1.00  0.00    -0.274 OA
HETATM   19  H   UNL     1       4.997  -0.766  -0.461  1.00  0.00     0.169 HD
ENDBRANCH  12  15
ENDBRANCH   6   9
ENDBRANCH   1   5
BRANCH   2  20
HETATM   20  C   UNL     1      -2.778  -2.295   7.116  1.00  0.00     0.159 C 
BRANCH  20  21
HETATM   21  C   UNL     1      -2.091  -3.244   8.119  1.00  0.00     0.171 C 
BRANCH  21  22
HETATM   22  O   UNL     1      -1.288  -2.462   9.017  1.00  0.00    -0.389 OA
HETATM   23  H   UNL     1      -0.595  -2.057   8.470  1.00  0.00     0.210 HD
ENDBRANCH  21  22
BRANCH  21  24
HETATM   24  C   UNL     1      -3.089  -4.069   8.874  1.00  0.00     0.000 A 
HETATM   25  C   UNL     1      -3.582  -5.361   8.498  1.00  0.00     0.001 A 
HETATM   26  C   UNL     1      -4.484  -5.777   9.484  1.00  0.00     0.044 A 
HETATM   27  C   UNL     1      -3.333  -6.215   7.402  1.00  0.00     0.014 A 
HETATM   28  C   UNL     1      -5.136  -7.021   9.413  1.00  0.00     0.030 A 
HETATM   29  N   UNL     1      -4.543  -4.768  10.420  1.00  0.00    -0.360 N 
HETATM   30  C   UNL     1      -4.867  -7.848   8.319  1.00  0.00     0.002 A 
HETATM   31  C   UNL     1      -3.979  -7.453   7.325  1.00  0.00     0.001 A 
HETATM   32  C   UNL     1      -5.340  -4.756  11.627  1.00  0.00     0.155 C 
HETATM   33  C   UNL     1      -3.713  -3.739  10.062  1.00  0.00     0.101 A 
ENDBRANCH  21  24
ENDBRANCH  20  21
ENDBRANCH   2  20
TORSDOF 7
