REMARK  3 active torsions:
REMARK  status: ('A' for Active; 'I' for Inactive)
REMARK    1  A    between atoms: C_9  and  C_10 
REMARK    2  A    between atoms: C_16  and  C_17 
REMARK       I    between atoms: C_17  and  N_18 
REMARK    3  A    between atoms: N_18  and  C_19 
ROOT
HETATM    1  C   UNL     1       0.935   0.086   0.984  1.00  0.00     0.070 C 
HETATM    2  C   UNL     1       2.338   0.075   0.429  1.00  0.00     0.037 C 
HETATM    3  N   UNL     1       2.893   1.327   0.176  1.00  0.00    -0.191 N 
HETATM    4  C   UNL     1       4.207   1.504  -0.076  1.00  0.00     0.735 A 
HETATM    5  N   UNL     1       5.009   0.411  -0.251  1.00  0.00    -0.092 N 
HETATM    6  N   UNL     1       6.286   0.791  -0.405  1.00  0.00     0.012 NA
HETATM    7  N   UNL     1       6.244   2.120  -0.372  1.00  0.00     0.033 NA
HETATM    8  N   UNL     1       4.955   2.577  -0.166  1.00  0.00     0.030 NA
HETATM    9  C   UNL     1       4.542  -0.972  -0.217  1.00  0.00     0.198 C 
HETATM   10  C   UNL     1       3.086  -1.041   0.239  1.00  0.00     0.062 C 
HETATM   11  H   UNL     1       2.338   2.145   0.419  1.00  0.00     0.184 HD
ENDROOT
BRANCH  10  12
HETATM   12  C   UNL     1       2.622  -2.413   0.568  1.00  0.00     0.256 C 
HETATM   13  N   UNL     1       1.470  -2.780  -0.089  1.00  0.00    -0.322 N 
HETATM   14  H   UNL     1       1.089  -2.128  -0.763  1.00  0.00     0.169 HD
HETATM   15  O   UNL     1       3.292  -3.096   1.332  1.00  0.00    -0.267 OA
BRANCH  13  16
HETATM   16  C   UNL     1       0.749  -3.980   0.094  1.00  0.00     0.052 A 
HETATM   17  C   UNL     1       1.108  -5.008   0.962  1.00  0.00     0.145 A 
HETATM   18  N   UNL     1       0.381  -6.142   1.142  1.00  0.00    -0.271 NA
HETATM   19  C   UNL     1      -0.755  -6.259   0.427  1.00  0.00     0.116 A 
HETATM   20  C   UNL     1      -1.200  -5.298  -0.464  1.00  0.00     0.021 A 
HETATM   21  C   UNL     1      -0.433  -4.145  -0.632  1.00  0.00     0.032 A 
ENDBRANCH  13  16
ENDBRANCH  10  12
BRANCH   9  22
HETATM   22  C   UNL     1       4.740  -1.636  -1.577  1.00  0.00    -0.029 A 
HETATM   23  C   UNL     1       5.397  -2.875  -1.655  1.00  0.00     0.009 A 
HETATM   24  C   UNL     1       5.587  -3.505  -2.886  1.00  0.00     0.001 A 
HETATM   25  C   UNL     1       5.117  -2.910  -4.055  1.00  0.00     0.000 A 
HETATM   26  C   UNL     1       4.450  -1.688  -3.994  1.00  0.00     0.001 A 
HETATM   27  C   UNL     1       4.257  -1.057  -2.765  1.00  0.00     0.009 A 
ENDBRANCH   9  22
TORSDOF 3
