REMARK  14 active torsions:
REMARK  status: ('A' for Active; 'I' for Inactive)
REMARK    1  A    between atoms: C_2  and  O_3 
REMARK    2  A    between atoms: O_3  and  C_4 
REMARK    3  A    between atoms: C_5  and  O_6 
REMARK    4  A    between atoms: C_9  and  C_10 
REMARK    5  A    between atoms: N_11  and  C_12 
REMARK    6  A    between atoms: C_12  and  C_13 
REMARK    7  A    between atoms: C_13  and  C_14 
REMARK    8  A    between atoms: C_14  and  N_15 
REMARK    9  A    between atoms: C_24  and  O_25 
REMARK   10  A    between atoms: C_26  and  C_27 
REMARK   11  A    between atoms: C_27  and  C_28 
REMARK   12  A    between atoms: C_32  and  O_33 
REMARK   13  A    between atoms: O_33  and  C_34 
REMARK   14  A    between atoms: C_34  and  C_35 
ROOT
HETATM    1  C   UNL     1       6.899  -4.669  -1.729  1.00  0.00     0.161 C 
HETATM    2  N   UNL     1       6.440  -5.984  -1.282  1.00  0.00    -0.333 N 
HETATM    3  C   UNL     1       6.628  -6.127   0.081  1.00  0.00     0.278 C 
HETATM    4  O   UNL     1       6.264  -7.046   0.793  1.00  0.00    -0.265 OA
HETATM    5  C   UNL     1       7.421  -4.978   0.550  1.00  0.00     0.146 C 
HETATM    6  C   UNL     1       7.599  -4.171  -0.502  1.00  0.00     0.059 C 
ENDROOT
BRANCH   6   7
HETATM    7  C   UNL     1       8.547  -3.043  -0.467  1.00  0.00     0.193 C 
HETATM    8  O   UNL     1       9.624  -3.157   0.110  1.00  0.00    -0.287 OA
BRANCH   7   9
HETATM    9  C   UNL     1       8.261  -1.811  -1.242  1.00  0.00     0.015 A 
HETATM   10  C   UNL     1       9.351  -1.117  -1.781  1.00  0.00     0.025 A 
HETATM   11  C   UNL     1       9.159   0.060  -2.517  1.00  0.00    -0.028 A 
HETATM   12  C   UNL     1      10.351   0.791  -3.075  1.00  0.00     0.051 C 
HETATM   13  C   UNL     1       7.856   0.543  -2.724  1.00  0.00     0.074 A 
HETATM   14  C   UNL     1       6.769  -0.142  -2.171  1.00  0.00     0.038 A 
HETATM   15  C   UNL     1       6.969  -1.310  -1.422  1.00  0.00     0.018 A 
BRANCH  13  16
HETATM   16  O   UNL     1       7.773   1.685  -3.470  1.00  0.00    -0.350 OA
BRANCH  16  17
HETATM   17  C   UNL     1       6.488   2.244  -3.730  1.00  0.00     0.179 C 
BRANCH  17  18
HETATM   18  C   UNL     1       6.654   3.558  -4.511  1.00  0.00     0.002 C 
HETATM   19  C   UNL     1       7.392   4.607  -3.676  1.00  0.00     0.011 C 
HETATM   20  C   UNL     1       7.390   3.336  -5.834  1.00  0.00     0.011 C 
ENDBRANCH  17  18
ENDBRANCH  16  17
ENDBRANCH  13  16
ENDBRANCH   7   9
ENDBRANCH   6   7
BRANCH   1  21
HETATM   21  C   UNL     1       7.744  -4.705  -2.982  1.00  0.00    -0.028 A 
HETATM   22  C   UNL     1       8.911  -5.484  -3.070  1.00  0.00     0.012 A 
HETATM   23  C   UNL     1       9.689  -5.461  -4.227  1.00  0.00     0.040 A 
HETATM   24  C   UNL     1       9.324  -4.633  -5.281  1.00  0.00     0.099 A 
HETATM   25  C   UNL     1       8.198  -3.813  -5.207  1.00  0.00     0.102 A 
HETATM   26  C   UNL     1       7.393  -3.877  -4.069  1.00  0.00     0.049 A 
BRANCH  24  27
HETATM   27  O   UNL     1      10.118  -4.619  -6.393  1.00  0.00    -0.358 OA
HETATM   28  H   UNL     1       9.734  -3.939  -6.981  1.00  0.00     0.218 HD
ENDBRANCH  24  27
BRANCH  25  29
HETATM   29  O   UNL     1       7.981  -3.003  -6.291  1.00  0.00    -0.349 OA
BRANCH  29  30
HETATM   30  C   UNL     1       7.172  -1.846  -6.058  1.00  0.00     0.171 C 
HETATM   31  C   UNL     1       7.395  -0.866  -7.195  1.00  0.00     0.034 C 
ENDBRANCH  29  30
ENDBRANCH  25  29
ENDBRANCH   1  21
BRANCH   5  32
HETATM   32  O   UNL     1       7.889  -4.856   1.821  1.00  0.00    -0.355 OA
HETATM   33  H   UNL     1       7.576  -5.633   2.323  1.00  0.00     0.218 HD
ENDBRANCH   5  32
BRANCH   2  34
HETATM   34  C   UNL     1       5.512  -6.816  -2.035  1.00  0.00     0.129 C 
BRANCH  34  35
HETATM   35  C   UNL     1       6.177  -7.862  -2.932  1.00  0.00     0.048 C 
BRANCH  35  36
HETATM   36  C   UNL     1       7.163  -8.831  -2.273  1.00  0.00     0.236 C 
BRANCH  36  37
HETATM   37  N   UNL     1       6.575 -10.036  -1.573  1.00  0.00    -0.067 N 
HETATM   38  H   UNL     1       7.377 -10.673  -1.466  1.00  0.00     0.280 HD
HETATM   39  C   UNL     1       6.102  -9.795  -0.144  1.00  0.00     0.261 C 
HETATM   40  C   UNL     1       5.731 -11.136   0.505  1.00  0.00     0.195 C 
HETATM   41  O   UNL     1       4.746 -11.832  -0.268  1.00  0.00    -0.388 OA
HETATM   42  C   UNL     1       5.210 -12.120  -1.592  1.00  0.00     0.195 C 
HETATM   43  C   UNL     1       5.534 -10.827  -2.351  1.00  0.00     0.261 C 
ENDBRANCH  36  37
ENDBRANCH  35  36
ENDBRANCH  34  35
ENDBRANCH   2  34
TORSDOF 14
