REMARK  6 active torsions:
REMARK  status: ('A' for Active; 'I' for Inactive)
REMARK    1  A    between atoms: C_4  and  N_5 
REMARK    2  A    between atoms: C_7  and  C_8 
REMARK       I    between atoms: C_8  and  N_9 
REMARK    3  A    between atoms: N_9  and  N_10 
REMARK       I    between atoms: N_10  and  C_11 
REMARK    4  A    between atoms: C_11  and  C_12 
REMARK    5  A    between atoms: C_12  and  C_13 
REMARK    6  A    between atoms: C_22  and  O_23 
ROOT
HETATM    1  C   UNL     1       5.930   1.739  -0.007  1.00  0.00     0.293 C 
HETATM    2  N   UNL     1       5.557   2.923   0.593  1.00  0.00    -0.262 N 
HETATM    3  O   UNL     1       7.069   1.516  -0.417  1.00  0.00    -0.264 OA
HETATM    4  H   UNL     1       4.616   3.038   0.975  1.00  0.00     0.190 HD
ENDROOT
BRANCH   1   5
HETATM    5  C   UNL     1       4.850   0.759  -0.113  1.00  0.00     0.181 A 
HETATM    6  N   UNL     1       3.603   0.996   0.334  1.00  0.00    -0.159 NA
HETATM    7  N   UNL     1       2.904  -0.147   0.058  1.00  0.00    -0.242 N 
HETATM    8  C   UNL     1       3.700  -1.091  -0.553  1.00  0.00     0.158 A 
HETATM    9  C   UNL     1       4.939  -0.530  -0.671  1.00  0.00     0.119 A 
BRANCH   7  10
HETATM   10  C   UNL     1       1.525  -0.255   0.399  1.00  0.00     0.058 A 
HETATM   11  C   UNL     1       0.875   0.832   1.005  1.00  0.00     0.031 A 
HETATM   12  C   UNL     1      -0.477   0.744   1.344  1.00  0.00     0.002 A 
HETATM   13  C   UNL     1      -1.188  -0.425   1.085  1.00  0.00     0.000 A 
HETATM   14  C   UNL     1      -0.550  -1.509   0.485  1.00  0.00     0.002 A 
HETATM   15  C   UNL     1       0.803  -1.429   0.141  1.00  0.00     0.031 A 
ENDBRANCH   7  10
BRANCH   9  16
HETATM   16  O   UNL     1       5.990  -1.154  -1.226  1.00  0.00    -0.357 OA
HETATM   17  H   UNL     1       6.774  -0.567  -1.206  1.00  0.00     0.218 HD
ENDBRANCH   9  16
ENDBRANCH   1   5
BRANCH   2  18
HETATM   18  N   UNL     1       6.503   3.925   0.819  1.00  0.00    -0.267 N 
HETATM   19  C   UNL     1       6.176   4.939   1.698  1.00  0.00     0.240 C 
HETATM   20  O   UNL     1       5.070   5.028   2.227  1.00  0.00    -0.272 OA
HETATM   21  H   UNL     1       7.461   3.727   0.533  1.00  0.00     0.190 HD
BRANCH  19  22
HETATM   22  C   UNL     1       7.296   5.929   1.951  1.00  0.00     0.143 C 
BRANCH  22  23
HETATM   23  C   UNL     1       8.069   5.748   3.240  1.00  0.00    -0.049 A 
HETATM   24  C   UNL     1       7.708   4.832   4.237  1.00  0.00     0.009 A 
HETATM   25  C   UNL     1       8.453   4.730   5.417  1.00  0.00     0.019 A 
HETATM   26  C   UNL     1       9.562   5.549   5.611  1.00  0.00     0.011 A 
HETATM   27 BR   UNL     1      10.561   5.417   7.210  1.00  0.00    -0.051 Br
HETATM   28  C   UNL     1       9.934   6.471   4.638  1.00  0.00     0.019 A 
HETATM   29  C   UNL     1       9.190   6.569   3.459  1.00  0.00     0.009 A 
ENDBRANCH  22  23
ENDBRANCH  19  22
ENDBRANCH   2  18
TORSDOF 6
