REMARK  7 active torsions:
REMARK  status: ('A' for Active; 'I' for Inactive)
REMARK    1  A    between atoms: O_2  and  C_3 
REMARK    2  A    between atoms: C_4  and  O_5 
REMARK    3  A    between atoms: C_6  and  C_7 
REMARK    4  A    between atoms: C_7  and  N_8 
REMARK    5  A    between atoms: C_11  and  C_12 
REMARK    6  A    between atoms: C_12  and  N_13 
REMARK    7  A    between atoms: N_13  and  C_14 
ROOT
HETATM    1  N   UNL     1       3.627   5.368  -2.846  1.00  0.00    -0.067 N 
HETATM    2  H   UNL     1       4.450   4.794  -3.118  1.00  0.00     0.280 HD
HETATM    3  C   UNL     1       4.122   6.720  -2.396  1.00  0.00     0.241 C 
HETATM    4  C   UNL     1       3.106   7.690  -2.987  1.00  0.00     0.031 C 
HETATM    5  C   UNL     1       2.845   7.064  -4.355  1.00  0.00     0.035 C 
HETATM    6  C   UNL     1       2.750   5.573  -4.059  1.00  0.00     0.235 C 
ENDROOT
BRANCH   1   7
HETATM    7  C   UNL     1       2.977   4.530  -1.770  1.00  0.00     0.276 C 
BRANCH   7   8
HETATM    8  C   UNL     1       3.923   4.105  -0.684  1.00  0.00     0.005 A 
HETATM    9  C   UNL     1       5.146   3.498  -0.987  1.00  0.00     0.107 A 
HETATM   10  C   UNL     1       6.019   3.035   0.008  1.00  0.00     0.103 A 
HETATM   11  C   UNL     1       5.673   3.209   1.345  1.00  0.00     0.058 A 
HETATM   12  C   UNL     1       4.459   3.822   1.665  1.00  0.00     0.014 A 
HETATM   13  C   UNL     1       3.583   4.258   0.666  1.00  0.00     0.030 A 
HETATM   14 BR   UNL     1       3.987   4.073   3.479  1.00  0.00    -0.051 Br
BRANCH   9  15
HETATM   15  O   UNL     1       5.503   3.366  -2.309  1.00  0.00    -0.357 OA
HETATM   16  H   UNL     1       6.328   2.826  -2.284  1.00  0.00     0.218 HD
ENDBRANCH   9  15
BRANCH  10  17
HETATM   17  O   UNL     1       7.165   2.451  -0.464  1.00  0.00    -0.353 OA
HETATM   18  C   UNL     1       7.987   1.794   0.500  1.00  0.00     0.210 C 
ENDBRANCH  10  17
ENDBRANCH   7   8
ENDBRANCH   1   7
BRANCH   4  19
HETATM   19  C   UNL     1       3.625   9.131  -3.042  1.00  0.00     0.127 C 
BRANCH  19  20
HETATM   20  N   UNL     1       2.546  10.047  -3.426  1.00  0.00    -0.376 N 
HETATM   21  H   UNL     1       1.640   9.817  -3.028  1.00  0.00     0.161 HD
BRANCH  20  22
HETATM   22  C   UNL     1       2.811  11.400  -3.589  1.00  0.00     0.100 A 
HETATM   23  N   UNL     1       1.797  12.273  -3.432  1.00  0.00    -0.353 N 
HETATM   24  H   UNL     1       0.879  11.906  -3.202  1.00  0.00     0.166 HD
HETATM   25  C   UNL     1       1.923  13.601  -3.578  1.00  0.00     0.089 A 
HETATM   26  C   UNL     1       3.146  14.151  -3.924  1.00  0.00     0.017 A 
HETATM   27  C   UNL     1       4.222  13.301  -4.127  1.00  0.00     0.005 A 
HETATM   28  C   UNL     1       4.055  11.925  -3.966  1.00  0.00     0.048 A 
ENDBRANCH  20  22
ENDBRANCH  19  20
ENDBRANCH   4  19
TORSDOF 7
