REMARK  9 active torsions:
REMARK  status: ('A' for Active; 'I' for Inactive)
REMARK    1  A    between atoms: N_2  and  C_5 
REMARK    2  A    between atoms: C_10  and  N_11 
REMARK       I    between atoms: N_11  and  C_12 
REMARK    3  A    between atoms: C_12  and  C_14 
REMARK    4  A    between atoms: C_18  and  C_19 
REMARK    5  A    between atoms: C_19  and  N_20 
REMARK       I    between atoms: N_20  and  C_21 
REMARK    6  A    between atoms: C_21  and  C_23 
REMARK    7  A    between atoms: N_26  and  C_34 
REMARK    8  A    between atoms: C_27  and  C_28 
REMARK    9  A    between atoms: C_38  and  N_39 
ROOT
HETATM    1  C   UNL     1       2.676 -10.961   3.162  1.00  0.00     0.161 C 
ENDROOT
BRANCH   1   2
HETATM    2  C   UNL     1       3.770 -10.444   2.265  1.00  0.00    -0.040 A 
HETATM    3  C   UNL     1       4.711 -11.331   1.722  1.00  0.00     0.009 A 
HETATM    4  C   UNL     1       5.707 -10.869   0.864  1.00  0.00     0.002 A 
HETATM    5  C   UNL     1       5.781  -9.513   0.549  1.00  0.00     0.017 A 
HETATM    6  C   UNL     1       4.858  -8.606   1.089  1.00  0.00     0.033 A 
HETATM    7  C   UNL     1       3.840  -9.080   1.930  1.00  0.00     0.026 A 
BRANCH   6   8
HETATM    8  C   UNL     1       5.000  -7.164   0.715  1.00  0.00     0.257 C 
HETATM    9  N   UNL     1       4.513  -6.260   1.633  1.00  0.00    -0.301 N 
HETATM   10  H   UNL     1       4.122  -6.575   2.508  1.00  0.00     0.171 HD
HETATM   11  O   UNL     1       5.555  -6.899  -0.345  1.00  0.00    -0.267 OA
BRANCH   9  12
HETATM   12  C   UNL     1       4.554  -4.891   1.536  1.00  0.00     0.174 A 
HETATM   13  N   UNL     1       4.055  -4.123   2.483  1.00  0.00    -0.228 NA
HETATM   14  C   UNL     1       4.228  -2.801   2.145  1.00  0.00     0.050 A 
HETATM   15  C   UNL     1       3.767  -1.699   3.038  1.00  0.00     0.062 C 
HETATM   16  C   UNL     1       4.889  -2.585   0.955  1.00  0.00     0.013 A 
HETATM   17  C   UNL     1       3.780  -0.344   2.299  1.00  0.00     0.039 C 
HETATM   18  C   UNL     1       5.076  -0.171   1.471  1.00  0.00     0.192 C 
HETATM   19  C   UNL     1       5.213  -1.254   0.370  1.00  0.00     0.081 C 
HETATM   20  S   UNL     1       5.256  -4.066   0.213  1.00  0.00    -0.055 SA
BRANCH  18  21
HETATM   21  N   UNL     1       5.168   1.254   0.917  1.00  0.00    -0.074 N 
HETATM   22  C   UNL     1       6.558   1.598   0.434  1.00  0.00     0.269 C 
HETATM   23  H   UNL     1       5.006   1.876   1.721  1.00  0.00     0.279 HD
HETATM   24  C   UNL     1       4.132   1.642  -0.107  1.00  0.00     0.269 C 
ENDBRANCH  18  21
ENDBRANCH   9  12
ENDBRANCH   6   8
ENDBRANCH   1   2
BRANCH   1  25
HETATM   25  N   UNL     1       1.648 -11.619   2.398  1.00  0.00    -0.351 N 
HETATM   26  C   UNL     1       0.456 -11.989   2.983  1.00  0.00     0.274 C 
HETATM   27  O   UNL     1       0.146 -11.651   4.120  1.00  0.00    -0.266 OA
HETATM   28  H   UNL     1       1.877 -12.035   1.502  1.00  0.00     0.163 HD
BRANCH  26  29
HETATM   29  C   UNL     1      -0.368 -12.834   2.125  1.00  0.00     0.177 A 
HETATM   30  N   UNL     1       0.073 -13.255   0.897  1.00  0.00    -0.124 NA
HETATM   31  N   UNL     1      -0.871 -13.996   0.348  1.00  0.00    -0.058 NA
HETATM   32  N   UNL     1      -1.924 -14.097   1.214  1.00  0.00    -0.188 N 
HETATM   33  C   UNL     1      -1.647 -13.327   2.350  1.00  0.00     0.109 A 
BRANCH  32  34
HETATM   34  C   UNL     1      -3.050 -14.904   0.910  1.00  0.00     0.230 A 
HETATM   35  N   UNL     1      -4.029 -15.094   1.794  1.00  0.00    -0.081 NA
HETATM   36  O   UNL     1      -4.919 -15.944   1.142  1.00  0.00    -0.103 OA
HETATM   37  N   UNL     1      -4.468 -16.263  -0.135  1.00  0.00    -0.083 NA
HETATM   38  C   UNL     1      -3.312 -15.617  -0.276  1.00  0.00     0.201 A 
BRANCH  38  39
HETATM   39  N   UNL     1      -2.553 -15.657  -1.387  1.00  0.00    -0.379 N 
HETATM   40  H   UNL     1      -2.766 -16.333  -2.113  1.00  0.00     0.158 HD
HETATM   41  H   UNL     1      -1.601 -15.297  -1.401  1.00  0.00     0.158 HD
ENDBRANCH  38  39
ENDBRANCH  32  34
BRANCH  33  42
HETATM   42  C   UNL     1      -2.554 -13.110   3.472  1.00  0.00    -0.005 A 
HETATM   43  C   UNL     1      -2.302 -13.705   4.714  1.00  0.00     0.014 A 
HETATM   44  C   UNL     1      -3.169 -13.488   5.787  1.00  0.00     0.001 A 
HETATM   45  C   UNL     1      -4.290 -12.675   5.628  1.00  0.00     0.000 A 
HETATM   46  C   UNL     1      -4.543 -12.072   4.397  1.00  0.00     0.001 A 
HETATM   47  C   UNL     1      -3.676 -12.283   3.324  1.00  0.00     0.014 A 
ENDBRANCH  33  42
ENDBRANCH  26  29
ENDBRANCH   1  25
TORSDOF 9
