REMARK  2 active torsions:
REMARK  status: ('A' for Active; 'I' for Inactive)
REMARK    1  A    between atoms: C_8  and  S_9 
REMARK    2  A    between atoms: S_9  and  C_10 
ROOT
HETATM    1  C   UNL     1      -2.134  -0.168  -1.130  1.00  0.00     0.002 A 
HETATM    2  C   UNL     1      -0.989   0.620  -1.243  1.00  0.00     0.034 A 
HETATM    3  C   UNL     1       0.221   0.217  -0.693  1.00  0.00     0.087 A 
HETATM    4  C   UNL     1       0.290  -1.024  -0.007  1.00  0.00     0.087 A 
HETATM    5  N   UNL     1       1.440  -1.458   0.543  1.00  0.00    -0.232 NA
HETATM    6  C   UNL     1       2.531  -0.676   0.381  1.00  0.00     0.164 A 
HETATM    7 CL   UNL     1       3.923  -1.283   1.174  1.00  0.00    -0.059 Cl
HETATM    8  C   UNL     1       2.462   0.533  -0.287  1.00  0.00     0.165 A 
HETATM    9  N   UNL     1       1.305   1.011  -0.816  1.00  0.00    -0.234 NA
HETATM   10  C   UNL     1      -0.859  -1.797   0.101  1.00  0.00     0.034 A 
HETATM   11  C   UNL     1      -2.069  -1.380  -0.454  1.00  0.00     0.002 A 
ENDROOT
BRANCH   8  12
HETATM   12  S   UNL     1       3.768   1.712  -0.567  1.00  0.00     0.076 S 
HETATM   13  O   UNL     1       5.067   0.973  -0.637  1.00  0.00    -0.251 OA
BRANCH  12  14
HETATM   14  C   UNL     1       3.724   2.575   1.056  1.00  0.00     0.089 C 
HETATM   15  C   UNL     1       2.518   3.515   1.161  1.00  0.00     0.045 C 
HETATM   16  C   UNL     1       2.631   4.722   0.239  1.00  0.00     0.233 C 
HETATM   17  N   UNL     1       3.925   5.421   0.492  1.00  0.00    -0.075 N 
HETATM   18  H   UNL     1       3.919   5.840   1.433  1.00  0.00     0.277 HD
HETATM   19  H   UNL     1       4.001   6.221  -0.155  1.00  0.00     0.277 HD
HETATM   20  C   UNL     1       5.139   4.564   0.332  1.00  0.00     0.233 C 
HETATM   21  C   UNL     1       5.028   3.362   1.259  1.00  0.00     0.045 C 
ENDBRANCH  12  14
ENDBRANCH   8  12
TORSDOF 2
