REMARK  9 active torsions:
REMARK  status: ('A' for Active; 'I' for Inactive)
REMARK    1  A    between atoms: C_2  and  O_3 
REMARK    2  A    between atoms: O_3  and  C_4 
REMARK    3  A    between atoms: C_5  and  N_6 
REMARK       I    between atoms: N_6  and  C_7 
REMARK    4  A    between atoms: C_7  and  C_8 
REMARK    5  A    between atoms: C_11  and  N_12 
REMARK    6  A    between atoms: C_17  and  N_18 
REMARK       I    between atoms: N_18  and  C_19 
REMARK    7  A    between atoms: C_19  and  C_20 
REMARK    8  A    between atoms: C_23  and  N_24 
REMARK    9  A    between atoms: C_29  and  C_30 
REMARK       I    between atoms: C_30  and  N_31 
ROOT
HETATM    1  C   UNL     1       4.368   0.883  -0.143  1.00  0.00     0.111 A 
HETATM    2  C   UNL     1       4.568   2.274  -0.253  1.00  0.00     0.071 A 
HETATM    3  C   UNL     1       5.856   2.780  -0.478  1.00  0.00     0.062 A 
HETATM    4  C   UNL     1       6.939   1.903  -0.619  1.00  0.00     0.038 A 
HETATM    5  C   UNL     1       6.723   0.522  -0.518  1.00  0.00     0.049 A 
HETATM    6  C   UNL     1       5.439   0.001  -0.317  1.00  0.00     0.069 A 
ENDROOT
BRANCH   2   7
HETATM    7  N   UNL     1       3.404   3.083  -0.218  1.00  0.00    -0.320 N 
HETATM    8  C   UNL     1       3.330   4.436  -0.447  1.00  0.00     0.256 C 
HETATM    9  O   UNL     1       2.674   4.863  -1.395  1.00  0.00    -0.267 OA
HETATM   10  H   UNL     1       2.598   2.585  -0.587  1.00  0.00     0.169 HD
BRANCH   8  11
HETATM   11  C   UNL     1       3.826   5.375   0.604  1.00  0.00     0.032 A 
HETATM   12  C   UNL     1       3.741   6.750   0.354  1.00  0.00     0.019 A 
HETATM   13  C   UNL     1       4.013   7.676   1.367  1.00  0.00     0.024 A 
HETATM   14  C   UNL     1       4.417   7.250   2.634  1.00  0.00     0.005 A 
HETATM   15  C   UNL     1       4.470   5.877   2.891  1.00  0.00     0.024 A 
HETATM   16  C   UNL     1       4.195   4.944   1.883  1.00  0.00     0.019 A 
BRANCH  14  17
HETATM   17  N   UNL     1       4.515   8.167   3.686  1.00  0.00    -0.303 NA
HETATM   18  H   UNL     1       4.754   9.108   3.389  1.00  0.00     0.124 HD
HETATM   19  H   UNL     1       5.091   7.849   4.459  1.00  0.00     0.124 HD
ENDBRANCH  14  17
ENDBRANCH   8  11
ENDBRANCH   2   7
BRANCH   1  20
HETATM   20  O   UNL     1       3.081   0.443   0.078  1.00  0.00    -0.348 OA
BRANCH  20  21
HETATM   21  C   UNL     1       2.904  -0.031   1.425  1.00  0.00     0.171 C 
HETATM   22  C   UNL     1       2.214   1.024   2.271  1.00  0.00     0.034 C 
ENDBRANCH  20  21
ENDBRANCH   1  20
BRANCH   6  23
HETATM   23  C   UNL     1       5.305  -1.478  -0.364  1.00  0.00     0.252 C 
HETATM   24  N   UNL     1       4.111  -1.991  -0.782  1.00  0.00    -0.366 N 
HETATM   25  H   UNL     1       3.335  -1.402  -1.060  1.00  0.00     0.159 HD
HETATM   26  H   UNL     1       4.023  -2.994  -0.872  1.00  0.00     0.159 HD
HETATM   27  O   UNL     1       6.246  -2.212  -0.085  1.00  0.00    -0.268 OA
ENDBRANCH   6  23
BRANCH   4  28
HETATM   28  N   UNL     1       8.257   2.295  -0.943  1.00  0.00    -0.323 N 
HETATM   29  C   UNL     1       8.718   3.565  -1.235  1.00  0.00     0.256 C 
HETATM   30  O   UNL     1       8.094   4.607  -1.081  1.00  0.00    -0.267 OA
HETATM   31  H   UNL     1       8.930   1.542  -0.992  1.00  0.00     0.169 HD
BRANCH  29  32
HETATM   32  C   UNL     1      10.116   3.632  -1.776  1.00  0.00     0.032 A 
HETATM   33  C   UNL     1      10.720   2.558  -2.445  1.00  0.00     0.019 A 
HETATM   34  C   UNL     1      12.022   2.681  -2.947  1.00  0.00     0.024 A 
HETATM   35  C   UNL     1      12.749   3.860  -2.777  1.00  0.00     0.005 A 
HETATM   36  C   UNL     1      12.112   4.955  -2.187  1.00  0.00     0.024 A 
HETATM   37  C   UNL     1      10.815   4.839  -1.673  1.00  0.00     0.019 A 
BRANCH  35  38
HETATM   38  N   UNL     1      13.990   4.017  -3.401  1.00  0.00    -0.303 NA
HETATM   39  H   UNL     1      14.507   3.151  -3.522  1.00  0.00     0.124 HD
HETATM   40  H   UNL     1      14.564   4.754  -3.003  1.00  0.00     0.124 HD
ENDBRANCH  35  38
ENDBRANCH  29  32
ENDBRANCH   4  28
TORSDOF 9
