REMARK  7 active torsions:
REMARK  status: ('A' for Active; 'I' for Inactive)
REMARK    1  A    between atoms: C_2  and  C_3 
REMARK    2  A    between atoms: C_3  and  N_4 
REMARK    3  A    between atoms: C_3  and  C_22 
REMARK       I    between atoms: N_4  and  C_5 
REMARK       I    between atoms: C_5  and  N_6 
REMARK    4  A    between atoms: N_6  and  C_7 
REMARK    5  A    between atoms: C_7  and  C_8 
REMARK    6  A    between atoms: C_11  and  N_12 
REMARK       I    between atoms: N_12  and  C_13 
REMARK       I    between atoms: C_13  and  N_14 
REMARK    7  A    between atoms: N_14  and  C_15 
ROOT
HETATM    1  N   UNL     1       6.153   0.203  -1.070  1.00  0.00    -0.331 N 
HETATM    2  C   UNL     1       4.809   0.003  -1.171  1.00  0.00     0.317 C 
HETATM    3  N   UNL     1       4.185   1.080  -1.730  1.00  0.00    -0.339 N 
HETATM    4  O   UNL     1       4.236  -1.017  -0.812  1.00  0.00    -0.247 OA
HETATM    5  H   UNL     1       6.571   0.925  -1.643  1.00  0.00     0.165 HD
HETATM    6  H   UNL     1       4.632   1.972  -1.574  1.00  0.00     0.164 HD
ENDROOT
BRANCH   1   7
HETATM    7  C   UNL     1       7.063  -0.835  -0.619  1.00  0.00     0.159 C 
BRANCH   7   8
HETATM    8  C   UNL     1       7.228  -1.973  -1.662  1.00  0.00     0.008 C 
HETATM    9  C   UNL     1       8.063  -3.133  -1.109  1.00  0.00     0.012 C 
HETATM   10  C   UNL     1       7.802  -1.510  -3.006  1.00  0.00     0.012 C 
ENDBRANCH   7   8
BRANCH   7  11
HETATM   11  C   UNL     1       8.356  -0.143  -0.290  1.00  0.00     0.128 A 
HETATM   12  N   UNL     1       8.929   0.831  -0.976  1.00  0.00    -0.231 NA
HETATM   13  C   UNL     1      10.084   1.132  -0.297  1.00  0.00     0.085 A 
HETATM   14  C   UNL     1      10.213   0.340   0.838  1.00  0.00     0.062 A 
HETATM   15  C   UNL     1      11.078   2.075  -0.592  1.00  0.00     0.034 A 
HETATM   16  N   UNL     1       9.094  -0.452   0.828  1.00  0.00    -0.341 N 
HETATM   17  C   UNL     1      11.295   0.430   1.716  1.00  0.00     0.032 A 
HETATM   18  H   UNL     1       8.857  -1.149   1.518  1.00  0.00     0.167 HD
HETATM   19  C   UNL     1      12.279   1.376   1.405  1.00  0.00     0.002 A 
HETATM   20  C   UNL     1      12.176   2.186   0.271  1.00  0.00     0.002 A 
ENDBRANCH   7  11
ENDBRANCH   1   7
BRANCH   3  21
HETATM   21  C   UNL     1       2.751   1.088  -1.909  1.00  0.00     0.162 C 
BRANCH  21  22
HETATM   22  C   UNL     1       2.310   2.324  -2.649  1.00  0.00    -0.040 A 
HETATM   23  C   UNL     1       2.862   2.641  -3.898  1.00  0.00     0.011 A 
HETATM   24  C   UNL     1       2.502   3.817  -4.564  1.00  0.00     0.030 A 
HETATM   25  C   UNL     1       1.577   4.694  -4.000  1.00  0.00     0.036 A 
HETATM   26  C   UNL     1       0.982   4.354  -2.779  1.00  0.00     0.030 A 
HETATM   27  C   UNL     1       1.348   3.182  -2.106  1.00  0.00     0.011 A 
BRANCH  25  28
HETATM   28  N   UNL     1       1.206   5.923  -4.582  1.00  0.00    -0.309 N 
HETATM   29  C   UNL     1       1.833   6.574  -5.625  1.00  0.00     0.321 C 
HETATM   30  N   UNL     1       1.204   7.777  -5.885  1.00  0.00    -0.339 N 
HETATM   31  O   UNL     1       2.831   6.198  -6.223  1.00  0.00    -0.247 OA
HETATM   32  H   UNL     1       0.212   7.788  -5.706  1.00  0.00     0.164 HD
HETATM   33  H   UNL     1       0.553   6.486  -4.060  1.00  0.00     0.170 HD
BRANCH  30  34
HETATM   34  C   UNL     1       1.685   8.737  -6.874  1.00  0.00     0.078 C 
HETATM   35  C   UNL     1       3.095   9.237  -6.566  1.00  0.00     0.032 C 
HETATM   36  C   UNL     1       1.572   8.208  -8.301  1.00  0.00     0.032 C 
ENDBRANCH  30  34
ENDBRANCH  25  28
ENDBRANCH  21  22
ENDBRANCH   3  21
TORSDOF 7
