REMARK  9 active torsions:
REMARK  status: ('A' for Active; 'I' for Inactive)
REMARK    1  A    between atoms: C_6  and  C_7 
REMARK    2  A    between atoms: C_7  and  C_8 
REMARK       I    between atoms: C_8  and  N_9 
REMARK    3  A    between atoms: N_9  and  C_10 
REMARK    4  A    between atoms: C_10  and  C_11 
REMARK    5  A    between atoms: C_11  and  N_12 
REMARK    6  A    between atoms: C_19  and  C_20 
REMARK    7  A    between atoms: C_29  and  C_30 
REMARK    8  A    between atoms: C_30  and  O_31 
REMARK    9  A    between atoms: O_31  and  C_32 
ROOT
HETATM    1  C   UNL     1       2.075   1.250   0.204  1.00  0.00     0.071 C 
HETATM    2  C   UNL     1       3.265   0.318   0.220  1.00  0.00     0.048 C 
HETATM    3  N   UNL     1       4.296   0.742   1.076  1.00  0.00    -0.229 NA
HETATM    4  C   UNL     1       4.949  -0.203   1.677  1.00  0.00     0.170 C 
HETATM    5  N   UNL     1       4.797  -1.703   1.255  1.00  0.00    -0.318 N 
HETATM    6  C   UNL     1       4.511  -2.363   2.333  1.00  0.00     0.011 C 
HETATM    7  C   UNL     1       4.555  -1.698  -0.200  1.00  0.00     0.168 C 
HETATM    8  S   UNL     1       5.722  -0.080   3.211  1.00  0.00    -0.086 SA
HETATM    9  C   UNL     1       5.094  -1.766   3.609  1.00  0.00     0.135 C 
HETATM   10  C   UNL     1       3.272  -0.922  -0.341  1.00  0.00     0.069 C 
ENDROOT
BRANCH   6  11
HETATM   11  C   UNL     1       3.488  -3.459   2.293  1.00  0.00     0.156 C 
BRANCH  11  12
HETATM   12  C   UNL     1       3.155  -4.062   3.635  1.00  0.00     0.223 C 
HETATM   13  N   UNL     1       1.888  -3.797   4.108  1.00  0.00    -0.359 N 
HETATM   14  H   UNL     1       1.228  -3.262   3.548  1.00  0.00     0.162 HD
HETATM   15  O   UNL     1       3.978  -4.708   4.271  1.00  0.00    -0.273 OA
BRANCH  13  16
HETATM   16  C   UNL     1       1.412  -4.361   5.368  1.00  0.00     0.150 C 
BRANCH  16  17
HETATM   17  C   UNL     1       0.692  -5.706   5.161  1.00  0.00     0.254 C 
BRANCH  17  18
HETATM   18  N   UNL     1       0.284  -6.350   6.466  1.00  0.00    -0.070 N 
HETATM   19  H   UNL     1      -0.100  -5.630   7.094  1.00  0.00     0.279 HD
HETATM   20  C   UNL     1       1.426  -7.041   7.203  1.00  0.00     0.235 C 
HETATM   21  C   UNL     1       1.133  -8.518   7.048  1.00  0.00     0.029 C 
HETATM   22  C   UNL     1      -0.377  -8.573   7.130  1.00  0.00     0.029 C 
HETATM   23  C   UNL     1      -0.812  -7.399   6.278  1.00  0.00     0.235 C 
ENDBRANCH  17  18
ENDBRANCH  16  17
ENDBRANCH  13  16
ENDBRANCH  11  12
ENDBRANCH   6  11
BRANCH   7  24
HETATM   24  C   UNL     1       4.917  -2.863  -1.115  1.00  0.00    -0.009 A 
HETATM   25  C   UNL     1       5.707  -3.987  -0.803  1.00  0.00     0.042 A 
HETATM   26 CL   UNL     1       6.450  -4.241   0.734  1.00  0.00    -0.084 Cl
HETATM   27  C   UNL     1       6.029  -4.945  -1.779  1.00  0.00     0.024 A 
HETATM   28  C   UNL     1       5.641  -4.777  -3.104  1.00  0.00     0.002 A 
HETATM   29  C   UNL     1       4.949  -3.634  -3.467  1.00  0.00     0.001 A 
HETATM   30  C   UNL     1       4.610  -2.692  -2.494  1.00  0.00     0.011 A 
ENDBRANCH   7  24
BRANCH  10  31
HETATM   31  C   UNL     1       1.982  -1.647  -0.457  1.00  0.00     0.294 C 
HETATM   32  O   UNL     1       1.122  -1.551   0.408  1.00  0.00    -0.259 OA
BRANCH  31  33
HETATM   33  O   UNL     1       2.027  -2.581  -1.421  1.00  0.00    -0.313 OA
BRANCH  33  34
HETATM   34  C   UNL     1       0.989  -3.587  -1.429  1.00  0.00     0.124 C 
HETATM   35  C   UNL     1      -0.060  -3.207  -2.460  1.00  0.00     0.040 C 
HETATM   36  C   UNL     1       1.646  -4.920  -1.769  1.00  0.00     0.040 C 
ENDBRANCH  33  34
ENDBRANCH  31  33
ENDBRANCH  10  31
TORSDOF 9
