REMARK  7 active torsions:
REMARK  status: ('A' for Active; 'I' for Inactive)
REMARK    1  A    between atoms: C_6  and  N_7 
REMARK       I    between atoms: N_7  and  C_8 
REMARK    2  A    between atoms: C_8  and  C_9 
REMARK    3  A    between atoms: C_9  and  O_10 
REMARK    4  A    between atoms: O_10  and  C_11 
REMARK    5  A    between atoms: C_11  and  C_12 
REMARK       I    between atoms: C_12  and  N_13 
REMARK    6  A    between atoms: N_13  and  N_14 
REMARK       I    between atoms: N_14  and  C_15 
REMARK    7  A    between atoms: C_15  and  C_16 
ROOT
HETATM    1  C   UNL     1       3.530   3.432   1.423  1.00  0.00     0.259 C 
HETATM    2  N   UNL     1       2.921   2.333   0.856  1.00  0.00    -0.265 N 
HETATM    3  O   UNL     1       3.057   4.037   2.384  1.00  0.00    -0.269 OA
HETATM    4  H   UNL     1       3.316   1.832   0.060  1.00  0.00     0.190 HD
ENDROOT
BRANCH   1   5
HETATM    5  C   UNL     1       4.802   3.877   0.704  1.00  0.00     0.272 C 
BRANCH   5   6
HETATM    6  O   UNL     1       5.489   2.770   0.117  1.00  0.00    -0.373 OA
BRANCH   6   7
HETATM    7  C   UNL     1       6.529   3.186  -0.764  1.00  0.00     0.271 C 
BRANCH   7   8
HETATM    8  C   UNL     1       7.844   3.604  -0.090  1.00  0.00     0.245 C 
HETATM    9  N   UNL     1       8.054   2.945   1.108  1.00  0.00    -0.325 N 
HETATM   10  H   UNL     1       7.283   2.361   1.422  1.00  0.00     0.169 HD
HETATM   11  O   UNL     1       8.596   4.409  -0.630  1.00  0.00    -0.271 OA
BRANCH   9  12
HETATM   12  C   UNL     1       9.194   3.001   1.935  1.00  0.00     0.036 A 
HETATM   13  C   UNL     1      10.361   3.694   1.610  1.00  0.00     0.053 A 
HETATM   14  C   UNL     1      11.464   3.673   2.473  1.00  0.00     0.042 A 
HETATM   15  C   UNL     1      11.419   2.966   3.683  1.00  0.00    -0.040 A 
HETATM   16 CL   UNL     1      12.883   4.537   1.992  1.00  0.00    -0.084 Cl
HETATM   17  C   UNL     1      12.593   2.916   4.621  1.00  0.00     0.050 C 
HETATM   18  C   UNL     1      10.243   2.279   4.008  1.00  0.00     0.011 A 
HETATM   19  C   UNL     1       9.144   2.295   3.142  1.00  0.00     0.030 A 
ENDBRANCH   9  12
ENDBRANCH   7   8
ENDBRANCH   6   7
ENDBRANCH   5   6
ENDBRANCH   1   5
BRANCH   2  20
HETATM   20  N   UNL     1       1.701   1.894   1.374  1.00  0.00    -0.262 N 
HETATM   21  C   UNL     1       0.943   0.997   0.650  1.00  0.00     0.286 C 
HETATM   22  O   UNL     1       1.349   0.499  -0.400  1.00  0.00    -0.264 OA
HETATM   23  H   UNL     1       1.348   2.389   2.188  1.00  0.00     0.190 HD
BRANCH  21  24
HETATM   24  C   UNL     1      -0.352   0.682   1.211  1.00  0.00     0.103 A 
HETATM   25  N   UNL     1      -1.206  -0.209   0.595  1.00  0.00    -0.351 N 
HETATM   26  H   UNL     1      -0.990  -0.686  -0.271  1.00  0.00     0.166 HD
HETATM   27  C   UNL     1      -2.367  -0.363   1.314  1.00  0.00     0.043 A 
HETATM   28  C   UNL     1      -2.266   0.465   2.429  1.00  0.00    -0.007 A 
HETATM   29  C   UNL     1      -3.487  -1.165   1.067  1.00  0.00     0.030 A 
HETATM   30  C   UNL     1      -1.003   1.117   2.354  1.00  0.00     0.049 A 
HETATM   31  C   UNL     1      -3.333   0.501   3.347  1.00  0.00     0.014 A 
HETATM   32  C   UNL     1      -4.461  -0.295   3.117  1.00  0.00     0.001 A 
HETATM   33  C   UNL     1      -4.534  -1.115   1.993  1.00  0.00     0.002 A 
ENDBRANCH  21  24
ENDBRANCH   2  20
TORSDOF 7
