REMARK  11 active torsions:
REMARK  status: ('A' for Active; 'I' for Inactive)
REMARK    1  A    between atoms: N_13  and  C_14 
REMARK    2  A    between atoms: C_14  and  C_15 
REMARK    3  A    between atoms: N_20  and  C_21 
REMARK    4  A    between atoms: C_21  and  C_22 
REMARK    5  A    between atoms: C_22  and  O_23 
REMARK    6  A    between atoms: C_22  and  C_24 
REMARK    7  A    between atoms: C_24  and  N_25 
REMARK    8  A    between atoms: N_25  and  C_27 
REMARK    9  A    between atoms: N_25  and  C_34 
REMARK   10  A    between atoms: C_27  and  C_28 
REMARK   11  A    between atoms: C_34  and  C_35 
ROOT
HETATM    1  C   UNL     1       1.248  -0.853  -2.143  1.00  0.00     0.163 C 
HETATM    2  N   UNL     1       2.633  -1.061  -2.535  1.00  0.00    -0.285 N 
HETATM    3  C   UNL     1       3.068  -0.700  -3.812  1.00  0.00     0.332 A 
HETATM    4  O   UNL     1       2.302  -0.208  -4.644  1.00  0.00    -0.246 OA
HETATM    5  N   UNL     1       4.430  -0.919  -4.108  1.00  0.00    -0.269 N 
HETATM    6  C   UNL     1       4.909  -0.551  -5.428  1.00  0.00     0.164 C 
HETATM    7  C   UNL     1       5.371  -1.463  -3.233  1.00  0.00     0.282 A 
HETATM    8  O   UNL     1       6.560  -1.621  -3.501  1.00  0.00    -0.265 OA
HETATM    9  C   UNL     1       4.833  -1.804  -1.964  1.00  0.00     0.166 A 
HETATM   10  C   UNL     1       3.525  -1.611  -1.647  1.00  0.00     0.186 A 
HETATM   11  N   UNL     1       3.252  -2.004  -0.377  1.00  0.00    -0.044 NA
HETATM   12  C   UNL     1       4.389  -2.461   0.101  1.00  0.00     0.705 A 
HETATM   13  N   UNL     1       4.604  -2.972   1.326  1.00  0.00    -0.218 N 
HETATM   14  N   UNL     1       5.404  -2.318  -0.827  1.00  0.00    -0.170 N 
HETATM   15  H   UNL     1       5.385  -3.588   1.530  1.00  0.00     0.178 HD
ENDROOT
BRANCH  14  16
HETATM   16  C   UNL     1       6.824  -2.565  -0.616  1.00  0.00     0.181 C 
BRANCH  16  17
HETATM   17  C   UNL     1       7.620  -1.266  -0.418  1.00  0.00     0.163 C 
BRANCH  17  18
HETATM   18  O   UNL     1       7.167  -0.577   0.757  1.00  0.00    -0.392 OA
HETATM   19  H   UNL     1       6.198  -0.449   0.725  1.00  0.00     0.210 HD
ENDBRANCH  17  18
BRANCH  17  20
HETATM   20  C   UNL     1       9.134  -1.486  -0.193  1.00  0.00     0.268 C 
BRANCH  20  21
HETATM   21  N   UNL     1       9.877  -2.334  -1.204  1.00  0.00    -0.061 N 
HETATM   22  H   UNL     1       9.442  -3.261  -1.210  1.00  0.00     0.280 HD
BRANCH  21  23
HETATM   23  C   UNL     1       9.829  -1.837  -2.639  1.00  0.00     0.273 C 
BRANCH  23  24
HETATM   24  C   UNL     1      10.489  -0.513  -2.914  1.00  0.00    -0.033 A 
HETATM   25  C   UNL     1      11.854  -0.445  -3.237  1.00  0.00     0.009 A 
HETATM   26  C   UNL     1      12.468   0.786  -3.475  1.00  0.00     0.001 A 
HETATM   27  C   UNL     1      11.727   1.961  -3.403  1.00  0.00     0.000 A 
HETATM   28  C   UNL     1      10.369   1.909  -3.106  1.00  0.00     0.001 A 
HETATM   29  C   UNL     1       9.751   0.680  -2.868  1.00  0.00     0.009 A 
ENDBRANCH  23  24
ENDBRANCH  21  23
BRANCH  21  30
HETATM   30  C   UNL     1      11.312  -2.591  -0.763  1.00  0.00     0.273 C 
BRANCH  30  31
HETATM   31  C   UNL     1      11.424  -3.388   0.510  1.00  0.00    -0.033 A 
HETATM   32  C   UNL     1      11.088  -4.751   0.543  1.00  0.00     0.009 A 
HETATM   33  C   UNL     1      11.174  -5.467   1.738  1.00  0.00     0.001 A 
HETATM   34  C   UNL     1      11.596  -4.836   2.906  1.00  0.00     0.000 A 
HETATM   35  C   UNL     1      11.939  -3.487   2.884  1.00  0.00     0.001 A 
HETATM   36  C   UNL     1      11.856  -2.766   1.693  1.00  0.00     0.009 A 
ENDBRANCH  30  31
ENDBRANCH  21  30
ENDBRANCH  20  21
ENDBRANCH  17  20
ENDBRANCH  16  17
ENDBRANCH  14  16
BRANCH  13  37
HETATM   37  C   UNL     1       3.441  -3.361   2.124  1.00  0.00     0.203 C 
BRANCH  37  38
HETATM   38  C   UNL     1       3.773  -4.315   3.228  1.00  0.00     0.070 A 
HETATM   39  O   UNL     1       5.038  -4.842   3.238  1.00  0.00    -0.325 OA
HETATM   40  C   UNL     1       5.107  -5.683   4.302  1.00  0.00     0.142 A 
HETATM   41  C   UNL     1       3.907  -5.713   4.972  1.00  0.00     0.027 A 
HETATM   42  C   UNL     1       3.044  -4.830   4.280  1.00  0.00     0.036 A 
ENDBRANCH  37  38
ENDBRANCH  13  37
TORSDOF 11
