REMARK  4 active torsions:
REMARK  status: ('A' for Active; 'I' for Inactive)
REMARK    1  A    between atoms: C_2  and  C_3 
REMARK    2  A    between atoms: C_5  and  C_6 
REMARK       I    between atoms: C_6  and  N_7 
REMARK    3  A    between atoms: N_7  and  C_8 
REMARK    4  A    between atoms: C_10  and  C_11 
ROOT
HETATM    1  C   UNL     1       4.629   1.314   4.132  1.00  0.00     0.035 A 
HETATM    2  C   UNL     1       4.827   1.324   2.747  1.00  0.00     0.042 A 
HETATM    3  C   UNL     1       4.958   2.533   2.040  1.00  0.00    -0.021 A 
HETATM    4  C   UNL     1       4.881   3.739   2.748  1.00  0.00     0.012 A 
HETATM    5  C   UNL     1       4.687   3.739   4.130  1.00  0.00     0.003 A 
HETATM    6  C   UNL     1       4.568   2.532   4.817  1.00  0.00     0.029 A 
ENDROOT
BRANCH   1   7
HETATM    7  N   UNL     1       4.505   0.141   4.900  1.00  0.00    -0.321 N 
HETATM    8  C   UNL     1       4.420  -1.171   4.466  1.00  0.00     0.280 C 
HETATM    9  O   UNL     1       4.396  -1.529   3.292  1.00  0.00    -0.265 OA
HETATM   10  H   UNL     1       4.447   0.251   5.907  1.00  0.00     0.169 HD
BRANCH   8  11
HETATM   11  C   UNL     1       4.342  -2.116   5.572  1.00  0.00     0.149 A 
HETATM   12  O   UNL     1       4.496  -1.642   6.852  1.00  0.00    -0.309 OA
HETATM   13  C   UNL     1       4.421  -2.708   7.694  1.00  0.00     0.054 A 
HETATM   14  C   UNL     1       4.197  -3.861   6.977  1.00  0.00     0.042 A 
HETATM   15  C   UNL     1       4.141  -3.488   5.605  1.00  0.00    -0.020 A 
HETATM   16  C   UNL     1       3.921  -4.392   4.448  1.00  0.00     0.051 C 
BRANCH  13  17
HETATM   17  C   UNL     1       4.597  -2.426   9.140  1.00  0.00     0.060 C 
HETATM   18  C   UNL     1       3.262  -2.271   9.848  1.00  0.00     0.012 C 
ENDBRANCH  13  17
ENDBRANCH   8  11
ENDBRANCH   1   7
BRANCH   3  19
HETATM   19  C   UNL     1       5.187   2.545   0.603  1.00  0.00     0.010 A 
HETATM   20  C   UNL     1       5.763   3.530  -0.236  1.00  0.00     0.152 A 
HETATM   21  N   UNL     1       5.795   3.167  -1.521  1.00  0.00    -0.187 NA
HETATM   22  N   UNL     1       5.243   1.944  -1.513  1.00  0.00    -0.289 N 
HETATM   23  H   UNL     1       5.158   1.447  -2.394  1.00  0.00     0.188 HD
HETATM   24  C   UNL     1       4.858   1.529  -0.271  1.00  0.00     0.123 A 
ENDBRANCH   3  19
TORSDOF 4
