REMARK  4 active torsions:
REMARK  status: ('A' for Active; 'I' for Inactive)
REMARK    1  A    between atoms: C_9  and  C_10 
REMARK       I    between atoms: C_10  and  N_11 
REMARK    2  A    between atoms: N_11  and  C_12 
REMARK    3  A    between atoms: C_15  and  N_16 
REMARK       I    between atoms: N_16  and  C_17 
REMARK       I    between atoms: C_17  and  N_18 
REMARK    4  A    between atoms: N_18  and  C_19 
ROOT
HETATM    1  C   UNL     1       7.788   4.308  -0.115  1.00  0.00     0.035 A 
HETATM    2  C   UNL     1       8.733   5.119  -0.741  1.00  0.00     0.032 A 
HETATM    3  C   UNL     1      10.054   4.683  -0.900  1.00  0.00     0.032 A 
HETATM    4  C   UNL     1      10.452   3.430  -0.436  1.00  0.00     0.036 A 
HETATM    5  C   UNL     1       9.523   2.646   0.256  1.00  0.00     0.032 A 
HETATM    6  C   UNL     1       8.200   3.079   0.409  1.00  0.00     0.032 A 
ENDROOT
BRANCH   1   7
HETATM    7  N   UNL     1       6.422   4.623  -0.028  1.00  0.00    -0.322 N 
HETATM    8  C   UNL     1       5.763   5.712  -0.569  1.00  0.00     0.277 C 
HETATM    9  O   UNL     1       6.284   6.700  -1.074  1.00  0.00    -0.266 OA
HETATM   10  H   UNL     1       5.792   3.931   0.370  1.00  0.00     0.169 HD
BRANCH   8  11
HETATM   11  C   UNL     1       4.298   5.546  -0.513  1.00  0.00     0.157 A 
HETATM   12  C   UNL     1       3.315   6.383  -1.118  1.00  0.00     0.029 A 
HETATM   13  C   UNL     1       3.322   7.565  -1.885  1.00  0.00     0.023 A 
HETATM   14  C   UNL     1       2.099   5.771  -0.841  1.00  0.00     0.063 A 
HETATM   15  C   UNL     1       2.109   8.097  -2.351  1.00  0.00    -0.061 A 
HETATM   16  C   UNL     1       2.098   9.345  -3.184  1.00  0.00     0.048 C 
HETATM   17  C   UNL     1       0.905   7.445  -2.054  1.00  0.00     0.009 A 
HETATM   18  C   UNL     1       0.874   6.271  -1.290  1.00  0.00     0.032 A 
HETATM   19  N   UNL     1       2.412   4.666  -0.100  1.00  0.00    -0.277 N 
HETATM   20  H   UNL     1       1.768   3.982   0.279  1.00  0.00     0.189 HD
HETATM   21  N   UNL     1       3.730   4.488   0.111  1.00  0.00    -0.168 NA
ENDBRANCH   8  11
ENDBRANCH   1   7
BRANCH   4  22
HETATM   22  N   UNL     1      11.741   2.896  -0.638  1.00  0.00    -0.309 N 
HETATM   23  C   UNL     1      12.683   3.345  -1.546  1.00  0.00     0.321 C 
HETATM   24  N   UNL     1      13.831   2.568  -1.487  1.00  0.00    -0.338 N 
HETATM   25  O   UNL     1      12.547   4.265  -2.343  1.00  0.00    -0.247 OA
HETATM   26  H   UNL     1      14.027   2.128  -0.600  1.00  0.00     0.164 HD
HETATM   27  H   UNL     1      11.905   1.970  -0.273  1.00  0.00     0.170 HD
BRANCH  24  28
HETATM   28  C   UNL     1      14.932   2.768  -2.381  1.00  0.00     0.086 A 
HETATM   29  C   UNL     1      16.350   2.577  -1.920  1.00  0.00     0.027 A 
HETATM   30  C   UNL     1      15.730   1.585  -2.860  1.00  0.00     0.027 A 
ENDBRANCH  24  28
ENDBRANCH   4  22
TORSDOF 4
