REMARK  7 active torsions:
REMARK  status: ('A' for Active; 'I' for Inactive)
REMARK       I    between atoms: N_2  and  C_3 
REMARK    1  A    between atoms: C_3  and  C_4 
REMARK    2  A    between atoms: C_4  and  C_5 
REMARK    3  A    between atoms: C_5  and  O_6 
REMARK    4  A    between atoms: O_6  and  C_7 
REMARK    5  A    between atoms: C_10  and  N_11 
REMARK       I    between atoms: N_11  and  C_12 
REMARK    6  A    between atoms: C_12  and  C_13 
REMARK    7  A    between atoms: C_15  and  C_16 
ROOT
HETATM    1  N   UNL     1      -5.310   2.021   2.768  1.00  0.00    -0.323 N 
HETATM    2  C   UNL     1      -6.280   1.179   2.253  1.00  0.00     0.256 C 
HETATM    3  O   UNL     1      -6.102   0.065   1.774  1.00  0.00    -0.267 OA
HETATM    4  H   UNL     1      -5.599   2.953   3.030  1.00  0.00     0.169 HD
ENDROOT
BRANCH   1   5
HETATM    5  C   UNL     1      -3.930   1.754   2.901  1.00  0.00     0.035 A 
HETATM    6  C   UNL     1      -3.329   0.547   2.544  1.00  0.00     0.032 A 
HETATM    7  C   UNL     1      -1.948   0.358   2.702  1.00  0.00     0.039 A 
HETATM    8  C   UNL     1      -1.154   1.374   3.226  1.00  0.00     0.068 A 
HETATM    9  C   UNL     1      -1.752   2.580   3.593  1.00  0.00     0.039 A 
HETATM   10  C   UNL     1      -3.128   2.771   3.429  1.00  0.00     0.032 A 
BRANCH   8  11
HETATM   11  O   UNL     1       0.195   1.315   3.438  1.00  0.00    -0.351 OA
BRANCH  11  12
HETATM   12  C   UNL     1       0.881   0.159   2.941  1.00  0.00     0.185 C 
BRANCH  12  13
HETATM   13  C   UNL     1       2.367   0.329   3.222  1.00  0.00     0.129 C 
BRANCH  13  14
HETATM   14  C   UNL     1       2.697   0.007   4.664  1.00  0.00     0.219 C 
HETATM   15  N   UNL     1       2.052   0.797   5.587  1.00  0.00    -0.365 N 
HETATM   16  C   UNL     1       2.198   0.562   6.999  1.00  0.00     0.149 C 
HETATM   17  H   UNL     1       1.269   1.359   5.264  1.00  0.00     0.161 HD
HETATM   18  O   UNL     1       3.504  -0.867   4.966  1.00  0.00    -0.274 OA
ENDBRANCH  13  14
ENDBRANCH  12  13
ENDBRANCH  11  12
ENDBRANCH   8  11
ENDBRANCH   1   5
BRANCH   2  19
HETATM   19  C   UNL     1      -7.669   1.723   2.263  1.00  0.00     0.033 A 
HETATM   20  C   UNL     1      -8.540   1.323   1.238  1.00  0.00     0.029 A 
HETATM   21  C   UNL     1      -9.861   1.790   1.197  1.00  0.00    -0.023 A 
HETATM   22  C   UNL     1     -10.296   2.668   2.198  1.00  0.00     0.012 A 
HETATM   23  C   UNL     1      -9.438   3.056   3.231  1.00  0.00     0.002 A 
HETATM   24  C   UNL     1      -8.128   2.579   3.270  1.00  0.00     0.017 A 
BRANCH  21  25
HETATM   25  C   UNL     1     -10.772   1.379   0.140  1.00  0.00    -0.002 A 
HETATM   26  C   UNL     1     -10.733   0.152  -0.494  1.00  0.00     0.153 A 
HETATM   27  O   UNL     1     -11.717   0.056  -1.426  1.00  0.00    -0.334 OA
HETATM   28  C   UNL     1     -12.404   1.225  -1.393  1.00  0.00     0.142 A 
HETATM   29  C   UNL     1     -11.871   2.069  -0.447  1.00  0.00     0.038 A 
ENDBRANCH  21  25
ENDBRANCH   2  19
TORSDOF 7
