REMARK  6 active torsions:
REMARK  status: ('A' for Active; 'I' for Inactive)
REMARK    1  A    between atoms: C_3  and  C_4 
REMARK       I    between atoms: C_4  and  N_5 
REMARK    2  A    between atoms: N_5  and  C_6 
REMARK    3  A    between atoms: C_6  and  C_7 
REMARK    4  A    between atoms: C_7  and  N_8 
REMARK    5  A    between atoms: C_7  and  C_14 
REMARK    6  A    between atoms: C_21  and  C_22 
ROOT
HETATM    1  C   UNL     1       2.826   1.935  -0.229  1.00  0.00     0.272 C 
HETATM    2  N   UNL     1       1.703   2.475   0.369  1.00  0.00    -0.354 N 
HETATM    3  O   UNL     1       2.813   0.858  -0.814  1.00  0.00    -0.266 OA
HETATM    4  H   UNL     1       1.914   3.297   0.936  1.00  0.00     0.162 HD
ENDROOT
BRANCH   1   5
HETATM    5  C   UNL     1       4.003   2.815  -0.124  1.00  0.00     0.152 A 
HETATM    6  C   UNL     1       5.364   2.514  -0.429  1.00  0.00     0.003 A 
HETATM    7  C   UNL     1       5.907   1.205  -0.882  1.00  0.00     0.053 C 
HETATM    8  C   UNL     1       6.055   3.694  -0.193  1.00  0.00     0.069 A 
HETATM    9  N   UNL     1       5.111   4.582   0.251  1.00  0.00    -0.276 N 
HETATM   10  N   UNL     1       3.862   4.086   0.310  1.00  0.00    -0.168 NA
HETATM   11  H   UNL     1       5.265   5.551   0.514  1.00  0.00     0.189 HD
BRANCH   8  12
HETATM   12  C   UNL     1       7.460   4.063  -0.350  1.00  0.00    -0.007 A 
HETATM   13  C   UNL     1       8.133   4.767   0.659  1.00  0.00     0.014 A 
HETATM   14  C   UNL     1       9.472   5.132   0.496  1.00  0.00     0.001 A 
HETATM   15  C   UNL     1      10.151   4.797  -0.673  1.00  0.00     0.000 A 
HETATM   16  C   UNL     1       9.493   4.096  -1.681  1.00  0.00     0.001 A 
HETATM   17  C   UNL     1       8.154   3.733  -1.521  1.00  0.00     0.014 A 
ENDBRANCH   8  12
ENDBRANCH   1   5
BRANCH   2  18
HETATM   18  C   UNL     1       0.490   1.718   0.575  1.00  0.00     0.156 C 
BRANCH  18  19
HETATM   19  C   UNL     1      -0.826   2.449   0.169  1.00  0.00     0.209 C 
BRANCH  19  20
HETATM   20  N   UNL     1      -0.787   3.028  -1.256  1.00  0.00    -0.065 N 
HETATM   21  H   UNL     1      -1.752   3.282  -1.489  1.00  0.00     0.280 HD
HETATM   22  C   UNL     1      -0.350   2.104  -2.381  1.00  0.00     0.235 C 
HETATM   23  C   UNL     1       0.729   2.871  -3.124  1.00  0.00     0.029 C 
HETATM   24  C   UNL     1       0.390   4.326  -2.877  1.00  0.00     0.029 C 
HETATM   25  C   UNL     1      -0.046   4.342  -1.426  1.00  0.00     0.235 C 
ENDBRANCH  19  20
BRANCH  19  26
HETATM   26  C   UNL     1      -2.076   1.525   0.317  1.00  0.00     0.010 C 
HETATM   27  C   UNL     1      -2.144   0.870   1.705  1.00  0.00     0.011 C 
HETATM   28  C   UNL     1      -3.399   2.267   0.078  1.00  0.00     0.011 C 
ENDBRANCH  19  26
ENDBRANCH  18  19
ENDBRANCH   2  18
TORSDOF 6
