REMARK  3 active torsions:
REMARK  status: ('A' for Active; 'I' for Inactive)
REMARK    1  A    between atoms: C_9  and  C_10 
REMARK    2  A    between atoms: C_16  and  C_17 
REMARK       I    between atoms: C_17  and  N_18 
REMARK    3  A    between atoms: N_18  and  C_19 
ROOT
HETATM    1  C   UNL     1       1.151   0.027  -0.365  1.00  0.00     0.070 C 
HETATM    2  C   UNL     1       2.578  -0.002   0.120  1.00  0.00     0.037 A 
HETATM    3  N   UNL     1       3.156   1.239   0.370  1.00  0.00    -0.191 N 
HETATM    4  C   UNL     1       4.466   1.394   0.650  1.00  0.00     0.735 A 
HETATM    5  N   UNL     1       5.255   0.288   0.800  1.00  0.00    -0.091 N 
HETATM    6  N   UNL     1       6.542   0.653   0.933  1.00  0.00     0.012 NA
HETATM    7  N   UNL     1       6.511   1.982   0.950  1.00  0.00     0.033 NA
HETATM    8  N   UNL     1       5.225   2.457   0.770  1.00  0.00     0.030 NA
HETATM    9  C   UNL     1       4.792  -1.086   0.665  1.00  0.00     0.216 A 
HETATM   10  C   UNL     1       3.320  -1.128   0.267  1.00  0.00     0.063 A 
HETATM   11  H   UNL     1       2.592   2.067   0.195  1.00  0.00     0.184 HD
ENDROOT
BRANCH  10  12
HETATM   12  C   UNL     1       2.824  -2.501  -0.004  1.00  0.00     0.256 C 
HETATM   13  N   UNL     1       1.710  -2.832   0.732  1.00  0.00    -0.323 N 
HETATM   14  H   UNL     1       1.396  -2.148   1.410  1.00  0.00     0.169 HD
HETATM   15  O   UNL     1       3.447  -3.201  -0.792  1.00  0.00    -0.267 OA
BRANCH  13  16
HETATM   16  C   UNL     1       0.962  -4.025   0.667  1.00  0.00     0.035 A 
HETATM   17  C   UNL     1       1.302  -5.115  -0.136  1.00  0.00     0.029 A 
HETATM   18  C   UNL     1       0.496  -6.259  -0.155  1.00  0.00     0.002 A 
HETATM   19  C   UNL     1      -0.659  -6.318   0.621  1.00  0.00     0.000 A 
HETATM   20  C   UNL     1      -1.007  -5.236   1.424  1.00  0.00     0.002 A 
HETATM   21  C   UNL     1      -0.197  -4.097   1.451  1.00  0.00     0.029 A 
ENDBRANCH  13  16
ENDBRANCH  10  12
BRANCH   9  22
HETATM   22  C   UNL     1       5.070  -1.830   1.966  1.00  0.00     0.064 A 
HETATM   23  N   UNL     1       4.143  -1.754   2.961  1.00  0.00    -0.263 NA
HETATM   24  C   UNL     1       4.421  -2.395   4.119  1.00  0.00     0.117 A 
HETATM   25  C   UNL     1       5.579  -3.118   4.343  1.00  0.00     0.019 A 
HETATM   26  C   UNL     1       6.516  -3.190   3.321  1.00  0.00     0.003 A 
HETATM   27  C   UNL     1       6.264  -2.539   2.117  1.00  0.00     0.030 A 
ENDBRANCH   9  22
TORSDOF 3
