REMARK  9 active torsions:
REMARK  status: ('A' for Active; 'I' for Inactive)
REMARK    1  A    between atoms: C_4  and  C_5 
REMARK    2  A    between atoms: C_13  and  C_14 
REMARK    3  A    between atoms: C_14  and  N_15 
REMARK    4  A    between atoms: C_19  and  C_20 
REMARK       I    between atoms: C_20  and  N_21 
REMARK    5  A    between atoms: N_21  and  C_22 
REMARK    6  A    between atoms: C_22  and  C_23 
REMARK    7  A    between atoms: C_23  and  C_24 
REMARK    8  A    between atoms: C_24  and  N_25 
REMARK    9  A    between atoms: N_29  and  C_30 
ROOT
HETATM    1  N   UNL     1       1.606  -2.741   0.058  1.00  0.00    -0.066 N 
HETATM    2  H   UNL     1       1.175  -3.098  -0.809  1.00  0.00     0.280 HD
HETATM    3  C   UNL     1       1.522  -3.854   1.072  1.00  0.00     0.236 C 
HETATM    4  C   UNL     1       0.073  -4.083   1.496  1.00  0.00     0.042 C 
HETATM    5  C   UNL     1      -0.570  -2.810   2.048  1.00  0.00     0.081 C 
HETATM    6  C   UNL     1      -0.471  -1.694   1.008  1.00  0.00     0.042 C 
HETATM    7  C   UNL     1       0.936  -1.460   0.476  1.00  0.00     0.236 C 
ENDROOT
BRANCH   5   8
HETATM    8  C   UNL     1       0.106  -2.448   3.370  1.00  0.00     0.221 C 
HETATM    9  N   UNL     1      -0.426  -3.067   4.478  1.00  0.00    -0.361 N 
HETATM   10  H   UNL     1      -1.234  -3.672   4.364  1.00  0.00     0.162 HD
HETATM   11  O   UNL     1       1.122  -1.759   3.417  1.00  0.00    -0.273 OA
BRANCH   9  12
HETATM   12  C   UNL     1       0.284  -3.125   5.744  1.00  0.00     0.124 C 
BRANCH  12  13
HETATM   13  C   UNL     1       0.419  -1.773   6.454  1.00  0.00     0.047 C 
BRANCH  13  14
HETATM   14  C   UNL     1       1.340  -1.913   7.665  1.00  0.00     0.236 C 
BRANCH  14  15
HETATM   15  N   UNL     1       1.577  -0.590   8.360  1.00  0.00    -0.068 N 
HETATM   16  H   UNL     1       0.671  -0.135   8.536  1.00  0.00     0.280 HD
HETATM   17  C   UNL     1       2.223  -0.825   9.744  1.00  0.00     0.254 C 
HETATM   18  C   UNL     1       2.513   0.509  10.464  1.00  0.00     0.150 C 
HETATM   19  N   UNL     1       3.301   1.418   9.615  1.00  0.00    -0.378 N 
HETATM   20  C   UNL     1       2.674   1.702   8.310  1.00  0.00     0.150 C 
HETATM   21  C   UNL     1       2.431   0.389   7.534  1.00  0.00     0.254 C 
BRANCH  19  22
HETATM   22  C   UNL     1       4.698   1.420   9.665  1.00  0.00     0.031 A 
HETATM   23  C   UNL     1       5.451   0.403  10.270  1.00  0.00     0.053 A 
HETATM   24  C   UNL     1       6.852   0.442  10.287  1.00  0.00     0.036 A 
HETATM   25 CL   UNL     1       7.722  -0.859  11.004  1.00  0.00    -0.084 Cl
HETATM   26  C   UNL     1       7.542   1.506   9.724  1.00  0.00     0.024 A 
HETATM   27  C   UNL     1       6.822   2.546   9.148  1.00  0.00     0.004 A 
HETATM   28  C   UNL     1       5.423   2.499   9.125  1.00  0.00     0.029 A 
ENDBRANCH  19  22
ENDBRANCH  14  15
ENDBRANCH  13  14
ENDBRANCH  12  13
ENDBRANCH   9  12
ENDBRANCH   5   8
BRANCH   1  29
HETATM   29  C   UNL     1       3.050  -2.444  -0.340  1.00  0.00     0.296 C 
BRANCH  29  30
HETATM   30  C   UNL     1       3.748  -3.544  -1.049  1.00  0.00     0.092 A 
HETATM   31  C   UNL     1       5.099  -3.709  -1.259  1.00  0.00     0.078 A 
HETATM   32  C   UNL     1       6.315  -2.949  -0.911  1.00  0.00     0.079 C 
HETATM   33  O   UNL     1       5.271  -4.869  -1.949  1.00  0.00    -0.294 OA
HETATM   34  C   UNL     1       4.006  -5.358  -2.143  1.00  0.00     0.180 A 
HETATM   35  N   UNL     1       3.056  -4.597  -1.618  1.00  0.00    -0.224 NA
BRANCH  34  36
HETATM   36  C   UNL     1       3.905  -6.627  -2.860  1.00  0.00     0.017 A 
HETATM   37  C   UNL     1       5.043  -7.274  -3.373  1.00  0.00     0.017 A 
HETATM   38  C   UNL     1       4.932  -8.492  -4.050  1.00  0.00     0.025 A 
HETATM   39  C   UNL     1       3.680  -9.076  -4.221  1.00  0.00     0.034 A 
HETATM   40 CL   UNL     1       3.541 -10.575  -5.049  1.00  0.00    -0.084 Cl
HETATM   41  C   UNL     1       2.540  -8.451  -3.722  1.00  0.00     0.025 A 
HETATM   42  C   UNL     1       2.653  -7.231  -3.045  1.00  0.00     0.017 A 
ENDBRANCH  34  36
ENDBRANCH  29  30
ENDBRANCH   1  29
TORSDOF 9
