REMARK  6 active torsions:
REMARK  status: ('A' for Active; 'I' for Inactive)
REMARK    1  A    between atoms: C_2  and  N_3 
REMARK    2  A    between atoms: C_2  and  C_15 
REMARK    3  A    between atoms: C_5  and  C_6 
REMARK       I    between atoms: C_15  and  N_16 
REMARK    4  A    between atoms: N_16  and  C_17 
REMARK    5  A    between atoms: C_20  and  O_21 
REMARK    6  A    between atoms: O_21  and  C_22 
ROOT
HETATM    1  C   UNL     1       2.788   1.416  -0.388  1.00  0.00     0.253 C 
HETATM    2  N   UNL     1       2.550   2.313   0.634  1.00  0.00    -0.325 N 
HETATM    3  O   UNL     1       3.181   1.688  -1.522  1.00  0.00    -0.271 OA
HETATM    4  H   UNL     1       2.262   1.961   1.540  1.00  0.00     0.169 HD
ENDROOT
BRANCH   1   5
HETATM    5  C   UNL     1       2.598  -0.079  -0.026  1.00  0.00     0.276 C 
HETATM    6  C   UNL     1       1.261  -0.379   0.640  1.00  0.00     0.050 C 
BRANCH   5   7
HETATM    7  N   UNL     1       2.821  -0.964  -1.269  1.00  0.00    -0.049 N 
HETATM    8  H   UNL     1       3.643  -0.532  -1.726  1.00  0.00     0.281 HD
HETATM    9  C   UNL     1       1.763  -0.930  -2.354  1.00  0.00     0.238 C 
HETATM   10  C   UNL     1       0.953  -2.199  -2.090  1.00  0.00     0.041 C 
HETATM   11  C   UNL     1       1.904  -3.188  -1.428  1.00  0.00     0.030 C 
HETATM   12  C   UNL     1       3.129  -2.404  -0.990  1.00  0.00     0.237 C 
BRANCH   9  13
HETATM   13  C   UNL     1       2.401  -0.918  -3.717  1.00  0.00     0.042 A 
HETATM   14  N   UNL     1       2.466   0.193  -4.543  1.00  0.00    -0.363 N 
HETATM   15  C   UNL     1       1.947   1.528  -4.320  1.00  0.00     0.155 C 
HETATM   16  C   UNL     1       3.132  -0.132  -5.700  1.00  0.00     0.090 A 
HETATM   17  C   UNL     1       3.479  -1.457  -5.649  1.00  0.00     0.019 A 
HETATM   18  C   UNL     1       3.022  -1.953  -4.411  1.00  0.00     0.028 A 
ENDBRANCH   9  13
ENDBRANCH   5   7
ENDBRANCH   1   5
BRANCH   2  19
HETATM   19  C   UNL     1       2.699   3.720   0.585  1.00  0.00     0.035 A 
HETATM   20  C   UNL     1       3.135   4.425  -0.538  1.00  0.00     0.032 A 
HETATM   21  C   UNL     1       3.280   5.816  -0.488  1.00  0.00     0.039 A 
HETATM   22  C   UNL     1       2.979   6.521   0.677  1.00  0.00     0.076 A 
HETATM   23  C   UNL     1       2.550   5.825   1.806  1.00  0.00     0.039 A 
HETATM   24  C   UNL     1       2.404   4.433   1.756  1.00  0.00     0.032 A 
BRANCH  22  25
HETATM   25  O   UNL     1       3.214   7.876   0.634  1.00  0.00    -0.311 OA
BRANCH  25  26
HETATM   26  C   UNL     1       2.478   8.689   1.461  1.00  0.00     0.076 A 
HETATM   27  C   UNL     1       3.173   9.502   2.356  1.00  0.00     0.037 A 
HETATM   28  C   UNL     1       2.473  10.384   3.178  1.00  0.00     0.003 A 
HETATM   29  C   UNL     1       1.082  10.462   3.091  1.00  0.00     0.000 A 
HETATM   30  C   UNL     1       0.391   9.665   2.176  1.00  0.00     0.003 A 
HETATM   31  C   UNL     1       1.089   8.782   1.352  1.00  0.00     0.037 A 
ENDBRANCH  25  26
ENDBRANCH  22  25
ENDBRANCH   2  19
TORSDOF 6
