REMARK  5 active torsions:
REMARK  status: ('A' for Active; 'I' for Inactive)
REMARK    1  A    between atoms: O_2  and  C_3 
REMARK    2  A    between atoms: C_5  and  C_6 
REMARK    3  A    between atoms: C_10  and  C_11 
REMARK       I    between atoms: C_11  and  N_12 
REMARK    4  A    between atoms: N_12  and  C_13 
REMARK    5  A    between atoms: C_13  and  C_14 
ROOT
HETATM    1  C   UNL     1       3.407   4.340   2.056  1.00  0.00     0.089 A 
HETATM    2  N   UNL     1       2.286   4.979   1.688  1.00  0.00    -0.174 NA
HETATM    3  N   UNL     1       2.570   6.281   1.846  1.00  0.00    -0.272 N 
HETATM    4  H   UNL     1       1.855   6.971   1.638  1.00  0.00     0.189 HD
HETATM    5  C   UNL     1       3.845   6.530   2.271  1.00  0.00     0.120 A 
HETATM    6  C   UNL     1       4.411   5.280   2.423  1.00  0.00     0.071 A 
ENDROOT
BRANCH   5   7
HETATM    7  C   UNL     1       4.327   7.871   2.467  1.00  0.00     0.269 C 
HETATM    8  N   UNL     1       5.658   7.968   2.792  1.00  0.00    -0.355 N 
HETATM    9  H   UNL     1       6.207   7.128   2.897  1.00  0.00     0.162 HD
HETATM   10  O   UNL     1       3.597   8.850   2.346  1.00  0.00    -0.266 OA
BRANCH   8  11
HETATM   11  C   UNL     1       6.306   9.234   3.066  1.00  0.00     0.128 C 
BRANCH  11  12
HETATM   12  C   UNL     1       6.125   9.670   4.518  1.00  0.00     0.012 C 
HETATM   13  C   UNL     1       6.635   8.667   5.590  1.00  0.00     0.014 C 
HETATM   14  C   UNL     1       6.746   9.594   6.806  1.00  0.00     0.017 C 
HETATM   15  C   UNL     1       8.107   8.395   5.376  1.00  0.00    -0.025 C 
HETATM   16  C   UNL     1       7.733  10.540   6.116  1.00  0.00     0.009 C 
HETATM   17  C   UNL     1       8.764   9.524   5.682  1.00  0.00    -0.026 C 
HETATM   18  C   UNL     1       6.930  10.963   4.867  1.00  0.00     0.015 C 
ENDBRANCH  11  12
ENDBRANCH   8  11
ENDBRANCH   5   7
BRANCH   1  19
HETATM   19  C   UNL     1       3.506   2.877   2.040  1.00  0.00    -0.003 A 
HETATM   20  C   UNL     1       2.654   2.119   1.217  1.00  0.00     0.050 A 
HETATM   21  C   UNL     1       2.749   0.726   1.180  1.00  0.00     0.069 A 
HETATM   22  C   UNL     1       3.700   0.084   1.975  1.00  0.00     0.037 A 
HETATM   23  C   UNL     1       4.546   0.820   2.803  1.00  0.00     0.004 A 
HETATM   24  C   UNL     1       4.449   2.212   2.835  1.00  0.00     0.014 A 
BRANCH  21  25
HETATM   25  O   UNL     1       1.985  -0.114   0.417  1.00  0.00    -0.356 OA
HETATM   26  C   UNL     1       0.971   0.489  -0.379  1.00  0.00     0.210 C 
ENDBRANCH  21  25
ENDBRANCH   1  19
TORSDOF 5
