REMARK  5 active torsions:
REMARK  status: ('A' for Active; 'I' for Inactive)
REMARK    1  A    between atoms: C_5  and  C_6 
REMARK    2  A    between atoms: C_10  and  C_11 
REMARK       I    between atoms: C_11  and  N_12 
REMARK    3  A    between atoms: N_12  and  N_13 
REMARK       I    between atoms: N_13  and  C_14 
REMARK       I    between atoms: C_14  and  N_15 
REMARK    4  A    between atoms: N_15  and  C_16 
REMARK    5  A    between atoms: C_16  and  C_17 
ROOT
HETATM    1  C   UNL     1      12.794  -6.729  -7.732  1.00  0.00     0.288 C 
HETATM    2  N   UNL     1      12.922  -5.639  -6.900  1.00  0.00    -0.261 N 
HETATM    3  O   UNL     1      12.497  -7.847  -7.317  1.00  0.00    -0.264 OA
HETATM    4  H   UNL     1      13.092  -4.697  -7.245  1.00  0.00     0.190 HD
ENDROOT
BRANCH   2   5
HETATM    5  N   UNL     1      12.479  -5.713  -5.570  1.00  0.00    -0.249 N 
HETATM    6  C   UNL     1      12.566  -4.544  -4.846  1.00  0.00     0.334 C 
HETATM    7  N   UNL     1      12.159  -4.696  -3.544  1.00  0.00    -0.341 N 
HETATM    8  O   UNL     1      12.933  -3.483  -5.343  1.00  0.00    -0.246 OA
HETATM    9  H   UNL     1      11.467  -5.421  -3.418  1.00  0.00     0.164 HD
HETATM   10  H   UNL     1      12.626  -6.604  -5.104  1.00  0.00     0.192 HD
BRANCH   7  11
HETATM   11  C   UNL     1      12.033  -3.507  -2.724  1.00  0.00     0.129 C 
BRANCH  11  12
HETATM   12  C   UNL     1      11.659  -3.770  -1.259  1.00  0.00     0.004 C 
HETATM   13  C   UNL     1      12.714  -4.615  -0.527  1.00  0.00     0.010 C 
HETATM   14  C   UNL     1      12.363  -4.854   0.952  1.00  0.00    -0.018 C 
HETATM   15  C   UNL     1      10.942  -5.419   1.094  1.00  0.00     0.004 C 
HETATM   16  C   UNL     1      12.554  -3.588   1.794  1.00  0.00     0.010 C 
HETATM   17  C   UNL     1       9.891  -4.597   0.351  1.00  0.00     0.001 C 
HETATM   18  C   UNL     1      10.265  -4.397  -1.116  1.00  0.00     0.006 C 
ENDBRANCH  11  12
ENDBRANCH   7  11
ENDBRANCH   2   5
BRANCH   1  19
HETATM   19  C   UNL     1      13.025  -6.450  -9.125  1.00  0.00     0.121 A 
HETATM   20  N   UNL     1      12.923  -7.412 -10.090  1.00  0.00    -0.272 N 
HETATM   21  N   UNL     1      13.122  -6.962 -11.339  1.00  0.00    -0.174 NA
HETATM   22  H   UNL     1      12.701  -8.393  -9.953  1.00  0.00     0.189 HD
HETATM   23  C   UNL     1      13.387  -5.654 -11.192  1.00  0.00     0.089 A 
HETATM   24  C   UNL     1      13.344  -5.298  -9.815  1.00  0.00     0.071 A 
BRANCH  23  25
HETATM   25  C   UNL     1      13.644  -4.773 -12.336  1.00  0.00    -0.006 A 
HETATM   26  C   UNL     1      13.222  -5.134 -13.623  1.00  0.00     0.014 A 
HETATM   27  C   UNL     1      13.426  -4.279 -14.711  1.00  0.00     0.007 A 
HETATM   28  C   UNL     1      14.069  -3.050 -14.536  1.00  0.00    -0.062 A 
HETATM   29  C   UNL     1      14.268  -2.110 -15.688  1.00  0.00     0.048 C 
HETATM   30  C   UNL     1      14.499  -2.687 -13.256  1.00  0.00     0.007 A 
HETATM   31  C   UNL     1      14.291  -3.541 -12.168  1.00  0.00     0.014 A 
ENDBRANCH  23  25
ENDBRANCH   1  19
TORSDOF 5
