REMARK  7 active torsions:
REMARK  status: ('A' for Active; 'I' for Inactive)
REMARK    1  A    between atoms: O_2  and  C_3 
REMARK    2  A    between atoms: C_6  and  C_7 
REMARK    3  A    between atoms: C_11  and  C_12 
REMARK       I    between atoms: C_12  and  N_13 
REMARK    4  A    between atoms: N_13  and  N_14 
REMARK       I    between atoms: N_14  and  C_15 
REMARK    5  A    between atoms: C_15  and  C_16 
REMARK    6  A    between atoms: C_16  and  C_17 
REMARK    7  A    between atoms: C_17  and  C_18 
ROOT
HETATM    1  C   UNL     1       5.330  -8.543  -0.676  1.00  0.00     0.288 C 
HETATM    2  N   UNL     1       4.142  -9.075  -0.225  1.00  0.00    -0.262 N 
HETATM    3  O   UNL     1       6.287  -9.248  -0.986  1.00  0.00    -0.264 OA
HETATM    4  H   UNL     1       3.326  -8.515   0.014  1.00  0.00     0.190 HD
ENDROOT
BRANCH   1   5
HETATM    5  C   UNL     1       5.360  -7.108  -0.751  1.00  0.00     0.121 A 
HETATM    6  N   UNL     1       6.479  -6.420  -1.126  1.00  0.00    -0.272 N 
HETATM    7  N   UNL     1       6.334  -5.086  -1.117  1.00  0.00    -0.174 NA
HETATM    8  H   UNL     1       7.378  -6.813  -1.387  1.00  0.00     0.189 HD
HETATM    9  C   UNL     1       5.059  -4.884  -0.750  1.00  0.00     0.089 A 
HETATM   10  C   UNL     1       4.416  -6.130  -0.507  1.00  0.00     0.071 A 
BRANCH   9  11
HETATM   11  C   UNL     1       4.487  -3.541  -0.618  1.00  0.00    -0.005 A 
HETATM   12  C   UNL     1       3.102  -3.339  -0.657  1.00  0.00     0.016 A 
HETATM   13  C   UNL     1       2.566  -2.057  -0.499  1.00  0.00     0.037 A 
HETATM   14  C   UNL     1       3.398  -0.956  -0.292  1.00  0.00     0.068 A 
HETATM   15  C   UNL     1       4.779  -1.144  -0.270  1.00  0.00     0.037 A 
HETATM   16  C   UNL     1       5.318  -2.427  -0.434  1.00  0.00     0.016 A 
BRANCH  14  17
HETATM   17  O   UNL     1       2.743   0.234  -0.136  1.00  0.00    -0.356 OA
HETATM   18  C   UNL     1       3.533   1.352   0.247  1.00  0.00     0.210 C 
ENDBRANCH  14  17
ENDBRANCH   9  11
ENDBRANCH   1   5
BRANCH   2  19
HETATM   19  N   UNL     1       3.977 -10.459  -0.152  1.00  0.00    -0.267 N 
HETATM   20  C   UNL     1       2.711 -10.934   0.121  1.00  0.00     0.236 C 
HETATM   21  O   UNL     1       1.764 -10.181   0.339  1.00  0.00    -0.272 OA
HETATM   22  H   UNL     1       4.769 -11.042  -0.418  1.00  0.00     0.190 HD
BRANCH  20  23
HETATM   23  C   UNL     1       2.613 -12.441   0.103  1.00  0.00     0.109 C 
BRANCH  23  24
HETATM   24  C   UNL     1       1.218 -12.903   0.520  1.00  0.00     0.049 C 
BRANCH  24  25
HETATM   25  C   UNL     1       1.072 -14.406   0.465  1.00  0.00    -0.036 A 
HETATM   26  C   UNL     1       1.477 -15.251   1.510  1.00  0.00     0.040 A 
HETATM   27 CL   UNL     1       2.184 -14.635   2.961  1.00  0.00    -0.084 Cl
HETATM   28  C   UNL     1       1.320 -16.637   1.405  1.00  0.00     0.024 A 
HETATM   29  C   UNL     1       0.761 -17.196   0.257  1.00  0.00     0.002 A 
HETATM   30  C   UNL     1       0.362 -16.371  -0.791  1.00  0.00     0.001 A 
HETATM   31  C   UNL     1       0.518 -14.987  -0.690  1.00  0.00     0.009 A 
ENDBRANCH  24  25
ENDBRANCH  23  24
ENDBRANCH  20  23
ENDBRANCH   2  19
TORSDOF 7
