REMARK  8 active torsions:
REMARK  status: ('A' for Active; 'I' for Inactive)
REMARK    1  A    between atoms: N_2  and  C_3 
REMARK    2  A    between atoms: C_4  and  C_5 
REMARK       I    between atoms: C_5  and  N_6 
REMARK    3  A    between atoms: N_6  and  C_7 
REMARK    4  A    between atoms: C_7  and  C_8 
REMARK    5  A    between atoms: N_13  and  C_15 
REMARK    6  A    between atoms: C_15  and  C_16 
REMARK    7  A    between atoms: C_16  and  C_17 
REMARK    8  A    between atoms: C_17  and  C_18 
ROOT
HETATM    1  C   UNL     1       2.415   2.764   0.499  1.00  0.00     0.140 C 
HETATM    2  O   UNL     1       3.597   3.403  -0.033  1.00  0.00    -0.373 OA
HETATM    3  C   UNL     1       4.236   4.124   1.043  1.00  0.00     0.064 C 
HETATM    4  C   UNL     1       4.507   5.544   0.532  1.00  0.00     0.066 C 
HETATM    5  C   UNL     1       5.549   5.562  -0.582  1.00  0.00     0.237 C 
HETATM    6  N   UNL     1       6.827   4.870  -0.143  1.00  0.00    -0.071 N 
HETATM    7  H   UNL     1       7.397   4.806  -0.997  1.00  0.00     0.279 HD
HETATM    8  C   UNL     1       6.527   3.438   0.246  1.00  0.00     0.237 C 
HETATM    9  C   UNL     1       5.538   3.398   1.398  1.00  0.00     0.066 C 
HETATM   10  C   UNL     1       3.254   4.112   2.223  1.00  0.00     0.041 C 
HETATM   11  C   UNL     1       1.944   3.711   1.588  1.00  0.00     0.036 C 
ENDROOT
BRANCH   1  12
HETATM   12  C   UNL     1       1.372   2.524  -0.594  1.00  0.00     0.155 C 
BRANCH  12  13
HETATM   13  N   UNL     1       0.202   1.825  -0.104  1.00  0.00    -0.354 N 
HETATM   14  C   UNL     1       0.255   0.470   0.185  1.00  0.00     0.253 C 
HETATM   15  O   UNL     1       1.257  -0.203  -0.021  1.00  0.00    -0.268 OA
HETATM   16  H   UNL     1      -0.612   2.356   0.180  1.00  0.00     0.162 HD
BRANCH  14  17
HETATM   17  C   UNL     1      -0.996  -0.091   0.771  1.00  0.00     0.053 A 
HETATM   18  C   UNL     1      -0.978  -0.910   1.925  1.00  0.00     0.025 A 
HETATM   19  C   UNL     1      -2.218  -1.390   2.392  1.00  0.00     0.025 A 
HETATM   20  C   UNL     1      -3.418  -1.082   1.744  1.00  0.00     0.002 A 
HETATM   21  C   UNL     1      -3.414  -0.288   0.604  1.00  0.00     0.001 A 
HETATM   22  C   UNL     1      -2.207   0.205   0.115  1.00  0.00     0.019 A 
BRANCH  18  23
HETATM   23  N   UNL     1       0.218  -1.200   2.610  1.00  0.00    -0.291 NA
HETATM   24  C   UNL     1       0.603  -0.149   3.548  1.00  0.00     0.116 C 
HETATM   25  C   UNL     1       0.354  -2.563   3.125  1.00  0.00     0.116 C 
ENDBRANCH  18  23
ENDBRANCH  14  17
ENDBRANCH  12  13
ENDBRANCH   1  12
BRANCH   6  26
HETATM   26  C   UNL     1       7.628   5.695   0.845  1.00  0.00     0.235 C 
BRANCH  26  27
HETATM   27  C   UNL     1       8.939   5.049   1.279  1.00  0.00     0.032 C 
BRANCH  27  28
HETATM   28  C   UNL     1       9.948   4.853   0.147  1.00  0.00     0.040 C 
BRANCH  28  29
HETATM   29  C   UNL     1      11.185   4.157   0.653  1.00  0.00    -0.058 A 
HETATM   30  C   UNL     1      11.350   2.777   0.469  1.00  0.00     0.007 A 
HETATM   31  C   UNL     1      12.477   2.126   0.974  1.00  0.00     0.001 A 
HETATM   32  C   UNL     1      13.446   2.846   1.670  1.00  0.00     0.000 A 
HETATM   33  C   UNL     1      13.292   4.218   1.858  1.00  0.00     0.001 A 
HETATM   34  C   UNL     1      12.167   4.871   1.352  1.00  0.00     0.007 A 
ENDBRANCH  28  29
ENDBRANCH  27  28
ENDBRANCH  26  27
ENDBRANCH   6  26
TORSDOF 8
