REMARK  5 active torsions:
REMARK  status: ('A' for Active; 'I' for Inactive)
REMARK    1  A    between atoms: C_4  and  C_5 
REMARK    2  A    between atoms: C_5  and  N_6 
REMARK    3  A    between atoms: C_9  and  N_10 
REMARK       I    between atoms: N_10  and  C_11 
REMARK       I    between atoms: C_11  and  N_12 
REMARK    4  A    between atoms: N_12  and  N_13 
REMARK       I    between atoms: N_13  and  C_14 
REMARK    5  A    between atoms: C_14  and  C_15 
ROOT
HETATM    1  N   UNL     1       4.720  -3.523   2.874  1.00  0.00    -0.336 N 
HETATM    2  C   UNL     1       5.506  -2.782   3.725  1.00  0.00     0.335 C 
HETATM    3  N   UNL     1       5.838  -3.471   4.864  1.00  0.00    -0.249 N 
HETATM    4  O   UNL     1       5.876  -1.641   3.471  1.00  0.00    -0.246 OA
HETATM    5  H   UNL     1       4.862  -4.522   2.983  1.00  0.00     0.164 HD
HETATM    6  H   UNL     1       5.240  -4.221   5.209  1.00  0.00     0.192 HD
ENDROOT
BRANCH   1   7
HETATM    7  C   UNL     1       4.434  -3.037   1.528  1.00  0.00     0.112 C 
HETATM    8  C   UNL     1       3.690  -1.676   1.509  1.00  0.00     0.260 C 
HETATM    9  N   UNL     1       3.383  -1.268   0.079  1.00  0.00    -0.065 N 
HETATM   10  H   UNL     1       4.285  -1.241  -0.412  1.00  0.00     0.280 HD
HETATM   11  C   UNL     1       2.523  -2.283  -0.622  1.00  0.00     0.235 C 
HETATM   12  C   UNL     1       3.255  -3.618  -0.644  1.00  0.00     0.030 C 
HETATM   13  C   UNL     1       3.620  -4.089   0.761  1.00  0.00     0.028 C 
BRANCH   9  14
HETATM   14  C   UNL     1       2.865   0.155  -0.035  1.00  0.00     0.273 C 
BRANCH  14  15
HETATM   15  C   UNL     1       1.550   0.434   0.641  1.00  0.00    -0.033 A 
HETATM   16  C   UNL     1       1.513   0.876   1.973  1.00  0.00     0.009 A 
HETATM   17  C   UNL     1       0.293   1.121   2.604  1.00  0.00     0.001 A 
HETATM   18  C   UNL     1      -0.901   0.931   1.914  1.00  0.00     0.000 A 
HETATM   19  C   UNL     1      -0.879   0.503   0.589  1.00  0.00     0.001 A 
HETATM   20  C   UNL     1       0.339   0.257  -0.047  1.00  0.00     0.009 A 
ENDBRANCH  14  15
ENDBRANCH   9  14
ENDBRANCH   1   7
BRANCH   3  21
HETATM   21  N   UNL     1       6.539  -2.787   5.866  1.00  0.00    -0.261 N 
HETATM   22  C   UNL     1       6.605  -3.345   7.132  1.00  0.00     0.277 C 
HETATM   23  O   UNL     1       6.026  -4.407   7.368  1.00  0.00    -0.265 OA
HETATM   24  H   UNL     1       6.994  -1.909   5.626  1.00  0.00     0.190 HD
BRANCH  22  25
HETATM   25  C   UNL     1       7.380  -2.615   8.122  1.00  0.00     0.075 A 
HETATM   26  S   UNL     1       8.066  -1.075   7.799  1.00  0.00    -0.077 SA
HETATM   27  C   UNL     1       8.721  -0.974   9.357  1.00  0.00     0.052 A 
HETATM   28 BR   UNL     1       9.718   0.495   9.953  1.00  0.00    -0.043 Br
HETATM   29  C   UNL     1       8.449  -2.071  10.133  1.00  0.00     0.028 A 
HETATM   30  C   UNL     1       7.666  -3.023   9.415  1.00  0.00     0.026 A 
ENDBRANCH  22  25
ENDBRANCH   3  21
TORSDOF 5
