REMARK  8 active torsions:
REMARK  status: ('A' for Active; 'I' for Inactive)
REMARK    1  A    between atoms: C_2  and  C_3 
REMARK    2  A    between atoms: C_3  and  N_4 
REMARK    3  A    between atoms: N_4  and  C_5 
REMARK    4  A    between atoms: C_7  and  N_8 
REMARK    5  A    between atoms: N_8  and  C_9 
REMARK    6  A    between atoms: C_9  and  C_10 
REMARK    7  A    between atoms: C_10  and  C_11 
REMARK    8  A    between atoms: C_12  and  O_13 
ROOT
HETATM    1  C   UNL     1       5.322  -2.682   1.348  1.00  0.00     0.119 A 
HETATM    2  N   UNL     1       4.702  -3.863   1.155  1.00  0.00    -0.207 NA
HETATM    3  C   UNL     1       5.455  -4.969   1.162  1.00  0.00     0.181 A 
HETATM    4  N   UNL     1       6.774  -4.953   1.323  1.00  0.00    -0.330 N 
HETATM    5  H   UNL     1       7.259  -5.835   1.235  1.00  0.00     0.168 HD
HETATM    6  C   UNL     1       7.432  -3.813   1.550  1.00  0.00     0.048 A 
HETATM    7  C   UNL     1       6.712  -2.603   1.583  1.00  0.00     0.031 A 
HETATM    8  C   UNL     1       8.820  -3.830   1.755  1.00  0.00     0.030 A 
HETATM    9  C   UNL     1       9.505  -2.643   2.010  1.00  0.00     0.002 A 
HETATM   10  C   UNL     1       8.810  -1.438   2.062  1.00  0.00     0.001 A 
HETATM   11  C   UNL     1       7.430  -1.414   1.852  1.00  0.00     0.017 A 
ENDROOT
BRANCH   3  12
HETATM   12  N   UNL     1       4.830  -6.175   0.900  1.00  0.00    -0.262 NA
HETATM   13  H   UNL     1       3.834  -5.954   0.792  1.00  0.00     0.130 HD
BRANCH  12  14
HETATM   14  C   UNL     1       5.048  -7.281   1.841  1.00  0.00     0.100 C 
BRANCH  14  15
HETATM   15  C   UNL     1       3.743  -7.775   2.480  1.00  0.00     0.056 C 
BRANCH  15  16
HETATM   16  C   UNL     1       2.725  -8.490   1.611  1.00  0.00    -0.024 A 
HETATM   17  C   UNL     1       1.562  -9.007   2.227  1.00  0.00     0.074 A 
HETATM   18  C   UNL     1       0.592  -9.660   1.460  1.00  0.00     0.037 A 
HETATM   19  C   UNL     1       0.769  -9.816   0.086  1.00  0.00     0.003 A 
HETATM   20  C   UNL     1       1.915  -9.325  -0.528  1.00  0.00     0.001 A 
HETATM   21  C   UNL     1       2.888  -8.668   0.227  1.00  0.00     0.010 A 
BRANCH  17  22
HETATM   22  O   UNL     1       1.473  -8.810   3.583  1.00  0.00    -0.355 OA
HETATM   23  C   UNL     1       0.444  -9.510   4.274  1.00  0.00     0.210 C 
ENDBRANCH  17  22
ENDBRANCH  15  16
ENDBRANCH  14  15
ENDBRANCH  12  14
ENDBRANCH   3  12
BRANCH   1  24
HETATM   24  N   UNL     1       4.558  -1.507   1.360  1.00  0.00    -0.277 NA
HETATM   25  H   UNL     1       4.958  -0.810   0.734  1.00  0.00     0.129 HD
BRANCH  24  26
HETATM   26  C   UNL     1       3.118  -1.653   1.141  1.00  0.00     0.093 C 
BRANCH  26  27
HETATM   27  C   UNL     1       2.440  -0.282   1.186  1.00  0.00     0.010 C 
HETATM   28  C   UNL     1       2.529   0.378   2.555  1.00  0.00     0.006 C 
ENDBRANCH  26  27
ENDBRANCH  24  26
ENDBRANCH   1  24
TORSDOF 8
