REMARK  3 active torsions:
REMARK  status: ('A' for Active; 'I' for Inactive)
REMARK    1  A    between atoms: C_10  and  C_11 
REMARK    2  A    between atoms: C_13  and  C_14 
REMARK    3  A    between atoms: C_22  and  O_23 
ROOT
HETATM    1  C   UNL     1      -2.718   1.469   0.193  1.00  0.00     0.001 A 
HETATM    2  C   UNL     1      -1.323   1.572   0.208  1.00  0.00     0.015 A 
HETATM    3  C   UNL     1      -0.533   0.434   0.024  1.00  0.00     0.013 A 
HETATM    4  C   UNL     1      -1.157  -0.807  -0.174  1.00  0.00     0.046 A 
HETATM    5  C   UNL     1      -0.317  -2.017  -0.392  1.00  0.00     0.271 A 
HETATM    6  O   UNL     1      -0.821  -3.097  -0.681  1.00  0.00    -0.266 OA
HETATM    7  N   UNL     1       1.048  -1.893  -0.270  1.00  0.00    -0.257 N 
HETATM    8  N   UNL     1       1.635  -0.691  -0.077  1.00  0.00    -0.229 N 
HETATM    9  C   UNL     1       0.917   0.466   0.033  1.00  0.00     0.122 A 
HETATM   10  C   UNL     1       2.983  -0.425   0.016  1.00  0.00     0.162 A 
HETATM   11  N   UNL     1       3.156   0.888   0.091  1.00  0.00    -0.202 NA
HETATM   12  C   UNL     1       1.901   1.422   0.121  1.00  0.00     0.194 A 
HETATM   13  C   UNL     1      -2.552  -0.910  -0.193  1.00  0.00     0.018 A 
HETATM   14  C   UNL     1      -3.331   0.231  -0.006  1.00  0.00     0.001 A 
HETATM   15  H   UNL     1       1.622  -2.657  -0.598  1.00  0.00     0.191 HD
ENDROOT
BRANCH  10  16
HETATM   16  C   UNL     1       4.070  -1.409   0.001  1.00  0.00     0.013 A 
HETATM   17  C   UNL     1       5.249  -1.113  -0.701  1.00  0.00     0.031 A 
HETATM   18  C   UNL     1       6.327  -2.012  -0.727  1.00  0.00     0.048 A 
HETATM   19  C   UNL     1       6.210  -3.229  -0.039  1.00  0.00     0.016 A 
HETATM   20  C   UNL     1       5.052  -3.526   0.678  1.00  0.00     0.002 A 
HETATM   21  C   UNL     1       3.992  -2.617   0.706  1.00  0.00     0.015 A 
BRANCH  18  22
HETATM   22  C   UNL     1       7.589  -1.694  -1.491  1.00  0.00     0.417 C 
HETATM   23  F   UNL     1       7.669  -0.397  -1.897  1.00  0.00    -0.166 F 
HETATM   24  F   UNL     1       8.716  -1.925  -0.761  1.00  0.00    -0.166 F 
HETATM   25  F   UNL     1       7.713  -2.447  -2.618  1.00  0.00    -0.166 F 
ENDBRANCH  18  22
ENDBRANCH  10  16
BRANCH  12  26
HETATM   26  O   UNL     1       1.680   2.734   0.221  1.00  0.00    -0.343 OA
HETATM   27  H   UNL     1       2.559   3.150   0.264  1.00  0.00     0.219 HD
ENDBRANCH  12  26
TORSDOF 3
