REMARK  7 active torsions:
REMARK  status: ('A' for Active; 'I' for Inactive)
REMARK    1  A    between atoms: N_1  and  C_5 
REMARK    2  A    between atoms: C_11  and  N_12 
REMARK       I    between atoms: N_12  and  C_13 
REMARK    3  A    between atoms: C_13  and  C_15 
REMARK    4  A    between atoms: C_19  and  C_20 
REMARK    5  A    between atoms: C_20  and  N_21 
REMARK       I    between atoms: N_21  and  C_22 
REMARK    6  A    between atoms: C_22  and  C_24 
REMARK    7  A    between atoms: C_27  and  C_30 
ROOT
HETATM    1  C   UNL     1       9.346  -4.454  -1.842  1.00  0.00     0.033 A 
HETATM    2  C   UNL     1      10.573  -3.802  -2.013  1.00  0.00     0.017 A 
HETATM    3  C   UNL     1      11.723  -4.542  -2.288  1.00  0.00     0.002 A 
HETATM    4  C   UNL     1      11.654  -5.932  -2.395  1.00  0.00     0.009 A 
HETATM    5  C   UNL     1      10.430  -6.594  -2.252  1.00  0.00    -0.040 A 
HETATM    6  C   UNL     1       9.275  -5.844  -1.984  1.00  0.00     0.026 A 
ENDROOT
BRANCH   1   7
HETATM    7  C   UNL     1       8.139  -3.645  -1.549  1.00  0.00     0.257 C 
HETATM    8  N   UNL     1       7.025  -4.320  -0.962  1.00  0.00    -0.303 N 
HETATM    9  H   UNL     1       7.129  -5.258  -0.606  1.00  0.00     0.171 HD
HETATM   10  O   UNL     1       8.081  -2.454  -1.790  1.00  0.00    -0.267 OA
BRANCH   8  11
HETATM   11  C   UNL     1       5.819  -3.780  -0.830  1.00  0.00     0.152 A 
HETATM   12  N   UNL     1       4.788  -4.492  -0.325  1.00  0.00    -0.339 N 
HETATM   13  C   UNL     1       3.596  -3.799  -0.306  1.00  0.00     0.024 A 
HETATM   14  H   UNL     1       4.931  -5.444   0.008  1.00  0.00     0.168 HD
HETATM   15  C   UNL     1       2.341  -4.433   0.169  1.00  0.00     0.060 C 
HETATM   16  C   UNL     1       3.688  -2.522  -0.786  1.00  0.00     0.011 A 
HETATM   17  C   UNL     1       1.253  -3.365   0.431  1.00  0.00     0.039 C 
HETATM   18  C   UNL     1       1.201  -2.211  -0.599  1.00  0.00     0.188 C 
HETATM   19  C   UNL     1       2.574  -1.523  -0.816  1.00  0.00     0.081 C 
HETATM   20  S   UNL     1       5.276  -2.184  -1.296  1.00  0.00    -0.056 SA
BRANCH  18  21
HETATM   21  N   UNL     1       0.664  -2.717  -1.904  1.00  0.00    -0.075 N 
HETATM   22  H   UNL     1      -0.262  -3.159  -1.787  1.00  0.00     0.274 HD
HETATM   23  H   UNL     1       0.505  -1.937  -2.564  1.00  0.00     0.274 HD
HETATM   24  H   UNL     1       1.270  -3.391  -2.389  1.00  0.00     0.274 HD
ENDBRANCH  18  21
ENDBRANCH   8  11
ENDBRANCH   1   7
BRANCH   5  25
HETATM   25  C   UNL     1      10.348  -8.099  -2.311  1.00  0.00     0.161 C 
BRANCH  25  26
HETATM   26  N   UNL     1      10.687  -8.693  -1.039  1.00  0.00    -0.353 N 
HETATM   27  C   UNL     1       9.834  -8.682   0.045  1.00  0.00     0.251 C 
HETATM   28  O   UNL     1       8.736  -8.130   0.046  1.00  0.00    -0.268 OA
HETATM   29  H   UNL     1      11.494  -9.302  -1.022  1.00  0.00     0.163 HD
BRANCH  27  30
HETATM   30  C   UNL     1      10.322  -9.422   1.245  1.00  0.00     0.032 A 
HETATM   31  C   UNL     1      11.686  -9.512   1.550  1.00  0.00     0.018 A 
HETATM   32  C   UNL     1      12.116 -10.247   2.664  1.00  0.00     0.015 A 
HETATM   33  C   UNL     1      11.192 -10.897   3.494  1.00  0.00    -0.005 A 
HETATM   34  C   UNL     1       9.825 -10.772   3.195  1.00  0.00     0.015 A 
HETATM   35  C   UNL     1       9.391 -10.039   2.083  1.00  0.00     0.018 A 
BRANCH  33  36
HETATM   36  C   UNL     1      11.605 -11.685   4.653  1.00  0.00     0.091 A 
HETATM   37  C   UNL     1      12.883 -12.174   4.871  1.00  0.00     0.099 A 
HETATM   38  S   UNL     1      12.857 -13.049   6.349  1.00  0.00    -0.008 SA
HETATM   39  N   UNL     1      11.233 -12.749   6.605  1.00  0.00    -0.037 NA
HETATM   40  N   UNL     1      10.686 -12.026   5.643  1.00  0.00    -0.169 NA
ENDBRANCH  33  36
ENDBRANCH  27  30
ENDBRANCH  25  26
ENDBRANCH   5  25
TORSDOF 7
