REMARK  4 active torsions:
REMARK  status: ('A' for Active; 'I' for Inactive)
REMARK    1  A    between atoms: O_2  and  C_3 
REMARK    2  A    between atoms: C_3  and  C_4 
REMARK    3  A    between atoms: C_12  and  N_13 
REMARK       I    between atoms: N_13  and  C_14 
REMARK    4  A    between atoms: C_14  and  C_15 
ROOT
HETATM    1  N   UNL     1      -1.013  -0.423   4.661  1.00  0.00    -0.323 N 
HETATM    2  C   UNL     1      -1.925  -0.506   5.693  1.00  0.00     0.258 C 
HETATM    3  O   UNL     1      -2.160  -1.524   6.338  1.00  0.00    -0.267 OA
HETATM    4  H   UNL     1      -0.892   0.487   4.235  1.00  0.00     0.169 HD
ENDROOT
BRANCH   1   5
HETATM    5  C   UNL     1      -0.214  -1.452   4.117  1.00  0.00     0.036 A 
HETATM    6  C   UNL     1      -0.259  -2.783   4.537  1.00  0.00     0.032 A 
HETATM    7  C   UNL     1       0.551  -3.768   3.954  1.00  0.00     0.034 A 
HETATM    8  C   UNL     1       1.411  -3.367   2.931  1.00  0.00     0.063 A 
HETATM    9  N   UNL     1       2.307  -4.066   2.174  1.00  0.00    -0.277 N 
HETATM   10  C   UNL     1       1.494  -2.056   2.482  1.00  0.00     0.031 A 
HETATM   11  N   UNL     1       2.968  -3.323   1.273  1.00  0.00    -0.167 NA
HETATM   12  H   UNL     1       2.515  -5.057   2.224  1.00  0.00     0.189 HD
HETATM   13  C   UNL     1       2.483  -2.076   1.448  1.00  0.00     0.164 A 
HETATM   14  C   UNL     1       0.666  -1.084   3.083  1.00  0.00     0.046 A 
BRANCH  13  15
HETATM   15  C   UNL     1       2.945  -0.924   0.657  1.00  0.00     0.314 C 
HETATM   16  O   UNL     1       2.536   0.221   0.829  1.00  0.00    -0.257 OA
BRANCH  15  17
HETATM   17  O   UNL     1       3.877  -1.260  -0.288  1.00  0.00    -0.321 OA
HETATM   18  C   UNL     1       4.347  -0.163  -1.068  1.00  0.00     0.213 C 
ENDBRANCH  15  17
ENDBRANCH  13  15
ENDBRANCH   1   5
BRANCH   2  19
HETATM   19  C   UNL     1      -2.632   0.746   6.018  1.00  0.00     0.063 A 
HETATM   20  C   UNL     1      -2.658   2.048   5.397  1.00  0.00     0.046 A 
HETATM   21  C   UNL     1      -3.529   2.854   6.142  1.00  0.00     0.046 A 
HETATM   22  C   UNL     1      -2.046   2.649   4.275  1.00  0.00     0.130 A 
HETATM   23  C   UNL     1      -3.803   4.191   5.820  1.00  0.00     0.030 A 
HETATM   24  N   UNL     1      -4.014   2.088   7.173  1.00  0.00    -0.364 N 
HETATM   25  C   UNL     1      -3.174   4.740   4.700  1.00  0.00     0.005 A 
HETATM   26  C   UNL     1      -2.302   3.978   3.932  1.00  0.00     0.043 A 
HETATM   27  H   UNL     1      -4.668   2.411   7.874  1.00  0.00     0.165 HD
HETATM   28  C   UNL     1      -3.490   0.832   7.107  1.00  0.00     0.106 A 
HETATM   29  F   UNL     1      -1.193   1.952   3.508  1.00  0.00    -0.205 F 
ENDBRANCH   2  19
TORSDOF 4
