REMARK  5 active torsions:
REMARK  status: ('A' for Active; 'I' for Inactive)
REMARK    1  A    between atoms: O_2  and  C_3 
REMARK    2  A    between atoms: C_4  and  C_5 
REMARK       I    between atoms: C_5  and  N_6 
REMARK    3  A    between atoms: N_6  and  C_7 
REMARK    4  A    between atoms: C_7  and  C_8 
REMARK       I    between atoms: C_8  and  N_9 
REMARK    5  A    between atoms: N_9  and  N_10 
ROOT
HETATM    1  C   UNL     1       2.227   2.878   0.325  1.00  0.00     0.255 C 
HETATM    2  N   UNL     1       2.229   4.114  -0.301  1.00  0.00    -0.245 N 
HETATM    3  O   UNL     1       1.804   2.676   1.466  1.00  0.00    -0.270 OA
HETATM    4  H   UNL     1       2.453   4.179  -1.300  1.00  0.00     0.192 HD
ENDROOT
BRANCH   1   5
HETATM    5  C   UNL     1       2.638   1.702  -0.564  1.00  0.00     0.227 C 
BRANCH   5   6
HETATM    6  N   UNL     1       3.743   1.934  -1.482  1.00  0.00    -0.348 N 
HETATM    7  C   UNL     1       3.523   2.451  -2.742  1.00  0.00     0.254 C 
HETATM    8  O   UNL     1       2.454   2.958  -3.060  1.00  0.00    -0.268 OA
HETATM    9  H   UNL     1       4.591   1.408  -1.319  1.00  0.00     0.163 HD
BRANCH   7  10
HETATM   10  C   UNL     1       4.674   2.367  -3.680  1.00  0.00     0.065 A 
HETATM   11  C   UNL     1       4.484   2.009  -5.020  1.00  0.00     0.084 A 
HETATM   12  C   UNL     1       5.583   1.893  -5.878  1.00  0.00     0.038 A 
HETATM   13  C   UNL     1       6.868   2.172  -5.411  1.00  0.00     0.003 A 
HETATM   14  C   UNL     1       7.060   2.559  -4.085  1.00  0.00     0.001 A 
HETATM   15  C   UNL     1       5.968   2.659  -3.220  1.00  0.00     0.020 A 
BRANCH  11  16
HETATM   16  O   UNL     1       3.244   1.658  -5.484  1.00  0.00    -0.355 OA
HETATM   17  C   UNL     1       2.728   2.670  -6.350  1.00  0.00     0.210 C 
ENDBRANCH  11  16
ENDBRANCH   7  10
ENDBRANCH   5   6
ENDBRANCH   1   5
BRANCH   2  18
HETATM   18  N   UNL     1       1.682   5.185   0.348  1.00  0.00    -0.166 NA
HETATM   19  C   UNL     1       1.653   6.317  -0.274  1.00  0.00     0.157 A 
HETATM   20  C   UNL     1       2.216   6.692  -1.649  1.00  0.00     0.277 A 
HETATM   21  C   UNL     1       1.025   7.529   0.242  1.00  0.00     0.028 A 
HETATM   22  O   UNL     1       2.872   5.970  -2.365  1.00  0.00    -0.266 OA
HETATM   23  N   UNL     1       1.847   8.007  -1.851  1.00  0.00    -0.321 N 
HETATM   24  C   UNL     1       1.158   8.501  -0.748  1.00  0.00     0.048 A 
HETATM   25  H   UNL     1       2.085   8.522  -2.685  1.00  0.00     0.169 HD
HETATM   26  C   UNL     1       0.646   9.770  -0.577  1.00  0.00     0.032 A 
HETATM   27  C   UNL     1      -0.009  10.042   0.631  1.00  0.00     0.021 A 
HETATM   28  C   UNL     1      -0.134   9.048   1.626  1.00  0.00     0.012 A 
HETATM   29 BR   UNL     1      -1.024   9.466   3.242  1.00  0.00    -0.051 Br
HETATM   30  C   UNL     1       0.385   7.767   1.441  1.00  0.00     0.035 A 
ENDBRANCH   2  18
TORSDOF 5
