REMARK  5 active torsions:
REMARK  status: ('A' for Active; 'I' for Inactive)
REMARK    1  A    between atoms: C_6  and  S_7 
REMARK    2  A    between atoms: S_7  and  C_8 
REMARK    3  A    between atoms: C_8  and  C_9 
REMARK       I    between atoms: C_9  and  N_10 
REMARK    4  A    between atoms: N_10  and  C_11 
REMARK    5  A    between atoms: C_14  and  C_15 
ROOT
HETATM    1  C   UNL     1       6.181   1.743   0.325  1.00  0.00     0.233 C 
HETATM    2  N   UNL     1       6.672   0.532  -0.114  1.00  0.00    -0.305 N 
HETATM    3  O   UNL     1       6.849   2.698   0.715  1.00  0.00    -0.272 OA
HETATM    4  H   UNL     1       6.038  -0.224  -0.326  1.00  0.00     0.171 HD
ENDROOT
BRANCH   2   5
HETATM    5  C   UNL     1       8.010   0.277  -0.212  1.00  0.00     0.173 A 
HETATM    6  S   UNL     1       8.391  -1.310  -0.705  1.00  0.00    -0.061 SA
HETATM    7  C   UNL     1      10.062  -0.903  -0.642  1.00  0.00     0.085 A 
HETATM    8  C   UNL     1      10.214   0.417  -0.256  1.00  0.00     0.076 A 
HETATM    9  N   UNL     1       9.020   1.076  -0.006  1.00  0.00    -0.223 NA
BRANCH   8  10
HETATM   10  C   UNL     1      11.491   1.116  -0.101  1.00  0.00    -0.007 A 
HETATM   11  C   UNL     1      12.714   0.560  -0.506  1.00  0.00     0.015 A 
HETATM   12  C   UNL     1      13.910   1.271  -0.346  1.00  0.00     0.020 A 
HETATM   13  C   UNL     1      13.892   2.544   0.218  1.00  0.00     0.011 A 
HETATM   14 BR   UNL     1      15.508   3.502   0.427  1.00  0.00    -0.051 Br
HETATM   15  C   UNL     1      12.691   3.115   0.624  1.00  0.00     0.020 A 
HETATM   16  C   UNL     1      11.499   2.403   0.463  1.00  0.00     0.015 A 
ENDBRANCH   8  10
ENDBRANCH   2   5
BRANCH   1  17
HETATM   17  C   UNL     1       4.673   1.879   0.197  1.00  0.00     0.184 C 
BRANCH  17  18
HETATM   18  S   UNL     1       3.796   0.417   0.828  1.00  0.00    -0.094 SA
BRANCH  18  19
HETATM   19  C   UNL     1       2.140   0.928   0.563  1.00  0.00     0.136 A 
HETATM   20  S   UNL     1       0.803  -0.037   1.018  1.00  0.00    -0.061 SA
HETATM   21  C   UNL     1      -0.268   1.169   0.413  1.00  0.00     0.036 A 
HETATM   22  C   UNL     1       0.487   2.229  -0.097  1.00  0.00     0.075 A 
HETATM   23  C   UNL     1      -1.673   1.181   0.388  1.00  0.00     0.021 A 
HETATM   24  C   UNL     1      -0.186   3.340  -0.644  1.00  0.00     0.033 A 
HETATM   25  N   UNL     1       1.860   2.073  -0.011  1.00  0.00    -0.233 NA
HETATM   26  C   UNL     1      -1.584   3.361  -0.673  1.00  0.00     0.002 A 
HETATM   27  C   UNL     1      -2.316   2.293  -0.163  1.00  0.00     0.002 A 
ENDBRANCH  18  19
ENDBRANCH  17  18
ENDBRANCH   1  17
TORSDOF 5
