REMARK  4 active torsions:
REMARK  status: ('A' for Active; 'I' for Inactive)
REMARK    1  A    between atoms: C_2  and  N_3 
REMARK    2  A    between atoms: C_7  and  N_8 
REMARK       I    between atoms: N_8  and  C_9 
REMARK    3  A    between atoms: C_9  and  C_10 
REMARK    4  A    between atoms: C_10  and  N_11 
ROOT
HETATM    1  N   UNL     1       4.747  -2.266  -5.941  1.00  0.00    -0.326 N 
HETATM    2  C   UNL     1       5.183  -3.571  -5.829  1.00  0.00     0.242 C 
HETATM    3  O   UNL     1       4.714  -4.426  -5.078  1.00  0.00    -0.271 OA
HETATM    4  H   UNL     1       5.281  -1.703  -6.602  1.00  0.00     0.169 HD
ENDROOT
BRANCH   2   5
HETATM    5  C   UNL     1       6.449  -3.886  -6.630  1.00  0.00     0.257 C 
BRANCH   5   6
HETATM    6  N   UNL     1       6.782  -3.021  -7.764  1.00  0.00    -0.224 N 
HETATM    7  N   UNL     1       6.976  -1.646  -7.487  1.00  0.00    -0.180 NA
HETATM    8  C   UNL     1       7.507  -0.873  -8.393  1.00  0.00     0.153 A 
HETATM    9  C   UNL     1       7.918  -1.395  -9.664  1.00  0.00     0.028 A 
HETATM   10  C   UNL     1       7.712  -2.724  -9.927  1.00  0.00     0.116 A 
HETATM   11  C   UNL     1       8.574  -0.823 -10.785  1.00  0.00     0.005 A 
HETATM   12  N   UNL     1       8.201  -2.999 -11.172  1.00  0.00    -0.350 N 
HETATM   13  C   UNL     1       7.128  -3.636  -8.989  1.00  0.00     0.291 A 
HETATM   14  H   UNL     1       8.192  -3.912 -11.608  1.00  0.00     0.166 HD
HETATM   15  C   UNL     1       8.753  -1.856 -11.713  1.00  0.00     0.044 A 
HETATM   16  C   UNL     1       9.401  -1.664 -12.939  1.00  0.00     0.030 A 
HETATM   17  C   UNL     1       9.879  -0.383 -13.226  1.00  0.00     0.002 A 
HETATM   18  C   UNL     1       9.710   0.666 -12.325  1.00  0.00     0.001 A 
HETATM   19  C   UNL     1       9.059   0.461 -11.102  1.00  0.00     0.014 A 
HETATM   20  O   UNL     1       6.991  -4.829  -9.235  1.00  0.00    -0.264 OA
ENDBRANCH   5   6
ENDBRANCH   2   5
BRANCH   1  21
HETATM   21  C   UNL     1       3.710  -1.631  -5.227  1.00  0.00     0.035 A 
HETATM   22  C   UNL     1       2.975  -2.254  -4.213  1.00  0.00     0.044 A 
HETATM   23  C   UNL     1       1.965  -1.546  -3.520  1.00  0.00     0.005 A 
HETATM   24  C   UNL     1       1.699  -0.224  -3.875  1.00  0.00     0.046 A 
HETATM   25  C   UNL     1       1.089  -1.893  -2.445  1.00  0.00     0.003 A 
HETATM   26  N   UNL     1       0.669   0.210  -3.062  1.00  0.00    -0.346 N 
HETATM   27  C   UNL     1       2.425   0.422  -4.888  1.00  0.00     0.033 A 
HETATM   28  C   UNL     1       0.292  -0.780  -2.173  1.00  0.00     0.046 A 
HETATM   29  C   UNL     1      -0.678  -0.795  -1.155  1.00  0.00     0.030 A 
HETATM   30  C   UNL     1      -0.831  -1.965  -0.405  1.00  0.00     0.002 A 
HETATM   31  C   UNL     1      -0.048  -3.085  -0.659  1.00  0.00     0.001 A 
HETATM   32  C   UNL     1       0.912  -3.062  -1.675  1.00  0.00     0.014 A 
HETATM   33  C   UNL     1       3.430  -0.300  -5.548  1.00  0.00     0.032 A 
BRANCH  26  34
HETATM   34  C   UNL     1       0.048   1.524  -3.136  1.00  0.00     0.125 C 
HETATM   35  C   UNL     1       0.673   2.516  -2.171  1.00  0.00     0.027 C 
ENDBRANCH  26  34
ENDBRANCH   1  21
TORSDOF 4
