REMARK  2 active torsions:
REMARK  status: ('A' for Active; 'I' for Inactive)
REMARK    1  A    between atoms: C_6  and  N_7 
REMARK       I    between atoms: N_7  and  C_8 
REMARK       I    between atoms: C_8  and  N_9 
REMARK    2  A    between atoms: N_9  and  C_10 
ROOT
HETATM    1  N   UNL     1       2.148   4.983  -0.299  1.00  0.00    -0.306 N 
HETATM    2  C   UNL     1       2.413   3.825  -0.961  1.00  0.00     0.321 C 
HETATM    3  N   UNL     1       2.329   2.652  -0.280  1.00  0.00    -0.338 N 
HETATM    4  O   UNL     1       2.580   3.862  -2.179  1.00  0.00    -0.247 OA
HETATM    5  H   UNL     1       1.968   5.724  -0.968  1.00  0.00     0.171 HD
HETATM    6  H   UNL     1       2.589   2.693   0.695  1.00  0.00     0.164 HD
ENDROOT
BRANCH   3   7
HETATM    7  C   UNL     1       2.446   1.346  -0.916  1.00  0.00     0.092 C 
HETATM    8  C   UNL     1       1.276   1.080  -1.907  1.00  0.00     0.084 C 
HETATM    9  C   UNL     1       1.571  -0.127  -2.698  1.00  0.00     0.034 A 
HETATM   10  C   UNL     1       2.798  -0.744  -2.794  1.00  0.00     0.033 A 
HETATM   11  N   UNL     1       0.713  -0.846  -3.504  1.00  0.00    -0.354 N 
HETATM   12  N   UNL     1       2.624  -1.814  -3.646  1.00  0.00    -0.354 N 
HETATM   13  C   UNL     1       4.024  -0.331  -2.085  1.00  0.00     0.061 C 
HETATM   14  H   UNL     1       3.351  -2.471  -3.922  1.00  0.00     0.166 HD
HETATM   15  C   UNL     1       1.360  -1.864  -4.081  1.00  0.00     0.180 A 
HETATM   16  C   UNL     1       3.848   1.106  -1.549  1.00  0.00     0.031 C 
HETATM   17  H   UNL     1      -0.269  -0.626  -3.659  1.00  0.00     0.166 HD
ENDBRANCH   3   7
BRANCH   1  18
HETATM   18  C   UNL     1       1.772   5.246   1.038  1.00  0.00     0.077 A 
HETATM   19  C   UNL     1       2.242   4.636   2.204  1.00  0.00     0.152 A 
HETATM   20  N   UNL     1       1.783   4.900   3.450  1.00  0.00    -0.247 NA
HETATM   21 CL   UNL     1       3.605   3.580   2.254  1.00  0.00    -0.060 Cl
HETATM   22  C   UNL     1       0.837   5.853   3.563  1.00  0.00     0.118 A 
HETATM   23  C   UNL     1       0.345   6.568   2.487  1.00  0.00     0.022 A 
HETATM   24  C   UNL     1       0.829   6.267   1.215  1.00  0.00     0.034 A 
ENDBRANCH   1  18
TORSDOF 2
