REMARK  4 active torsions:
REMARK  status: ('A' for Active; 'I' for Inactive)
REMARK    1  A    between atoms: C_5  and  N_6 
REMARK       I    between atoms: N_6  and  C_7 
REMARK    2  A    between atoms: C_7  and  C_8 
REMARK    3  A    between atoms: C_12  and  C_13 
REMARK    4  A    between atoms: N_24  and  C_25 
ROOT
HETATM    1  N   UNL     1       2.660  -1.712   2.750  1.00  0.00    -0.348 N 
HETATM    2  C   UNL     1       2.630  -2.946   3.343  1.00  0.00     0.257 C 
HETATM    3  O   UNL     1       3.479  -3.807   3.132  1.00  0.00    -0.267 OA
HETATM    4  H   UNL     1       1.906  -1.055   2.953  1.00  0.00     0.163 HD
ENDROOT
BRANCH   1   5
HETATM    5  C   UNL     1       3.790  -1.243   1.977  1.00  0.00     0.122 C 
HETATM    6  C   UNL     1       3.571  -1.382   0.455  1.00  0.00     0.039 C 
HETATM    7  C   UNL     1       2.769  -0.224  -0.221  1.00  0.00    -0.040 C 
HETATM    8  C   UNL     1       1.287  -0.252   0.202  1.00  0.00     0.015 C 
HETATM    9  C   UNL     1       2.819  -0.434  -1.750  1.00  0.00     0.015 C 
HETATM   10  C   UNL     1       3.388   1.173   0.106  1.00  0.00     0.069 C 
HETATM   11  C   UNL     1       3.838   1.266   1.526  1.00  0.00     0.047 A 
HETATM   12  C   UNL     1       4.019   0.176   2.358  1.00  0.00     0.008 A 
HETATM   13  N   UNL     1       4.133   2.400   2.277  1.00  0.00    -0.238 N 
HETATM   14  C   UNL     1       4.398   0.719   3.588  1.00  0.00     0.150 A 
HETATM   15  N   UNL     1       4.439   2.047   3.562  1.00  0.00    -0.179 NA
BRANCH  13  16
HETATM   16  C   UNL     1       4.161   3.787   1.926  1.00  0.00     0.058 A 
HETATM   17  C   UNL     1       4.253   4.739   2.959  1.00  0.00     0.031 A 
HETATM   18  C   UNL     1       4.273   6.107   2.676  1.00  0.00     0.002 A 
HETATM   19  C   UNL     1       4.212   6.543   1.357  1.00  0.00     0.000 A 
HETATM   20  C   UNL     1       4.140   5.611   0.324  1.00  0.00     0.002 A 
HETATM   21  C   UNL     1       4.118   4.239   0.604  1.00  0.00     0.031 A 
ENDBRANCH  13  16
ENDBRANCH   1   5
BRANCH   2  22
HETATM   22  C   UNL     1       1.529  -3.153   4.331  1.00  0.00     0.100 A 
HETATM   23  C   UNL     1       0.411  -2.188   4.550  1.00  0.00     0.261 A 
HETATM   24  O   UNL     1       0.279  -1.173   3.869  1.00  0.00    -0.267 OA
HETATM   25  N   UNL     1      -0.465  -2.479   5.569  1.00  0.00    -0.322 N 
HETATM   26  C   UNL     1      -0.375  -3.585   6.381  1.00  0.00     0.045 A 
HETATM   27  H   UNL     1      -1.221  -1.819   5.706  1.00  0.00     0.169 HD
HETATM   28  C   UNL     1       0.614  -4.470   6.171  1.00  0.00     0.031 A 
HETATM   29  C   UNL     1       1.580  -4.245   5.118  1.00  0.00     0.025 A 
BRANCH  26  30
HETATM   30  C   UNL     1      -1.343  -3.733   7.482  1.00  0.00    -0.009 A 
HETATM   31  C   UNL     1      -1.608  -2.653   8.339  1.00  0.00     0.013 A 
HETATM   32  C   UNL     1      -2.518  -2.782   9.391  1.00  0.00     0.001 A 
HETATM   33  C   UNL     1      -3.174  -3.993   9.599  1.00  0.00     0.000 A 
HETATM   34  C   UNL     1      -2.924  -5.073   8.755  1.00  0.00     0.001 A 
HETATM   35  C   UNL     1      -2.016  -4.944   7.701  1.00  0.00     0.013 A 
ENDBRANCH  26  30
ENDBRANCH   2  22
TORSDOF 4
