REMARK  3 active torsions:
REMARK  status: ('A' for Active; 'I' for Inactive)
REMARK    1  A    between atoms: C_7  and  C_8 
REMARK    2  A    between atoms: C_17  and  C_18 
REMARK       I    between atoms: C_18  and  N_19 
REMARK    3  A    between atoms: N_19  and  C_20 
ROOT
HETATM    1  C   UNL     1       2.523  -2.716   0.195  1.00  0.00     0.206 C 
HETATM    2  N   UNL     1       2.027  -3.087  -1.139  1.00  0.00    -0.084 N 
HETATM    3  C   UNL     1       2.180  -4.334  -1.685  1.00  0.00     0.725 A 
HETATM    4  N   UNL     1       1.568  -4.388  -2.839  1.00  0.00    -0.054 NA
HETATM    5  C   UNL     1       1.009  -3.142  -2.943  1.00  0.00     0.275 A 
HETATM    6  N   UNL     1       1.211  -2.325  -1.903  1.00  0.00    -0.149 NA
HETATM    7  N   UNL     1       2.874  -5.268  -1.011  1.00  0.00    -0.192 N 
HETATM    8  C   UNL     1       3.552  -5.008   0.174  1.00  0.00     0.037 C 
HETATM    9  C   UNL     1       4.377  -6.153   0.713  1.00  0.00     0.070 C 
HETATM   10  C   UNL     1       3.432  -3.794   0.771  1.00  0.00     0.063 C 
HETATM   11  H   UNL     1       3.038  -6.167  -1.457  1.00  0.00     0.184 HD
ENDROOT
BRANCH  10  12
HETATM   12  C   UNL     1       4.291  -3.478   1.944  1.00  0.00     0.256 C 
HETATM   13  N   UNL     1       3.610  -2.977   3.030  1.00  0.00    -0.323 N 
HETATM   14  H   UNL     1       2.614  -2.830   2.947  1.00  0.00     0.169 HD
HETATM   15  O   UNL     1       5.498  -3.672   1.855  1.00  0.00    -0.267 OA
BRANCH  13  16
HETATM   16  C   UNL     1       4.169  -2.622   4.280  1.00  0.00     0.035 A 
HETATM   17  C   UNL     1       5.508  -2.828   4.625  1.00  0.00     0.029 A 
HETATM   18  C   UNL     1       5.984  -2.462   5.888  1.00  0.00     0.002 A 
HETATM   19  C   UNL     1       5.128  -1.880   6.818  1.00  0.00     0.000 A 
HETATM   20  C   UNL     1       3.793  -1.667   6.487  1.00  0.00     0.002 A 
HETATM   21  C   UNL     1       3.316  -2.039   5.226  1.00  0.00     0.029 A 
ENDBRANCH  13  16
ENDBRANCH  10  12
BRANCH   1  22
HETATM   22  C   UNL     1       3.104  -1.326   0.177  1.00  0.00     0.015 A 
HETATM   23  C   UNL     1       2.448  -0.127   0.432  1.00  0.00     0.036 A 
HETATM   24  C   UNL     1       1.022   0.163   0.736  1.00  0.00     0.070 C 
HETATM   25  N   UNL     1       3.400   0.854   0.311  1.00  0.00    -0.278 N 
HETATM   26  C   UNL     1       3.228   2.278   0.486  1.00  0.00     0.179 C 
HETATM   27  N   UNL     1       4.609   0.383  -0.031  1.00  0.00    -0.185 NA
HETATM   28  C   UNL     1       4.431  -0.935  -0.120  1.00  0.00     0.150 A 
ENDBRANCH   1  22
TORSDOF 3
