REMARK  8 active torsions:
REMARK  status: ('A' for Active; 'I' for Inactive)
REMARK    1  A    between atoms: C_6  and  N_7 
REMARK       I    between atoms: N_7  and  C_8 
REMARK    2  A    between atoms: C_8  and  C_9 
REMARK    3  A    between atoms: C_10  and  N_11 
REMARK       I    between atoms: N_11  and  C_12 
REMARK    4  A    between atoms: C_12  and  C_13 
REMARK    5  A    between atoms: C_13  and  N_14 
REMARK    6  A    between atoms: N_14  and  C_17 
REMARK    7  A    between atoms: C_17  and  C_18 
REMARK    8  A    between atoms: C_30  and  C_31 
ROOT
HETATM    1  C   UNL     1       6.609  -2.611  -0.106  1.00  0.00     0.073 A 
HETATM    2  C   UNL     1       7.191  -3.756  -0.650  1.00  0.00     0.093 A 
HETATM    3  S   UNL     1       6.090  -5.000  -0.949  1.00  0.00    -0.075 SA
HETATM    4  C   UNL     1       4.821  -4.123  -0.241  1.00  0.00    -0.008 A 
HETATM    5  C   UNL     1       5.212  -2.870   0.201  1.00  0.00    -0.026 A 
HETATM    6  C   UNL     1       4.226  -1.992   0.917  1.00  0.00     0.041 C 
HETATM    7  C   UNL     1       3.030  -2.783   1.471  1.00  0.00     0.010 C 
HETATM    8  C   UNL     1       2.403  -3.708   0.398  1.00  0.00    -0.002 C 
HETATM    9  C   UNL     1       3.460  -4.743  -0.076  1.00  0.00     0.052 C 
ENDROOT
BRANCH   2  10
HETATM   10  N   UNL     1       8.549  -3.922  -0.885  1.00  0.00    -0.319 N 
HETATM   11  C   UNL     1       9.175  -4.954  -1.539  1.00  0.00     0.248 C 
HETATM   12  O   UNL     1       8.683  -5.844  -2.227  1.00  0.00    -0.271 OA
HETATM   13  H   UNL     1       9.103  -3.141  -0.524  1.00  0.00     0.169 HD
BRANCH  11  14
HETATM   14  C   UNL     1      10.697  -4.909  -1.404  1.00  0.00     0.335 C 
BRANCH  14  15
HETATM   15  N   UNL     1      11.364  -5.503  -2.617  1.00  0.00    -0.063 N 
HETATM   16  H   UNL     1      12.327  -5.784  -2.400  1.00  0.00     0.278 HD
HETATM   17  H   UNL     1      10.848  -6.371  -2.840  1.00  0.00     0.278 HD
BRANCH  15  18
HETATM   18  C   UNL     1      11.337  -4.635  -3.829  1.00  0.00     0.272 C 
BRANCH  18  19
HETATM   19  C   UNL     1      12.256  -5.149  -4.888  1.00  0.00    -0.015 A 
HETATM   20  C   UNL     1      11.789  -5.982  -5.899  1.00  0.00     0.125 A 
HETATM   21  N   UNL     1      12.577  -6.512  -6.855  1.00  0.00    -0.273 NA
HETATM   22  C   UNL     1      13.889  -6.195  -6.827  1.00  0.00     0.116 A 
HETATM   23  C   UNL     1      14.453  -5.374  -5.867  1.00  0.00     0.020 A 
HETATM   24  C   UNL     1      13.624  -4.848  -4.880  1.00  0.00     0.012 A 
ENDBRANCH  18  19
ENDBRANCH  15  18
ENDBRANCH  14  15
ENDBRANCH  11  14
ENDBRANCH   2  10
BRANCH   1  25
HETATM   25  C   UNL     1       7.449  -1.407   0.103  1.00  0.00     0.259 C 
HETATM   26  N   UNL     1       6.785  -0.213   0.289  1.00  0.00    -0.322 N 
HETATM   27  H   UNL     1       5.819  -0.265   0.560  1.00  0.00     0.169 HD
HETATM   28  O   UNL     1       8.676  -1.527   0.088  1.00  0.00    -0.267 OA
BRANCH  26  29
HETATM   29  C   UNL     1       7.391   1.049   0.489  1.00  0.00     0.041 A 
HETATM   30  C   UNL     1       8.518   1.527  -0.202  1.00  0.00    -0.035 A 
HETATM   31  C   UNL     1       9.063   2.774   0.170  1.00  0.00     0.015 A 
HETATM   32  C   UNL     1       9.159   0.833  -1.372  1.00  0.00     0.050 C 
HETATM   33  C   UNL     1       8.467   3.573   1.151  1.00  0.00    -0.061 A 
HETATM   34  C   UNL     1       9.088   4.877   1.556  1.00  0.00     0.048 C 
HETATM   35  C   UNL     1       7.308   3.117   1.777  1.00  0.00     0.009 A 
HETATM   36  C   UNL     1       6.768   1.875   1.436  1.00  0.00     0.030 A 
ENDBRANCH  26  29
ENDBRANCH   1  25
BRANCH   8  37
HETATM   37  C   UNL     1       1.045  -4.364   0.852  1.00  0.00    -0.047 C 
HETATM   38  C   UNL     1      -0.023  -3.271   1.083  1.00  0.00     0.015 C 
HETATM   39  C   UNL     1       0.507  -5.302  -0.250  1.00  0.00     0.015 C 
HETATM   40  C   UNL     1       1.182  -5.176   2.154  1.00  0.00     0.015 C 
ENDBRANCH   8  37
TORSDOF 8
