REMARK  6 active torsions:
REMARK  status: ('A' for Active; 'I' for Inactive)
REMARK    1  A    between atoms: C_2  and  C_3 
REMARK    2  A    between atoms: C_13  and  C_14 
REMARK       I    between atoms: C_14  and  N_15 
REMARK    3  A    between atoms: N_15  and  C_16 
REMARK    4  A    between atoms: C_16  and  C_17 
REMARK    5  A    between atoms: C_17  and  C_18 
REMARK    6  A    between atoms: C_18  and  C_19 
ROOT
HETATM    1  C   UNL     1      -1.111  -2.582   0.201  1.00  0.00     0.251 C 
HETATM    2  N   UNL     1      -0.397  -3.719  -0.115  1.00  0.00    -0.357 N 
HETATM    3  O   UNL     1      -2.289  -2.600   0.538  1.00  0.00    -0.268 OA
HETATM    4  H   UNL     1       0.513  -3.643  -0.543  1.00  0.00     0.162 HD
ENDROOT
BRANCH   1   5
HETATM    5  C   UNL     1      -0.398  -1.277   0.078  1.00  0.00     0.032 A 
HETATM    6  C   UNL     1       0.996  -1.165   0.072  1.00  0.00     0.017 A 
HETATM    7  C   UNL     1       1.611   0.089  -0.072  1.00  0.00     0.008 A 
HETATM    8  C   UNL     1       0.849   1.259  -0.190  1.00  0.00    -0.052 A 
HETATM    9  C   UNL     1      -0.552   1.133  -0.167  1.00  0.00     0.008 A 
HETATM   10  C   UNL     1      -1.166  -0.116  -0.033  1.00  0.00     0.017 A 
BRANCH   8  11
HETATM   11  C   UNL     1       1.444   2.652  -0.357  1.00  0.00     0.044 C 
HETATM   12  C   UNL     1       2.310   3.112   0.828  1.00  0.00     0.241 C 
HETATM   13  N   UNL     1       3.730   2.654   0.709  1.00  0.00    -0.074 N 
HETATM   14  H   UNL     1       3.782   1.640   0.864  1.00  0.00     0.277 HD
HETATM   15  H   UNL     1       4.269   3.066   1.483  1.00  0.00     0.277 HD
HETATM   16  C   UNL     1       4.390   3.017  -0.578  1.00  0.00     0.232 C 
HETATM   17  C   UNL     1       3.607   2.424  -1.736  1.00  0.00     0.028 C 
HETATM   18  C   UNL     1       2.142   2.854  -1.714  1.00  0.00     0.013 C 
ENDBRANCH   8  11
ENDBRANCH   1   5
BRANCH   2  19
HETATM   19  C   UNL     1      -1.030  -5.026  -0.150  1.00  0.00     0.123 C 
BRANCH  19  20
HETATM   20  C   UNL     1      -1.757  -5.290  -1.469  1.00  0.00     0.026 C 
BRANCH  20  21
HETATM   21  C   UNL     1      -0.809  -5.224  -2.668  1.00  0.00     0.061 C 
BRANCH  21  22
HETATM   22  C   UNL     1      -1.446  -5.643  -3.952  1.00  0.00     0.044 A 
HETATM   23  N   UNL     1      -0.876  -6.694  -4.653  1.00  0.00    -0.229 NA
HETATM   24  C   UNL     1      -1.529  -6.907  -5.768  1.00  0.00     0.164 A 
HETATM   25  N   UNL     1      -1.192  -7.866  -6.644  1.00  0.00    -0.378 N 
HETATM   26  S   UNL     1      -2.875  -5.878  -6.040  1.00  0.00    -0.062 SA
HETATM   27  H   UNL     1      -0.584  -8.593  -6.283  1.00  0.00     0.158 HD
HETATM   28  H   UNL     1      -1.908  -8.200  -7.277  1.00  0.00     0.158 HD
HETATM   29  C   UNL     1      -2.545  -5.072  -4.565  1.00  0.00     0.080 A 
ENDBRANCH  21  22
ENDBRANCH  20  21
ENDBRANCH  19  20
ENDBRANCH   2  19
TORSDOF 6
