REMARK  4 active torsions:
REMARK  status: ('A' for Active; 'I' for Inactive)
REMARK    1  A    between atoms: C_10  and  C_11 
REMARK    2  A    between atoms: N_14  and  C_16 
REMARK    3  A    between atoms: C_16  and  C_17 
REMARK    4  A    between atoms: C_18  and  C_19 
ROOT
HETATM    1  C   UNL     1      -4.574   4.731   0.221  1.00  0.00    -0.036 A 
HETATM    2  C   UNL     1      -5.826   5.346   0.110  1.00  0.00     0.013 A 
HETATM    3  C   UNL     1      -6.074   6.571   0.740  1.00  0.00     0.023 A 
HETATM    4  C   UNL     1      -5.076   7.188   1.500  1.00  0.00     0.044 A 
HETATM    5  C   UNL     1      -5.328   8.443   2.144  1.00  0.00     0.099 C 
HETATM    6  N   UNL     1      -5.528   9.458   2.668  1.00  0.00    -0.191 NA
HETATM    7  C   UNL     1      -3.829   6.570   1.631  1.00  0.00     0.023 A 
HETATM    8  C   UNL     1      -3.582   5.347   0.999  1.00  0.00     0.013 A 
ENDROOT
BRANCH   1   9
HETATM    9  C   UNL     1      -4.345   3.436  -0.435  1.00  0.00     0.009 C 
HETATM   10  C   UNL     1      -3.229   3.184  -1.139  1.00  0.00     0.001 C 
BRANCH  10  11
HETATM   11  C   UNL     1      -2.851   1.909  -1.819  1.00  0.00     0.262 C 
BRANCH  11  12
HETATM   12  N   UNL     1      -3.158   0.629  -1.066  1.00  0.00    -0.068 N 
HETATM   13  C   UNL     1      -2.725  -0.561  -1.901  1.00  0.00     0.236 C 
HETATM   14  C   UNL     1      -2.925  -1.874  -1.150  1.00  0.00     0.037 C 
HETATM   15  C   UNL     1      -2.216  -1.875   0.219  1.00  0.00     0.024 C 
HETATM   16  C   UNL     1      -2.826  -0.708   1.002  1.00  0.00     0.037 C 
HETATM   17  C   UNL     1      -2.551   0.624   0.321  1.00  0.00     0.236 C 
HETATM   18  H   UNL     1      -4.178   0.584  -0.962  1.00  0.00     0.280 HD
BRANCH  15  19
HETATM   19  C   UNL     1      -0.697  -1.832   0.107  1.00  0.00    -0.024 A 
HETATM   20  C   UNL     1       0.273  -1.332   1.055  1.00  0.00     0.018 A 
HETATM   21  C   UNL     1       1.523  -1.420   0.448  1.00  0.00     0.138 A 
HETATM   22  C   UNL     1       0.264  -0.792   2.358  1.00  0.00     0.017 A 
HETATM   23  N   UNL     1       2.709  -1.004   0.923  1.00  0.00    -0.242 NA
HETATM   24  N   UNL     1       1.371  -2.042  -0.754  1.00  0.00    -0.350 N 
HETATM   25  C   UNL     1       2.634  -0.474   2.160  1.00  0.00     0.119 A 
HETATM   26  C   UNL     1       1.473  -0.354   2.906  1.00  0.00     0.020 A 
HETATM   27  H   UNL     1       2.146  -2.271  -1.362  1.00  0.00     0.166 HD
HETATM   28  C   UNL     1       0.045  -2.309  -0.969  1.00  0.00     0.098 A 
ENDBRANCH  15  19
ENDBRANCH  11  12
ENDBRANCH  10  11
ENDBRANCH   1   9
TORSDOF 4
