REMARK  12 active torsions:
REMARK  status: ('A' for Active; 'I' for Inactive)
REMARK    1  A    between atoms: C_2  and  N_3 
REMARK    2  A    between atoms: N_3  and  C_5 
REMARK    3  A    between atoms: N_3  and  C_37 
REMARK    4  A    between atoms: C_5  and  C_6 
REMARK    5  A    between atoms: C_6  and  N_7 
REMARK    6  A    between atoms: N_7  and  C_8 
REMARK    7  A    between atoms: N_7  and  C_21 
REMARK    8  A    between atoms: C_8  and  N_9 
REMARK    9  A    between atoms: N_9  and  C_10 
REMARK   10  A    between atoms: C_11  and  C_12 
REMARK   11  A    between atoms: C_12  and  O_13 
REMARK   12  A    between atoms: C_21  and  C_22 
ROOT
HETATM    1  N   UNL     1       0.261  -0.176  -3.713  1.00  0.00    -0.352 N 
ENDROOT
BRANCH   1   2
HETATM    2  C   UNL     1       0.864  -0.692  -2.470  1.00  0.00     0.153 C 
BRANCH   2   3
HETATM    3  C   UNL     1       1.609   0.384  -1.651  1.00  0.00     0.254 C 
BRANCH   3   4
HETATM    4  N   UNL     1       2.151  -0.171  -0.327  1.00  0.00    -0.070 N 
HETATM    5  H   UNL     1       1.411  -0.745   0.098  1.00  0.00     0.279 HD
BRANCH   4   6
HETATM    6  C   UNL     1       2.486   0.946   0.651  1.00  0.00     0.230 C 
HETATM    7  C   UNL     1       1.224   1.584   1.207  1.00  0.00     0.034 C 
ENDBRANCH   4   6
BRANCH   4   8
HETATM    8  C   UNL     1       3.355  -1.080  -0.565  1.00  0.00     0.230 C 
HETATM    9  C   UNL     1       3.595  -1.985   0.632  1.00  0.00     0.034 C 
ENDBRANCH   4   8
ENDBRANCH   3   4
ENDBRANCH   2   3
ENDBRANCH   1   2
BRANCH   1  10
HETATM   10  C   UNL     1       1.057   0.190  -4.834  1.00  0.00     0.174 C 
HETATM   11  S   UNL     1       2.731   0.007  -4.900  1.00  0.00    -0.041 SA
BRANCH  10  12
HETATM   12  N   UNL     1       0.324   0.829  -5.815  1.00  0.00    -0.332 N 
HETATM   13  H   UNL     1      -0.359   1.503  -5.465  1.00  0.00     0.168 HD
BRANCH  12  14
HETATM   14  C   UNL     1       0.368   0.743  -7.231  1.00  0.00     0.050 A 
HETATM   15  C   UNL     1      -0.453   1.601  -8.007  1.00  0.00     0.066 A 
HETATM   16  C   UNL     1      -0.448   1.492  -9.410  1.00  0.00     0.020 A 
HETATM   17  C   UNL     1       0.341   0.534 -10.043  1.00  0.00     0.001 A 
HETATM   18  C   UNL     1       1.118  -0.332  -9.283  1.00  0.00     0.002 A 
HETATM   19  C   UNL     1       1.123  -0.235  -7.889  1.00  0.00     0.030 A 
BRANCH  15  20
HETATM   20  C   UNL     1      -1.367   2.581  -7.338  1.00  0.00     0.295 C 
HETATM   21  O   UNL     1      -1.494   2.660  -6.122  1.00  0.00    -0.259 OA
BRANCH  20  22
HETATM   22  O   UNL     1      -2.040   3.329  -8.247  1.00  0.00    -0.322 OA
HETATM   23  C   UNL     1      -2.974   4.251  -7.682  1.00  0.00     0.213 C 
ENDBRANCH  20  22
ENDBRANCH  15  20
ENDBRANCH  12  14
ENDBRANCH  10  12
ENDBRANCH   1  10
BRANCH   1  24
HETATM   24  C   UNL     1      -1.204  -0.348  -3.863  1.00  0.00     0.169 C 
BRANCH  24  25
HETATM   25  C   UNL     1      -1.676  -1.765  -3.684  1.00  0.00     0.029 A 
HETATM   26  C   UNL     1      -1.050  -2.843  -4.512  1.00  0.00     0.253 A 
HETATM   27  O   UNL     1      -0.135  -2.619  -5.297  1.00  0.00    -0.268 OA
HETATM   28  N   UNL     1      -1.522  -4.116  -4.339  1.00  0.00    -0.322 N 
HETATM   29  C   UNL     1      -2.589  -4.447  -3.498  1.00  0.00     0.048 A 
HETATM   30  H   UNL     1      -1.089  -4.829  -4.914  1.00  0.00     0.169 HD
HETATM   31  C   UNL     1      -3.203  -3.434  -2.751  1.00  0.00    -0.006 A 
HETATM   32  C   UNL     1      -3.040  -5.763  -3.426  1.00  0.00     0.070 A 
HETATM   33  C   UNL     1      -4.302  -3.740  -1.946  1.00  0.00     0.053 A 
HETATM   34  C   UNL     1      -2.694  -2.068  -2.858  1.00  0.00     0.028 A 
HETATM   35  C   UNL     1      -4.777  -5.050  -1.896  1.00  0.00     0.103 A 
HETATM   36  C   UNL     1      -4.130  -6.064  -2.611  1.00  0.00     0.104 A 
HETATM   37  O   UNL     1      -5.887  -5.270  -1.122  1.00  0.00    -0.346 OA
HETATM   38  O   UNL     1      -4.525  -7.377  -2.576  1.00  0.00    -0.346 OA
HETATM   39  C   UNL     1      -5.453  -7.624  -1.511  1.00  0.00     0.202 C 
HETATM   40  C   UNL     1      -6.501  -6.525  -1.444  1.00  0.00     0.202 C 
ENDBRANCH  24  25
ENDBRANCH   1  24
TORSDOF 12
