REMARK  6 active torsions:
REMARK  status: ('A' for Active; 'I' for Inactive)
REMARK    1  A    between atoms: C_4  and  N_5 
REMARK       I    between atoms: N_5  and  C_6 
REMARK       I    between atoms: C_6  and  N_7 
REMARK    2  A    between atoms: N_7  and  C_8 
REMARK    3  A    between atoms: C_11  and  C_12 
REMARK    4  A    between atoms: C_12  and  C_13 
REMARK       I    between atoms: C_13  and  N_14 
REMARK    5  A    between atoms: N_14  and  C_15 
REMARK    6  A    between atoms: C_17  and  C_18 
ROOT
HETATM    1  C   UNL     1       1.390  -1.935   1.428  1.00  0.00     0.174 A 
HETATM    2  S   UNL     1       1.271  -2.979   2.771  1.00  0.00    -0.062 SA
HETATM    3  C   UNL     1      -0.435  -2.769   2.758  1.00  0.00     0.081 A 
HETATM    4  C   UNL     1      -0.797  -1.926   1.723  1.00  0.00     0.052 A 
HETATM    5  N   UNL     1       0.266  -1.453   0.969  1.00  0.00    -0.228 NA
ENDROOT
BRANCH   4   6
HETATM    6  C   UNL     1      -2.173  -1.495   1.334  1.00  0.00     0.163 C 
BRANCH   6   7
HETATM    7  C   UNL     1      -2.408  -0.003   1.527  1.00  0.00     0.227 C 
HETATM    8  N   UNL     1      -1.393   0.801   1.037  1.00  0.00    -0.327 N 
HETATM    9  H   UNL     1      -0.549   0.311   0.723  1.00  0.00     0.169 HD
HETATM   10  O   UNL     1      -3.456   0.391   2.035  1.00  0.00    -0.273 OA
BRANCH   8  11
HETATM   11  C   UNL     1      -1.336   2.207   1.021  1.00  0.00     0.035 A 
HETATM   12  C   UNL     1      -2.415   3.036   1.342  1.00  0.00     0.048 A 
HETATM   13  C   UNL     1      -2.286   4.436   1.297  1.00  0.00     0.088 A 
HETATM   14  C   UNL     1      -1.058   4.986   0.944  1.00  0.00     0.131 A 
HETATM   15  F   UNL     1      -0.903   6.316   0.910  1.00  0.00    -0.205 F 
HETATM   16  C   UNL     1       0.024   4.177   0.618  1.00  0.00     0.045 A 
HETATM   17  C   UNL     1      -0.118   2.789   0.647  1.00  0.00     0.032 A 
BRANCH  13  18
HETATM   18  C   UNL     1      -3.429   5.348   1.621  1.00  0.00     0.420 C 
HETATM   19  F   UNL     1      -4.605   4.690   1.834  1.00  0.00    -0.166 F 
HETATM   20  F   UNL     1      -3.215   6.084   2.747  1.00  0.00    -0.166 F 
HETATM   21  F   UNL     1      -3.694   6.243   0.628  1.00  0.00    -0.166 F 
ENDBRANCH  13  18
ENDBRANCH   8  11
ENDBRANCH   6   7
ENDBRANCH   4   6
BRANCH   1  22
HETATM   22  N   UNL     1       2.657  -1.748   0.954  1.00  0.00    -0.287 N 
HETATM   23  C   UNL     1       2.928  -0.824  -0.037  1.00  0.00     0.326 C 
HETATM   24  N   UNL     1       4.216  -1.004  -0.525  1.00  0.00    -0.309 N 
HETATM   25  O   UNL     1       2.138   0.027  -0.427  1.00  0.00    -0.247 OA
HETATM   26  H   UNL     1       4.699  -1.830  -0.210  1.00  0.00     0.170 HD
HETATM   27  H   UNL     1       3.401  -2.220   1.438  1.00  0.00     0.172 HD
BRANCH  24  28
HETATM   28  C   UNL     1       4.860  -0.275  -1.548  1.00  0.00     0.036 A 
HETATM   29  C   UNL     1       4.330   0.867  -2.150  1.00  0.00     0.029 A 
HETATM   30  C   UNL     1       5.029   1.520  -3.171  1.00  0.00     0.002 A 
HETATM   31  C   UNL     1       6.264   1.039  -3.597  1.00  0.00     0.000 A 
HETATM   32  C   UNL     1       6.806  -0.094  -2.998  1.00  0.00     0.002 A 
HETATM   33  C   UNL     1       6.109  -0.746  -1.977  1.00  0.00     0.029 A 
ENDBRANCH  24  28
ENDBRANCH   1  22
TORSDOF 6
