REMARK  3 active torsions:
REMARK  status: ('A' for Active; 'I' for Inactive)
REMARK    1  A    between atoms: C_7  and  C_8 
REMARK       I    between atoms: C_8  and  N_9 
REMARK    2  A    between atoms: N_9  and  C_10 
REMARK    3  A    between atoms: C_13  and  C_14 
REMARK       I    between atoms: C_14  and  N_15 
ROOT
HETATM    1  C   UNL     1       5.272  -2.194   0.360  1.00  0.00     0.256 C 
HETATM    2  N   UNL     1       6.646  -2.035   0.404  1.00  0.00    -0.322 N 
HETATM    3  O   UNL     1       4.677  -3.255   0.514  1.00  0.00    -0.267 OA
HETATM    4  H   UNL     1       7.030  -1.133   0.162  1.00  0.00     0.169 HD
ENDROOT
BRANCH   2   5
HETATM    5  C   UNL     1       7.594  -3.033   0.726  1.00  0.00     0.052 A 
HETATM    6  C   UNL     1       7.294  -4.359   1.037  1.00  0.00     0.147 A 
HETATM    7  N   UNL     1       8.220  -5.299   1.362  1.00  0.00    -0.253 NA
HETATM    8  C   UNL     1       9.517  -4.890   1.380  1.00  0.00     0.124 A 
HETATM    9  C   UNL     1       9.921  -3.596   1.085  1.00  0.00     0.039 A 
HETATM   10  C   UNL     1       8.942  -2.660   0.751  1.00  0.00     0.033 A 
BRANCH   8  11
HETATM   11  C   UNL     1      10.535  -5.923   1.750  1.00  0.00     0.268 C 
HETATM   12  N   UNL     1      10.033  -7.169   2.012  1.00  0.00    -0.365 N 
HETATM   13  H   UNL     1       9.032  -7.323   1.949  1.00  0.00     0.159 HD
HETATM   14  H   UNL     1      10.655  -7.919   2.272  1.00  0.00     0.159 HD
HETATM   15  O   UNL     1      11.733  -5.678   1.814  1.00  0.00    -0.266 OA
ENDBRANCH   8  11
ENDBRANCH   2   5
BRANCH   1  16
HETATM   16  C   UNL     1       4.465  -0.964   0.085  1.00  0.00     0.034 A 
HETATM   17  C   UNL     1       4.944   0.328   0.326  1.00  0.00     0.041 A 
HETATM   18  C   UNL     1       4.127   1.428   0.059  1.00  0.00     0.035 A 
HETATM   19  C   UNL     1       2.830   1.259  -0.425  1.00  0.00     0.030 A 
HETATM   20 CL   UNL     1       4.729   3.016   0.340  1.00  0.00    -0.084 Cl
HETATM   21  C   UNL     1       2.324  -0.027  -0.635  1.00  0.00    -0.059 A 
HETATM   22  C   UNL     1       0.930  -0.231  -1.152  1.00  0.00     0.048 C 
HETATM   23  C   UNL     1       3.153  -1.132  -0.392  1.00  0.00     0.024 A 
ENDBRANCH   1  16
TORSDOF 3
