REMARK  8 active torsions:
REMARK  status: ('A' for Active; 'I' for Inactive)
REMARK    1  A    between atoms: O_2  and  C_3 
REMARK    2  A    between atoms: C_4  and  O_5 
REMARK    3  A    between atoms: C_8  and  N_9 
REMARK       I    between atoms: N_9  and  C_10 
REMARK    4  A    between atoms: C_10  and  C_11 
REMARK       I    between atoms: C_11  and  N_12 
REMARK    5  A    between atoms: N_12  and  C_13 
REMARK    6  A    between atoms: C_13  and  C_14 
REMARK    7  A    between atoms: C_14  and  S_15 
REMARK    8  A    between atoms: S_15  and  C_16 
ROOT
HETATM    1  C   UNL     1       4.688   1.212  -6.115  1.00  0.00     0.309 C 
HETATM    2  N   UNL     1       5.892   0.861  -6.675  1.00  0.00    -0.351 N 
HETATM    3  O   UNL     1       3.637   1.388  -6.717  1.00  0.00    -0.262 OA
HETATM    4  H   UNL     1       6.696   0.834  -6.050  1.00  0.00     0.162 HD
ENDROOT
BRANCH   1   5
HETATM    5  C   UNL     1       4.740   1.425  -4.586  1.00  0.00     0.313 C 
HETATM    6  N   UNL     1       3.519   1.827  -4.089  1.00  0.00    -0.319 N 
HETATM    7  H   UNL     1       2.787   1.903  -4.793  1.00  0.00     0.169 HD
HETATM    8  O   UNL     1       5.798   1.246  -4.001  1.00  0.00    -0.262 OA
BRANCH   6   9
HETATM    9  C   UNL     1       3.191   2.168  -2.765  1.00  0.00     0.037 A 
HETATM   10  C   UNL     1       4.099   2.115  -1.703  1.00  0.00     0.069 A 
HETATM   11  C   UNL     1       3.709   2.489  -0.409  1.00  0.00     0.103 A 
HETATM   12  C   UNL     1       2.393   2.931  -0.184  1.00  0.00     0.101 A 
HETATM   13  C   UNL     1       1.479   2.960  -1.239  1.00  0.00     0.042 A 
HETATM   14  C   UNL     1       1.879   2.584  -2.523  1.00  0.00     0.032 A 
BRANCH  11  15
HETATM   15  O   UNL     1       4.533   2.475   0.688  1.00  0.00    -0.353 OA
HETATM   16  C   UNL     1       5.885   2.085   0.491  1.00  0.00     0.210 C 
ENDBRANCH  11  15
BRANCH  12  17
HETATM   17  O   UNL     1       2.056   3.269   1.104  1.00  0.00    -0.353 OA
HETATM   18  C   UNL     1       1.137   4.349   1.225  1.00  0.00     0.210 C 
ENDBRANCH  12  17
ENDBRANCH   6   9
ENDBRANCH   1   5
BRANCH   2  19
HETATM   19  C   UNL     1       6.106   0.721  -8.105  1.00  0.00     0.144 C 
BRANCH  19  20
HETATM   20  C   UNL     1       6.784   1.958  -8.782  1.00  0.00     0.033 C 
HETATM   21  C   UNL     1       7.024   1.647 -10.275  1.00  0.00     0.049 C 
HETATM   22  C   UNL     1       5.718   1.637 -11.065  1.00  0.00     0.169 C 
HETATM   23  O   UNL     1       5.014   2.864 -10.894  1.00  0.00    -0.391 OA
HETATM   24  C   UNL     1       4.656   3.110  -9.535  1.00  0.00     0.169 C 
HETATM   25  C   UNL     1       5.906   3.220  -8.666  1.00  0.00     0.049 C 
BRANCH  20  26
HETATM   26  S   UNL     1       8.422   2.167  -7.881  1.00  0.00    -0.118 SA
BRANCH  26  27
HETATM   27  C   UNL     1       9.167   3.579  -8.670  1.00  0.00     0.001 A 
HETATM   28  C   UNL     1       8.955   4.864  -8.163  1.00  0.00     0.018 A 
HETATM   29  C   UNL     1       9.571   5.968  -8.758  1.00  0.00     0.001 A 
HETATM   30  C   UNL     1      10.417   5.790  -9.850  1.00  0.00     0.000 A 
HETATM   31  C   UNL     1      10.658   4.508 -10.342  1.00  0.00     0.001 A 
HETATM   32  C   UNL     1      10.042   3.405  -9.747  1.00  0.00     0.018 A 
ENDBRANCH  26  27
ENDBRANCH  20  26
ENDBRANCH  19  20
ENDBRANCH   2  19
TORSDOF 8
