REMARK  4 active torsions:
REMARK  status: ('A' for Active; 'I' for Inactive)
REMARK    1  A    between atoms: C_2  and  C_3 
REMARK       I    between atoms: C_3  and  N_4 
REMARK    2  A    between atoms: N_4  and  C_5 
REMARK    3  A    between atoms: C_12  and  C_13 
REMARK       I    between atoms: C_13  and  N_14 
REMARK    4  A    between atoms: C_19  and  C_20 
ROOT
HETATM    1  C   UNL     1       5.833  -1.441  -1.837  1.00  0.00     0.036 A 
HETATM    2  C   UNL     1       6.147  -0.816  -3.052  1.00  0.00     0.046 A 
HETATM    3  C   UNL     1       7.249  -1.274  -3.806  1.00  0.00     0.030 A 
HETATM    4  C   UNL     1       7.986  -2.351  -3.330  1.00  0.00     0.063 A 
HETATM    5  N   UNL     1       8.958  -2.568  -4.266  1.00  0.00    -0.277 N 
HETATM    6  H   UNL     1       9.675  -3.285  -4.251  1.00  0.00     0.189 HD
HETATM    7  N   UNL     1       8.936  -1.713  -5.301  1.00  0.00    -0.168 NA
HETATM    8  C   UNL     1       7.888  -0.902  -5.028  1.00  0.00     0.156 A 
HETATM    9  C   UNL     1       7.701  -2.998  -2.126  1.00  0.00     0.034 A 
HETATM   10  C   UNL     1       6.617  -2.511  -1.386  1.00  0.00     0.032 A 
ENDROOT
BRANCH   1  11
HETATM   11  N   UNL     1       4.766  -1.040  -1.008  1.00  0.00    -0.323 N 
HETATM   12  C   UNL     1       3.784  -0.118  -1.296  1.00  0.00     0.251 C 
HETATM   13  O   UNL     1       3.580   0.463  -2.353  1.00  0.00    -0.268 OA
HETATM   14  H   UNL     1       4.707  -1.487  -0.103  1.00  0.00     0.169 HD
BRANCH  12  15
HETATM   15  C   UNL     1       2.846   0.090  -0.152  1.00  0.00     0.007 C 
HETATM   16  C   UNL     1       1.432  -0.310  -0.442  1.00  0.00     0.054 C 
HETATM   17  C   UNL     1       3.234   0.621   1.023  1.00  0.00     0.023 C 
BRANCH  17  18
HETATM   18  C   UNL     1       4.570   1.122   1.381  1.00  0.00    -0.034 A 
HETATM   19  C   UNL     1       5.106   0.789   2.632  1.00  0.00     0.035 A 
HETATM   20  C   UNL     1       6.356   1.282   3.012  1.00  0.00     0.034 A 
HETATM   21 CL   UNL     1       7.006   0.860   4.548  1.00  0.00    -0.084 Cl
HETATM   22  C   UNL     1       7.079   2.115   2.161  1.00  0.00     0.024 A 
HETATM   23  C   UNL     1       6.545   2.465   0.923  1.00  0.00     0.003 A 
HETATM   24  C   UNL     1       5.292   1.979   0.540  1.00  0.00     0.011 A 
ENDBRANCH  17  18
ENDBRANCH  12  15
ENDBRANCH   1  11
BRANCH   8  25
HETATM   25  C   UNL     1       7.533   0.207  -5.925  1.00  0.00     0.270 C 
HETATM   26  N   UNL     1       8.332   0.308  -7.031  1.00  0.00    -0.365 N 
HETATM   27  H   UNL     1       9.091  -0.354  -7.142  1.00  0.00     0.159 HD
HETATM   28  H   UNL     1       8.178   1.053  -7.691  1.00  0.00     0.159 HD
HETATM   29  O   UNL     1       6.619   1.001  -5.729  1.00  0.00    -0.266 OA
ENDBRANCH   8  25
TORSDOF 4
