REMARK  4 active torsions:
REMARK  status: ('A' for Active; 'I' for Inactive)
REMARK    1  A    between atoms: N_1  and  C_2 
REMARK    2  A    between atoms: C_2  and  C_3 
REMARK    3  A    between atoms: C_3  and  C_4 
REMARK    4  A    between atoms: N_13  and  C_16 
ROOT
HETATM    1  C   UNL     1       2.454   0.002  -0.013  1.00  0.00     0.162 C 
HETATM    2  C   UNL     1       3.160  -1.346  -0.318  1.00  0.00     0.061 C 
HETATM    3  C   UNL     1       3.033  -1.801  -1.774  1.00  0.00     0.125 C 
HETATM    4  N   UNL     1       3.481  -0.716  -2.653  1.00  0.00    -0.380 N 
HETATM    5  C   UNL     1       2.680   0.514  -2.519  1.00  0.00     0.125 C 
HETATM    6  C   UNL     1       2.827   1.042  -1.094  1.00  0.00     0.061 C 
ENDROOT
BRANCH   1   7
HETATM    7  N   UNL     1       0.992  -0.201  -0.003  1.00  0.00     0.088 N 
HETATM    8  H   UNL     1       0.725  -0.825   0.758  1.00  0.00     0.313 HD
HETATM    9  H   UNL     1       0.657  -0.625  -0.863  1.00  0.00     0.313 HD
ENDBRANCH   1   7
BRANCH   1  10
HETATM   10  C   UNL     1       2.928   0.478   1.401  1.00  0.00     0.079 C 
BRANCH  10  11
HETATM   11  C   UNL     1       2.508   1.867   1.834  1.00  0.00    -0.056 A 
HETATM   12  C   UNL     1       1.238   2.094   2.383  1.00  0.00     0.009 A 
HETATM   13  C   UNL     1       0.860   3.375   2.790  1.00  0.00     0.024 A 
HETATM   14  C   UNL     1       1.748   4.438   2.649  1.00  0.00     0.034 A 
HETATM   15 CL   UNL     1       1.282   6.017   3.148  1.00  0.00    -0.084 Cl
HETATM   16  C   UNL     1       3.013   4.230   2.105  1.00  0.00     0.024 A 
HETATM   17  C   UNL     1       3.393   2.948   1.701  1.00  0.00     0.009 A 
ENDBRANCH  10  11
ENDBRANCH   1  10
BRANCH   4  18
HETATM   18  C   UNL     1       3.975  -0.989  -3.921  1.00  0.00     0.045 A 
HETATM   19  C   UNL     1       3.618  -2.143  -4.647  1.00  0.00     0.047 A 
HETATM   20  C   UNL     1       4.154  -2.419  -5.901  1.00  0.00     0.092 A 
HETATM   21  N   UNL     1       5.039  -1.596  -6.469  1.00  0.00    -0.351 N 
HETATM   22  H   UNL     1       5.430  -1.808  -7.385  1.00  0.00     0.166 HD
HETATM   23  C   UNL     1       5.416  -0.480  -5.797  1.00  0.00     0.117 A 
HETATM   24  N   UNL     1       6.317   0.469  -6.204  1.00  0.00    -0.352 N 
HETATM   25  C   UNL     1       4.927  -0.139  -4.544  1.00  0.00     0.036 A 
HETATM   26  H   UNL     1       6.833   0.488  -7.075  1.00  0.00     0.166 HD
HETATM   27  C   UNL     1       6.440   1.416  -5.219  1.00  0.00     0.090 A 
HETATM   28  C   UNL     1       5.605   1.061  -4.181  1.00  0.00     0.034 A 
ENDBRANCH   4  18
TORSDOF 4
