REMARK  6 active torsions:
REMARK  status: ('A' for Active; 'I' for Inactive)
REMARK    1  A    between atoms: C_2  and  N_3 
REMARK    2  A    between atoms: C_4  and  C_20 
REMARK    3  A    between atoms: C_10  and  C_11 
REMARK    4  A    between atoms: C_14  and  C_15 
REMARK    5  A    between atoms: C_15  and  N_16 
REMARK    6  A    between atoms: C_24  and  N_25 
ROOT
HETATM    1  N   UNL     1       2.942   1.169  -0.736  1.00  0.00    -0.327 N 
HETATM    2  C   UNL     1       2.615   2.473  -0.397  1.00  0.00     0.166 A 
HETATM    3  N   UNL     1       3.267   3.328  -1.164  1.00  0.00    -0.225 NA
HETATM    4  C   UNL     1       4.022   2.575  -2.022  1.00  0.00     0.104 A 
HETATM    5  C   UNL     1       4.870   3.007  -3.047  1.00  0.00     0.150 A 
HETATM    6  N   UNL     1       5.552   2.115  -3.800  1.00  0.00    -0.270 NA
HETATM    7  C   UNL     1       5.398   0.800  -3.523  1.00  0.00     0.131 A 
HETATM    8  C   UNL     1       4.583   0.252  -2.521  1.00  0.00     0.021 A 
HETATM    9  C   UNL     1       3.870   1.208  -1.768  1.00  0.00     0.079 A 
ENDROOT
BRANCH   8  10
HETATM   10  C   UNL     1       4.546  -1.189  -2.309  1.00  0.00    -0.022 A 
HETATM   11  C   UNL     1       5.313  -1.783  -1.295  1.00  0.00     0.013 A 
HETATM   12  C   UNL     1       5.322  -3.170  -1.120  1.00  0.00     0.010 A 
HETATM   13  C   UNL     1       4.571  -4.002  -1.961  1.00  0.00    -0.031 A 
HETATM   14  C   UNL     1       3.826  -3.411  -2.991  1.00  0.00     0.010 A 
HETATM   15  C   UNL     1       3.807  -2.023  -3.158  1.00  0.00     0.013 A 
BRANCH  13  16
HETATM   16  C   UNL     1       4.658  -5.502  -1.805  1.00  0.00     0.305 C 
BRANCH  16  17
HETATM   17  N   UNL     1       3.401  -6.181  -2.104  1.00  0.00     0.082 N 
HETATM   18  H   UNL     1       2.690  -5.857  -1.450  1.00  0.00     0.313 HD
HETATM   19  H   UNL     1       3.515  -7.178  -1.934  1.00  0.00     0.313 HD
ENDBRANCH  16  17
ENDBRANCH  13  16
ENDBRANCH   8  10
BRANCH   1  20
HETATM   20  C   UNL     1       2.366  -0.025  -0.144  1.00  0.00     0.126 C 
HETATM   21  C   UNL     1       1.069  -0.440  -0.816  1.00  0.00     0.027 C 
ENDBRANCH   1  20
BRANCH   2  22
HETATM   22  C   UNL     1       1.669   2.945   0.671  1.00  0.00     0.179 A 
HETATM   23  N   UNL     1       0.987   2.144   1.493  1.00  0.00    -0.097 NA
HETATM   24  O   UNL     1       0.273   3.003   2.322  1.00  0.00    -0.104 OA
HETATM   25  N   UNL     1       0.520   4.333   2.008  1.00  0.00    -0.085 NA
HETATM   26  C   UNL     1       1.368   4.297   0.983  1.00  0.00     0.186 A 
BRANCH  26  27
HETATM   27  N   UNL     1       1.863   5.382   0.355  1.00  0.00    -0.380 N 
HETATM   28  H   UNL     1       1.778   6.298   0.776  1.00  0.00     0.158 HD
HETATM   29  H   UNL     1       2.624   5.269  -0.314  1.00  0.00     0.158 HD
ENDBRANCH  26  27
ENDBRANCH   2  22
TORSDOF 6
