REMARK  8 active torsions:
REMARK  status: ('A' for Active; 'I' for Inactive)
REMARK    1  A    between atoms: C_2  and  O_3 
REMARK    2  A    between atoms: O_3  and  C_4 
REMARK    3  A    between atoms: C_7  and  N_8 
REMARK       I    between atoms: N_8  and  C_9 
REMARK    4  A    between atoms: C_9  and  C_10 
REMARK    5  A    between atoms: C_12  and  N_13 
REMARK    6  A    between atoms: N_16  and  C_18 
REMARK    7  A    between atoms: C_18  and  C_19 
REMARK    8  A    between atoms: C_18  and  C_25 
ROOT
HETATM    1  C   UNL     1       8.271  -4.390   0.321  1.00  0.00     0.200 C 
HETATM    2  N   UNL     1       7.595  -4.067  -0.945  1.00  0.00    -0.211 N 
HETATM    3  C   UNL     1       6.958  -5.044  -1.639  1.00  0.00     0.702 C 
HETATM    4  N   UNL     1       6.868  -6.268  -1.230  1.00  0.00    -0.028 NA
HETATM    5  C   UNL     1       7.561  -6.625  -0.098  1.00  0.00     0.263 C 
HETATM    6  O   UNL     1       7.241  -7.582   0.600  1.00  0.00    -0.271 OA
HETATM    7  C   UNL     1       8.778  -5.808   0.239  1.00  0.00     0.141 C 
HETATM    8  H   UNL     1       8.179  -3.429  -1.488  1.00  0.00     0.178 HD
ENDROOT
BRANCH   3   9
HETATM    9  N   UNL     1       6.329  -4.632  -2.797  1.00  0.00    -0.213 N 
HETATM   10  C   UNL     1       6.342  -3.246  -3.293  1.00  0.00     0.169 C 
HETATM   11  C   UNL     1       5.153  -2.472  -2.695  1.00  0.00     0.256 C 
HETATM   12  N   UNL     1       3.848  -3.176  -3.084  1.00  0.00    -0.056 N 
HETATM   13  H   UNL     1       3.835  -3.256  -4.102  1.00  0.00     0.281 HD
HETATM   14  C   UNL     1       3.866  -4.634  -2.593  1.00  0.00     0.256 C 
HETATM   15  C   UNL     1       5.098  -5.357  -3.193  1.00  0.00     0.169 C 
BRANCH  12  16
HETATM   16  C   UNL     1       2.573  -2.406  -2.731  1.00  0.00     0.254 C 
BRANCH  16  17
HETATM   17  C   UNL     1       2.411  -2.220  -1.222  1.00  0.00    -0.023 A 
HETATM   18  C   UNL     1       3.073  -1.194  -0.521  1.00  0.00     0.009 A 
HETATM   19  C   UNL     1       2.922  -1.058   0.860  1.00  0.00     0.001 A 
HETATM   20  C   UNL     1       2.107  -1.941   1.563  1.00  0.00     0.000 A 
HETATM   21  C   UNL     1       1.438  -2.958   0.887  1.00  0.00     0.001 A 
HETATM   22  C   UNL     1       1.587  -3.098  -0.495  1.00  0.00     0.009 A 
ENDBRANCH  16  17
BRANCH  16  23
HETATM   23  C   UNL     1       2.342  -1.137  -3.578  1.00  0.00    -0.023 A 
HETATM   24  C   UNL     1       2.961  -0.927  -4.827  1.00  0.00     0.009 A 
HETATM   25  C   UNL     1       2.700   0.221  -5.585  1.00  0.00     0.001 A 
HETATM   26  C   UNL     1       1.801   1.175  -5.125  1.00  0.00     0.000 A 
HETATM   27  C   UNL     1       1.146   0.975  -3.917  1.00  0.00     0.001 A 
HETATM   28  C   UNL     1       1.400  -0.172  -3.161  1.00  0.00     0.009 A 
ENDBRANCH  16  23
ENDBRANCH  12  16
ENDBRANCH   3   9
BRANCH   1  29
HETATM   29  C   UNL     1       9.375  -3.338   0.547  1.00  0.00     0.246 C 
HETATM   30  N   UNL     1      10.157  -3.536   1.668  1.00  0.00    -0.325 N 
HETATM   31  H   UNL     1      10.145  -4.444   2.117  1.00  0.00     0.169 HD
HETATM   32  O   UNL     1       9.469  -2.394  -0.242  1.00  0.00    -0.271 OA
BRANCH  30  33
HETATM   33  C   UNL     1      11.069  -2.610   2.221  1.00  0.00     0.035 A 
HETATM   34  C   UNL     1      11.087  -1.253   1.894  1.00  0.00     0.032 A 
HETATM   35  C   UNL     1      11.983  -0.377   2.520  1.00  0.00     0.039 A 
HETATM   36  C   UNL     1      12.878  -0.851   3.476  1.00  0.00     0.068 A 
HETATM   37  C   UNL     1      12.872  -2.209   3.794  1.00  0.00     0.039 A 
HETATM   38  C   UNL     1      11.966  -3.082   3.184  1.00  0.00     0.032 A 
BRANCH  36  39
HETATM   39  O   UNL     1      13.798  -0.105   4.155  1.00  0.00    -0.352 OA
BRANCH  39  40
HETATM   40  C   UNL     1      13.693   1.314   4.040  1.00  0.00     0.171 C 
HETATM   41  C   UNL     1      14.734   1.938   4.952  1.00  0.00     0.034 C 
ENDBRANCH  39  40
ENDBRANCH  36  39
ENDBRANCH  30  33
ENDBRANCH   1  29
TORSDOF 8
