REMARK  6 active torsions:
REMARK  status: ('A' for Active; 'I' for Inactive)
REMARK    1  A    between atoms: C_6  and  C_8 
REMARK    2  A    between atoms: C_6  and  O_7 
REMARK    3  A    between atoms: C_8  and  N_9 
REMARK       I    between atoms: N_9  and  C_10 
REMARK    4  A    between atoms: C_10  and  C_11 
REMARK       I    between atoms: C_11  and  N_12 
REMARK    5  A    between atoms: N_12  and  C_13 
REMARK       I    between atoms: N_17  and  C_18 
REMARK    6  A    between atoms: C_18  and  C_19 
ROOT
HETATM    1  C   UNL     1      -2.661   0.192  -4.966  1.00  0.00     0.313 C 
HETATM    2  N   UNL     1      -2.941   0.281  -6.313  1.00  0.00    -0.319 N 
HETATM    3  O   UNL     1      -1.795  -0.549  -4.514  1.00  0.00    -0.262 OA
HETATM    4  H   UNL     1      -2.669  -0.540  -6.839  1.00  0.00     0.169 HD
ENDROOT
BRANCH   1   5
HETATM    5  C   UNL     1      -3.575   0.959  -3.997  1.00  0.00     0.309 C 
HETATM    6  N   UNL     1      -2.935   1.881  -3.197  1.00  0.00    -0.350 N 
HETATM    7  H   UNL     1      -1.952   2.080  -3.350  1.00  0.00     0.163 HD
HETATM    8  O   UNL     1      -4.779   0.738  -3.989  1.00  0.00    -0.262 OA
BRANCH   6   9
HETATM    9  C   UNL     1      -3.703   2.762  -2.338  1.00  0.00     0.161 C 
BRANCH   9  10
HETATM   10  C   UNL     1      -2.854   3.424  -1.230  1.00  0.00     0.078 C 
HETATM   11  C   UNL     1      -2.213   2.393  -0.282  1.00  0.00     0.078 C 
HETATM   12  C   UNL     1      -3.191   1.772   0.682  1.00  0.00    -0.049 A 
HETATM   13  C   UNL     1      -4.398   2.413   1.017  1.00  0.00    -0.052 A 
HETATM   14  C   UNL     1      -2.866   0.548   1.285  1.00  0.00     0.007 A 
HETATM   15  C   UNL     1      -5.274   1.792   1.920  1.00  0.00     0.007 A 
HETATM   16  C   UNL     1      -4.816   3.713   0.374  1.00  0.00     0.042 C 
HETATM   17  C   UNL     1      -4.947   0.567   2.502  1.00  0.00     0.001 A 
HETATM   18  C   UNL     1      -3.742  -0.053   2.187  1.00  0.00     0.001 A 
HETATM   19  C   UNL     1      -3.694   4.407  -0.399  1.00  0.00     0.044 C 
BRANCH  10  20
HETATM   20  O   UNL     1      -1.806   4.167  -1.885  1.00  0.00    -0.388 OA
HETATM   21  H   UNL     1      -1.299   4.634  -1.198  1.00  0.00     0.210 HD
ENDBRANCH  10  20
ENDBRANCH   9  10
ENDBRANCH   6   9
ENDBRANCH   1   5
BRANCH   2  22
HETATM   22  C   UNL     1      -3.675   1.279  -6.971  1.00  0.00     0.035 A 
HETATM   23  C   UNL     1      -3.653   2.610  -6.561  1.00  0.00     0.039 A 
HETATM   24  C   UNL     1      -4.370   3.599  -7.262  1.00  0.00    -0.029 A 
HETATM   25  C   UNL     1      -5.170   3.253  -8.371  1.00  0.00     0.043 A 
HETATM   26  C   UNL     1      -4.262   5.014  -6.760  1.00  0.00     0.042 C 
HETATM   27  N   UNL     1      -5.990   4.255  -9.008  1.00  0.00    -0.313 N 
HETATM   28  C   UNL     1      -5.157   1.910  -8.779  1.00  0.00     0.032 A 
HETATM   29  C   UNL     1      -6.758   4.002 -10.171  1.00  0.00     0.265 C 
HETATM   30  C   UNL     1      -5.993   5.598  -8.409  1.00  0.00     0.133 C 
HETATM   31  O   UNL     1      -6.474   3.124 -10.985  1.00  0.00    -0.267 OA
HETATM   32  C   UNL     1      -4.641   5.995  -7.849  1.00  0.00     0.025 C 
HETATM   33  C   UNL     1      -4.393   0.942  -8.111  1.00  0.00     0.032 A 
BRANCH  29  34
HETATM   34  C   UNL     1      -7.933   4.851 -10.374  1.00  0.00     0.073 A 
HETATM   35  S   UNL     1      -8.246   5.493 -11.932  1.00  0.00    -0.097 SA
HETATM   36  C   UNL     1      -9.651   6.302 -11.390  1.00  0.00     0.050 A 
HETATM   37  C   UNL     1      -9.902   6.067 -10.057  1.00  0.00     0.009 A 
HETATM   38  C   UNL     1      -8.920   5.213  -9.474  1.00  0.00     0.025 A 
ENDBRANCH  29  34
ENDBRANCH   2  22
TORSDOF 6
