REMARK  6 active torsions:
REMARK  status: ('A' for Active; 'I' for Inactive)
REMARK    1  A    between atoms: O_2  and  C_3 
REMARK    2  A    between atoms: C_6  and  C_7 
REMARK    3  A    between atoms: C_7  and  N_8 
REMARK       I    between atoms: N_8  and  C_9 
REMARK    4  A    between atoms: C_9  and  C_10 
REMARK    5  A    between atoms: C_13  and  C_14 
REMARK    6  A    between atoms: C_19  and  C_20 
ROOT
HETATM    1  C   UNL     1       5.105  -4.074  -7.097  1.00  0.00     0.096 A 
HETATM    2  C   UNL     1       5.507  -4.736  -8.241  1.00  0.00     0.138 A 
HETATM    3  N   UNL     1       5.965  -3.779  -9.104  1.00  0.00    -0.240 N 
HETATM    4  C   UNL     1       6.403  -4.042 -10.461  1.00  0.00     0.221 C 
HETATM    5  C   UNL     1       6.709  -5.542 -10.651  1.00  0.00     0.066 C 
HETATM    6  C   UNL     1       5.703  -6.485  -9.960  1.00  0.00     0.118 C 
HETATM    7  N   UNL     1       5.506  -6.046  -8.585  1.00  0.00    -0.365 N 
HETATM    8  N   UNL     1       6.011  -2.549  -8.567  1.00  0.00    -0.181 NA
HETATM    9  C   UNL     1       5.459  -2.727  -7.361  1.00  0.00     0.160 A 
HETATM   10  H   UNL     1       5.037  -6.716  -7.967  1.00  0.00     0.161 HD
ENDROOT
BRANCH   1  11
HETATM   11  C   UNL     1       4.476  -4.696  -5.944  1.00  0.00     0.257 C 
HETATM   12  N   UNL     1       4.217  -3.860  -4.882  1.00  0.00    -0.352 N 
HETATM   13  H   UNL     1       4.408  -2.872  -4.942  1.00  0.00     0.163 HD
HETATM   14  O   UNL     1       4.185  -5.890  -5.925  1.00  0.00    -0.267 OA
BRANCH  12  15
HETATM   15  C   UNL     1       3.542  -4.337  -3.696  1.00  0.00     0.161 C 
BRANCH  15  16
HETATM   16  C   UNL     1       4.199  -3.845  -2.431  1.00  0.00    -0.040 A 
HETATM   17  C   UNL     1       3.415  -3.447  -1.341  1.00  0.00     0.011 A 
HETATM   18  C   UNL     1       4.016  -3.057  -0.141  1.00  0.00     0.037 A 
HETATM   19  C   UNL     1       5.405  -3.068  -0.002  1.00  0.00     0.068 A 
HETATM   20  C   UNL     1       6.193  -3.464  -1.081  1.00  0.00     0.037 A 
HETATM   21  C   UNL     1       5.594  -3.860  -2.282  1.00  0.00     0.011 A 
BRANCH  19  22
HETATM   22  O   UNL     1       5.861  -2.678   1.227  1.00  0.00    -0.356 OA
HETATM   23  C   UNL     1       7.257  -2.810   1.462  1.00  0.00     0.210 C 
ENDBRANCH  19  22
ENDBRANCH  15  16
ENDBRANCH  12  15
ENDBRANCH   1  11
BRANCH   4  24
HETATM   24  C   UNL     1       5.393  -3.498 -11.448  1.00  0.00     0.409 C 
HETATM   25  F   UNL     1       4.127  -3.887 -11.211  1.00  0.00    -0.169 F 
HETATM   26  F   UNL     1       5.399  -2.145 -11.483  1.00  0.00    -0.169 F 
HETATM   27  F   UNL     1       5.708  -3.905 -12.707  1.00  0.00    -0.169 F 
ENDBRANCH   4  24
BRANCH   6  28
HETATM   28  C   UNL     1       4.398  -6.717 -10.706  1.00  0.00    -0.035 A 
HETATM   29  C   UNL     1       4.430  -7.234 -12.014  1.00  0.00     0.009 A 
HETATM   30  C   UNL     1       3.251  -7.483 -12.721  1.00  0.00     0.001 A 
HETATM   31  C   UNL     1       2.016  -7.233 -12.130  1.00  0.00     0.000 A 
HETATM   32  C   UNL     1       1.960  -6.738 -10.830  1.00  0.00     0.001 A 
HETATM   33  C   UNL     1       3.138  -6.488 -10.124  1.00  0.00     0.009 A 
ENDBRANCH   6  28
TORSDOF 6
