REMARK  6 active torsions:
REMARK  status: ('A' for Active; 'I' for Inactive)
REMARK    1  A    between atoms: O_2  and  C_3 
REMARK    2  A    between atoms: C_4  and  C_5 
REMARK    3  A    between atoms: C_5  and  N_6 
REMARK       I    between atoms: N_6  and  C_7 
REMARK    4  A    between atoms: C_7  and  C_8 
REMARK    5  A    between atoms: C_8  and  O_9 
REMARK    6  A    between atoms: N_10  and  C_11 
ROOT
HETATM    1  C   UNL     1      -1.021   3.155   2.865  1.00  0.00     0.256 C 
HETATM    2  N   UNL     1      -0.859   2.954   4.318  1.00  0.00    -0.254 N 
HETATM    3  C   UNL     1      -0.191   1.842   4.811  1.00  0.00     0.330 C 
HETATM    4  O   UNL     1       0.160   1.681   5.981  1.00  0.00    -0.246 OA
HETATM    5  N   UNL     1       0.141   0.852   3.940  1.00  0.00    -0.308 N 
HETATM    6  C   UNL     1      -0.130   0.833   2.585  1.00  0.00     0.048 A 
HETATM    7  C   UNL     1      -0.713   1.947   2.002  1.00  0.00     0.034 A 
HETATM    8  C   UNL     1       0.202  -0.297   1.833  1.00  0.00     0.030 A 
HETATM    9  C   UNL     1      -0.059  -0.319   0.465  1.00  0.00     0.002 A 
HETATM   10  C   UNL     1      -0.636   0.790  -0.145  1.00  0.00     0.001 A 
HETATM   11  C   UNL     1      -0.952   1.918   0.615  1.00  0.00     0.015 A 
HETATM   12  H   UNL     1       0.596   0.060   4.374  1.00  0.00     0.170 HD
ENDROOT
BRANCH   1  13
HETATM   13  C   UNL     1      -2.515   3.611   2.549  1.00  0.00     0.279 C 
HETATM   14  N   UNL     1      -2.581   4.708   1.698  1.00  0.00    -0.352 N 
HETATM   15  H   UNL     1      -1.706   5.188   1.510  1.00  0.00     0.162 HD
HETATM   16  O   UNL     1      -3.512   3.042   2.991  1.00  0.00    -0.268 OA
BRANCH  14  17
HETATM   17  C   UNL     1      -3.830   5.360   1.370  1.00  0.00     0.164 C 
BRANCH  17  18
HETATM   18  C   UNL     1      -3.991   5.709  -0.095  1.00  0.00    -0.007 A 
HETATM   19  C   UNL     1      -5.196   6.309  -0.518  1.00  0.00     0.076 A 
HETATM   20  C   UNL     1      -5.384   6.628  -1.868  1.00  0.00     0.037 A 
HETATM   21  C   UNL     1      -4.388   6.350  -2.804  1.00  0.00     0.003 A 
HETATM   22  C   UNL     1      -3.196   5.761  -2.397  1.00  0.00     0.001 A 
HETATM   23  C   UNL     1      -2.997   5.444  -1.053  1.00  0.00     0.011 A 
BRANCH  19  24
HETATM   24  O   UNL     1      -6.115   6.558   0.470  1.00  0.00    -0.355 OA
HETATM   25  C   UNL     1      -7.440   6.875   0.059  1.00  0.00     0.210 C 
ENDBRANCH  19  24
ENDBRANCH  17  18
ENDBRANCH  14  17
ENDBRANCH   1  13
BRANCH   1  26
HETATM   26  O   UNL     1      -0.062   4.144   2.476  1.00  0.00    -0.359 OA
HETATM   27  H   UNL     1       0.478   4.255   3.278  1.00  0.00     0.213 HD
ENDBRANCH   1  26
BRANCH   2  28
HETATM   28  C   UNL     1      -1.413   3.925   5.244  1.00  0.00     0.043 A 
HETATM   29  C   UNL     1      -1.546   5.286   4.917  1.00  0.00     0.031 A 
HETATM   30  C   UNL     1      -2.120   6.200   5.812  1.00  0.00     0.026 A 
HETATM   31  C   UNL     1      -2.578   5.767   7.050  1.00  0.00     0.034 A 
HETATM   32 CL   UNL     1      -3.290   6.888   8.143  1.00  0.00    -0.084 Cl
HETATM   33  C   UNL     1      -2.464   4.430   7.401  1.00  0.00     0.026 A 
HETATM   34  C   UNL     1      -1.887   3.521   6.505  1.00  0.00     0.031 A 
ENDBRANCH   2  28
TORSDOF 6
