REMARK  7 active torsions:
REMARK  status: ('A' for Active; 'I' for Inactive)
REMARK    1  A    between atoms: C_5  and  C_6 
REMARK       I    between atoms: C_6  and  N_7 
REMARK    2  A    between atoms: N_10  and  C_11 
REMARK    3  A    between atoms: C_14  and  N_15 
REMARK    4  A    between atoms: N_15  and  C_16 
REMARK    5  A    between atoms: C_16  and  N_17 
REMARK       I    between atoms: N_17  and  C_18 
REMARK    6  A    between atoms: C_18  and  C_19 
REMARK    7  A    between atoms: C_20  and  O_21 
ROOT
HETATM    1  C   UNL     1       9.069   4.754  -2.949  1.00  0.00     0.030 A 
HETATM    2  C   UNL     1       8.607   6.066  -2.784  1.00  0.00     0.031 A 
HETATM    3  C   UNL     1       9.409   7.179  -3.075  1.00  0.00     0.032 A 
HETATM    4  C   UNL     1      10.714   7.012  -3.524  1.00  0.00     0.034 A 
HETATM    5  C   UNL     1      11.158   5.719  -3.800  1.00  0.00     0.032 A 
HETATM    6  C   UNL     1      10.351   4.611  -3.500  1.00  0.00     0.031 A 
ENDROOT
BRANCH   4   7
HETATM    7  N   UNL     1      11.620   8.080  -3.729  1.00  0.00    -0.333 N 
HETATM    8  H   UNL     1      12.480   7.810  -4.193  1.00  0.00     0.168 HD
BRANCH   7   9
HETATM    9  C   UNL     1      11.758   9.261  -2.985  1.00  0.00     0.179 C 
HETATM   10  S   UNL     1      10.987   9.648  -1.550  1.00  0.00    -0.040 SA
BRANCH   9  11
HETATM   11  N   UNL     1      12.698  10.091  -3.617  1.00  0.00    -0.299 N 
HETATM   12  C   UNL     1      13.324  11.223  -3.101  1.00  0.00     0.260 C 
HETATM   13  O   UNL     1      13.655  11.389  -1.934  1.00  0.00    -0.267 OA
HETATM   14  H   UNL     1      12.712   9.999  -4.623  1.00  0.00     0.171 HD
BRANCH  12  15
HETATM   15  C   UNL     1      13.707  12.227  -4.117  1.00  0.00     0.065 A 
HETATM   16  C   UNL     1      15.033  12.650  -4.251  1.00  0.00     0.084 A 
HETATM   17  C   UNL     1      15.363  13.619  -5.201  1.00  0.00     0.038 A 
HETATM   18  C   UNL     1      14.363  14.191  -5.989  1.00  0.00     0.003 A 
HETATM   19  C   UNL     1      13.036  13.784  -5.843  1.00  0.00     0.001 A 
HETATM   20  C   UNL     1      12.703  12.801  -4.909  1.00  0.00     0.020 A 
BRANCH  16  21
HETATM   21  O   UNL     1      16.039  12.050  -3.543  1.00  0.00    -0.355 OA
HETATM   22  C   UNL     1      16.433  12.873  -2.441  1.00  0.00     0.210 C 
ENDBRANCH  16  21
ENDBRANCH  12  15
ENDBRANCH   9  11
ENDBRANCH   7   9
ENDBRANCH   4   7
BRANCH   1  23
HETATM   23  N   UNL     1       8.360   3.637  -2.512  1.00  0.00    -0.378 N 
HETATM   24  C   UNL     1       8.182   2.514  -3.457  1.00  0.00     0.143 C 
HETATM   25  C   UNL     1       7.897   1.210  -2.688  1.00  0.00     0.146 C 
HETATM   26  N   UNL     1       6.809   1.340  -1.711  1.00  0.00    -0.345 N 
HETATM   27  C   UNL     1       6.234   0.148  -1.260  1.00  0.00     0.253 C 
HETATM   28  C   UNL     1       6.927   2.515  -0.833  1.00  0.00     0.146 C 
HETATM   29  O   UNL     1       6.580  -0.963  -1.655  1.00  0.00    -0.267 OA
HETATM   30  C   UNL     1       7.211   3.816  -1.604  1.00  0.00     0.143 C 
BRANCH  27  31
HETATM   31  C   UNL     1       5.128   0.220  -0.278  1.00  0.00     0.032 A 
HETATM   32  C   UNL     1       3.998   1.000  -0.541  1.00  0.00     0.017 A 
HETATM   33  C   UNL     1       2.948   1.032   0.379  1.00  0.00     0.007 A 
HETATM   34  C   UNL     1       3.019   0.284   1.562  1.00  0.00    -0.062 A 
HETATM   35  C   UNL     1       1.871   0.284   2.529  1.00  0.00     0.048 C 
HETATM   36  C   UNL     1       4.141  -0.522   1.798  1.00  0.00     0.007 A 
HETATM   37  C   UNL     1       5.193  -0.558   0.880  1.00  0.00     0.017 A 
ENDBRANCH  27  31
ENDBRANCH   1  23
TORSDOF 7
