REMARK  7 active torsions:
REMARK  status: ('A' for Active; 'I' for Inactive)
REMARK    1  A    between atoms: C_5  and  N_6 
REMARK    2  A    between atoms: C_7  and  S_8 
REMARK    3  A    between atoms: S_8  and  C_9 
REMARK    4  A    between atoms: C_9  and  C_10 
REMARK       I    between atoms: C_10  and  N_11 
REMARK    5  A    between atoms: C_13  and  C_14 
REMARK    6  A    between atoms: C_14  and  N_15 
REMARK       I    between atoms: N_15  and  C_16 
REMARK       I    between atoms: C_16  and  N_17 
REMARK    7  A    between atoms: N_17  and  C_18 
ROOT
HETATM    1  C   UNL     1      10.209  -0.619  -1.071  1.00  0.00     0.229 C 
HETATM    2  N   UNL     1       9.657   0.642  -1.328  1.00  0.00    -0.351 N 
HETATM    3  C   UNL     1      10.021   1.716  -0.405  1.00  0.00     0.132 C 
HETATM    4  C   UNL     1       9.979   3.102  -1.067  1.00  0.00     0.021 C 
HETATM    5  C   UNL     1       8.631   3.320  -1.768  1.00  0.00     0.009 C 
HETATM    6  C   UNL     1       8.337   2.178  -2.739  1.00  0.00     0.020 C 
HETATM    7  C   UNL     1       8.391   0.827  -2.038  1.00  0.00     0.126 C 
HETATM    8  O   UNL     1      10.923  -0.806  -0.081  1.00  0.00    -0.273 OA
ENDROOT
BRANCH   1   9
HETATM    9  C   UNL     1       9.870  -1.782  -1.995  1.00  0.00     0.185 C 
BRANCH   9  10
HETATM   10  S   UNL     1      10.379  -1.500  -3.717  1.00  0.00    -0.082 SA
BRANCH  10  11
HETATM   11  C   UNL     1      12.107  -1.410  -3.567  1.00  0.00     0.173 A 
HETATM   12  N   UNL     1      12.957  -0.984  -4.580  1.00  0.00    -0.299 N 
HETATM   13  C   UNL     1      14.235  -1.211  -4.102  1.00  0.00     0.118 A 
HETATM   14  C   UNL     1      14.087  -1.751  -2.849  1.00  0.00     0.137 A 
HETATM   15  N   UNL     1      12.767  -1.887  -2.535  1.00  0.00    -0.235 NA
BRANCH  12  16
HETATM   16  C   UNL     1      12.654  -0.350  -5.820  1.00  0.00     0.047 A 
HETATM   17  C   UNL     1      13.314  -0.709  -7.023  1.00  0.00    -0.029 A 
HETATM   18  C   UNL     1      13.062   0.058  -8.188  1.00  0.00    -0.054 A 
HETATM   19  C   UNL     1      14.239  -1.900  -7.113  1.00  0.00     0.051 C 
HETATM   20  C   UNL     1      13.742  -0.234  -9.501  1.00  0.00     0.049 C 
HETATM   21  C   UNL     1      12.117   1.096  -8.150  1.00  0.00     0.007 A 
HETATM   22  C   UNL     1      11.447   1.410  -6.973  1.00  0.00     0.003 A 
HETATM   23  C   UNL     1      11.721   0.700  -5.808  1.00  0.00     0.030 A 
ENDBRANCH  12  16
ENDBRANCH  10  11
ENDBRANCH   9  10
ENDBRANCH   1   9
BRANCH   4  24
HETATM   24  C   UNL     1      10.281   4.176  -0.012  1.00  0.00     0.130 C 
BRANCH  24  25
HETATM   25  N   UNL     1      10.464   5.496  -0.594  1.00  0.00    -0.342 N 
HETATM   26  C   UNL     1       9.599   6.532  -0.784  1.00  0.00     0.320 C 
HETATM   27  N   UNL     1       8.356   6.387  -0.237  1.00  0.00    -0.309 N 
HETATM   28  O   UNL     1      10.005   7.493  -1.429  1.00  0.00    -0.247 OA
HETATM   29  H   UNL     1       8.224   5.598   0.371  1.00  0.00     0.170 HD
HETATM   30  H   UNL     1      11.354   5.680  -1.044  1.00  0.00     0.164 HD
BRANCH  27  31
HETATM   31  C   UNL     1       7.259   7.268  -0.344  1.00  0.00     0.039 A 
HETATM   32  C   UNL     1       7.256   8.422  -1.127  1.00  0.00     0.071 A 
HETATM   33  C   UNL     1       6.119   9.225  -1.172  1.00  0.00     0.118 A 
HETATM   34  F   UNL     1       6.123  10.332  -1.928  1.00  0.00    -0.206 F 
HETATM   35  C   UNL     1       4.975   8.901  -0.452  1.00  0.00     0.042 A 
HETATM   36  C   UNL     1       4.966   7.751   0.329  1.00  0.00     0.005 A 
HETATM   37  C   UNL     1       6.102   6.938   0.381  1.00  0.00     0.030 A 
ENDBRANCH  27  31
ENDBRANCH  24  25
ENDBRANCH   4  24
TORSDOF 7
