REMARK  6 active torsions:
REMARK  status: ('A' for Active; 'I' for Inactive)
REMARK    1  A    between atoms: C_3  and  N_4 
REMARK    2  A    between atoms: N_4  and  C_5 
REMARK    3  A    between atoms: C_5  and  C_6 
REMARK    4  A    between atoms: N_8  and  C_10 
REMARK    5  A    between atoms: C_10  and  C_11 
REMARK    6  A    between atoms: C_12  and  C_13 
ROOT
HETATM    1  C   UNL     1       4.964  -0.477  -0.597  1.00  0.00     0.031 C 
HETATM    2  C   UNL     1       6.002  -1.543  -0.249  1.00  0.00     0.241 C 
HETATM    3  N   UNL     1       7.158  -0.776   0.363  1.00  0.00    -0.067 N 
HETATM    4  H   UNL     1       7.340  -1.167   1.298  1.00  0.00     0.280 HD
HETATM    5  C   UNL     1       6.718   0.658   0.548  1.00  0.00     0.235 C 
HETATM    6  C   UNL     1       5.203   0.585   0.474  1.00  0.00     0.035 C 
ENDROOT
BRANCH   3   7
HETATM    7  C   UNL     1       8.478  -0.895  -0.367  1.00  0.00     0.277 C 
BRANCH   7   8
HETATM    8  C   UNL     1       9.020  -2.276  -0.440  1.00  0.00     0.016 A 
HETATM    9  C   UNL     1       9.907  -2.790  -1.445  1.00  0.00     0.102 A 
HETATM   10  N   UNL     1      10.173  -4.080  -1.218  1.00  0.00    -0.174 NA
HETATM   11  N   UNL     1       9.552  -4.382  -0.078  1.00  0.00    -0.288 N 
HETATM   12  H   UNL     1       9.668  -5.322   0.296  1.00  0.00     0.188 HD
HETATM   13  C   UNL     1       8.829  -3.339   0.427  1.00  0.00     0.120 A 
BRANCH   9  14
HETATM   14  C   UNL     1      10.519  -2.101  -2.576  1.00  0.00     0.072 A 
HETATM   15  C   UNL     1      11.206  -0.897  -2.395  1.00  0.00     0.132 A 
HETATM   16  F   UNL     1      11.243  -0.316  -1.186  1.00  0.00    -0.205 F 
HETATM   17  C   UNL     1      11.844  -0.254  -3.456  1.00  0.00     0.043 A 
HETATM   18  C   UNL     1      11.801  -0.815  -4.731  1.00  0.00     0.006 A 
HETATM   19  C   UNL     1      11.107  -2.007  -4.936  1.00  0.00     0.043 A 
HETATM   20  C   UNL     1      10.473  -2.639  -3.865  1.00  0.00     0.132 A 
HETATM   21  F   UNL     1       9.772  -3.755  -4.116  1.00  0.00    -0.205 F 
ENDBRANCH   9  14
ENDBRANCH   7   8
ENDBRANCH   3   7
BRANCH   1  22
HETATM   22  C   UNL     1       3.532  -1.030  -0.613  1.00  0.00     0.127 C 
BRANCH  22  23
HETATM   23  N   UNL     1       2.605  -0.021  -1.142  1.00  0.00    -0.376 N 
HETATM   24  H   UNL     1       2.930   0.408  -2.005  1.00  0.00     0.161 HD
BRANCH  23  25
HETATM   25  C   UNL     1       1.234  -0.241  -1.069  1.00  0.00     0.100 A 
HETATM   26  C   UNL     1       0.598  -0.923  -0.021  1.00  0.00     0.048 A 
HETATM   27  C   UNL     1      -0.789  -1.071  -0.014  1.00  0.00     0.005 A 
HETATM   28  C   UNL     1      -1.543  -0.528  -1.044  1.00  0.00     0.017 A 
HETATM   29  C   UNL     1      -0.889   0.162  -2.050  1.00  0.00     0.089 A 
HETATM   30  N   UNL     1       0.447   0.288  -2.025  1.00  0.00    -0.353 N 
HETATM   31  H   UNL     1       0.886   0.823  -2.768  1.00  0.00     0.166 HD
ENDBRANCH  23  25
ENDBRANCH  22  23
ENDBRANCH   1  22
TORSDOF 6
