REMARK  6 active torsions:
REMARK  status: ('A' for Active; 'I' for Inactive)
REMARK    1  A    between atoms: C_4  and  C_5 
REMARK    2  A    between atoms: C_5  and  N_6 
REMARK    3  A    between atoms: C_14  and  C_15 
REMARK    4  A    between atoms: C_18  and  O_19 
REMARK    5  A    between atoms: O_19  and  C_20 
REMARK    6  A    between atoms: C_20  and  C_21 
ROOT
HETATM    1  N   UNL     1       3.360  -1.312  -0.242  1.00  0.00    -0.063 N 
HETATM    2  H   UNL     1       4.020  -1.493   0.523  1.00  0.00     0.280 HD
HETATM    3  C   UNL     1       2.373  -2.469  -0.193  1.00  0.00     0.282 C 
HETATM    4  C   UNL     1       3.065  -3.743  -0.539  1.00  0.00     0.018 A 
HETATM    5  C   UNL     1       4.287  -3.833  -1.181  1.00  0.00    -0.023 A 
HETATM    6  C   UNL     1       4.656  -5.200  -1.398  1.00  0.00     0.073 A 
HETATM    7  C   UNL     1       3.689  -6.066  -0.948  1.00  0.00     0.088 A 
HETATM    8  N   UNL     1       3.770  -7.404  -1.077  1.00  0.00    -0.358 N 
HETATM    9  C   UNL     1       5.032  -8.021  -1.422  1.00  0.00     0.219 C 
HETATM   10  N   UNL     1       5.905  -7.101  -2.108  1.00  0.00    -0.332 N 
HETATM   11  C   UNL     1       5.847  -5.739  -2.023  1.00  0.00     0.256 C 
HETATM   12  O   UNL     1       6.747  -5.027  -2.454  1.00  0.00    -0.267 OA
HETATM   13  S   UNL     1       2.375  -5.265  -0.225  1.00  0.00    -0.074 SA
HETATM   14  C   UNL     1       5.066  -2.609  -1.563  1.00  0.00     0.068 C 
HETATM   15  C   UNL     1       4.185  -1.344  -1.524  1.00  0.00     0.240 C 
HETATM   16  H   UNL     1       3.135  -7.995  -0.549  1.00  0.00     0.162 HD
HETATM   17  H   UNL     1       6.763  -7.469  -2.493  1.00  0.00     0.165 HD
ENDROOT
BRANCH   9  18
HETATM   18  C   UNL     1       5.658  -8.656  -0.195  1.00  0.00    -0.016 A 
HETATM   19  C   UNL     1       5.297  -9.969   0.158  1.00  0.00     0.014 A 
HETATM   20  C   UNL     1       5.850 -10.597   1.280  1.00  0.00     0.037 A 
HETATM   21  C   UNL     1       6.781  -9.925   2.069  1.00  0.00     0.069 A 
HETATM   22  C   UNL     1       7.119  -8.609   1.749  1.00  0.00     0.037 A 
HETATM   23  C   UNL     1       6.564  -7.977   0.633  1.00  0.00     0.014 A 
BRANCH  21  24
HETATM   24  O   UNL     1       7.417 -10.430   3.168  1.00  0.00    -0.347 OA
BRANCH  24  25
HETATM   25  C   UNL     1       7.308 -11.836   3.389  1.00  0.00     0.214 C 
BRANCH  25  26
HETATM   26  C   UNL     1       8.312 -12.234   4.442  1.00  0.00    -0.034 A 
HETATM   27  C   UNL     1       8.106 -11.891   5.786  1.00  0.00     0.009 A 
HETATM   28  C   UNL     1       9.036 -12.259   6.760  1.00  0.00     0.001 A 
HETATM   29  C   UNL     1      10.182 -12.967   6.400  1.00  0.00     0.000 A 
HETATM   30  C   UNL     1      10.401 -13.304   5.066  1.00  0.00     0.001 A 
HETATM   31  C   UNL     1       9.473 -12.937   4.091  1.00  0.00     0.009 A 
ENDBRANCH  25  26
ENDBRANCH  24  25
ENDBRANCH  21  24
ENDBRANCH   9  18
BRANCH   1  32
HETATM   32  C   UNL     1       2.738   0.026   0.068  1.00  0.00     0.273 C 
BRANCH  32  33
HETATM   33  C   UNL     1       1.620   0.457  -0.842  1.00  0.00    -0.033 A 
HETATM   34  C   UNL     1       0.282   0.207  -0.492  1.00  0.00     0.009 A 
HETATM   35  C   UNL     1      -0.756   0.574  -1.348  1.00  0.00     0.001 A 
HETATM   36  C   UNL     1      -0.473   1.199  -2.560  1.00  0.00     0.000 A 
HETATM   37  C   UNL     1       0.847   1.466  -2.914  1.00  0.00     0.001 A 
HETATM   38  C   UNL     1       1.889   1.101  -2.060  1.00  0.00     0.009 A 
ENDBRANCH  32  33
ENDBRANCH   1  32
TORSDOF 6
