REMARK  5 active torsions:
REMARK  status: ('A' for Active; 'I' for Inactive)
REMARK    1  A    between atoms: C_3  and  C_4 
REMARK    2  A    between atoms: C_4  and  N_5 
REMARK    3  A    between atoms: C_9  and  C_10 
REMARK    4  A    between atoms: C_13  and  C_14 
REMARK    5  A    between atoms: C_14  and  N_15 
ROOT
HETATM    1  N   UNL     1       3.599   3.489  -0.402  1.00  0.00    -0.067 N 
HETATM    2  H   UNL     1       4.177   3.758  -1.208  1.00  0.00     0.280 HD
HETATM    3  C   UNL     1       2.720   4.670  -0.063  1.00  0.00     0.236 C 
HETATM    4  C   UNL     1       3.551   5.831   0.472  1.00  0.00     0.040 C 
HETATM    5  C   UNL     1       4.435   5.443   1.661  1.00  0.00     0.060 C 
HETATM    6  C   UNL     1       5.302   4.238   1.276  1.00  0.00     0.040 C 
HETATM    7  C   UNL     1       4.507   3.061   0.722  1.00  0.00     0.236 C 
ENDROOT
BRANCH   5   8
HETATM    8  C   UNL     1       3.606   5.167   2.886  1.00  0.00     0.134 A 
HETATM    9  N   UNL     1       3.533   5.942   4.023  1.00  0.00    -0.323 N 
HETATM   10  C   UNL     1       4.233   7.179   4.272  1.00  0.00     0.159 C 
HETATM   11  C   UNL     1       2.655   5.296   4.861  1.00  0.00     0.155 A 
HETATM   12  N   UNL     1       2.203   4.218   4.253  1.00  0.00    -0.133 NA
HETATM   13  N   UNL     1       2.799   4.137   3.032  1.00  0.00    -0.134 NA
BRANCH  11  14
HETATM   14  C   UNL     1       2.248   5.712   6.235  1.00  0.00     0.315 C 
BRANCH  14  15
HETATM   15  N   UNL     1       1.548   4.576   6.962  1.00  0.00    -0.064 N 
HETATM   16  H   UNL     1       0.993   4.108   6.226  1.00  0.00     0.280 HD
HETATM   17  C   UNL     1       2.515   3.537   7.482  1.00  0.00     0.235 C 
HETATM   18  C   UNL     1       1.736   2.342   8.010  1.00  0.00     0.028 C 
HETATM   19  C   UNL     1       0.728   2.757   9.076  1.00  0.00     0.003 C 
HETATM   20  C   UNL     1      -0.192   3.861   8.567  1.00  0.00     0.028 C 
HETATM   21  C   UNL     1       0.591   5.049   8.024  1.00  0.00     0.235 C 
ENDBRANCH  14  15
ENDBRANCH  11  14
ENDBRANCH   5   8
BRANCH   1  22
HETATM   22  C   UNL     1       2.774   2.291  -0.868  1.00  0.00     0.273 C 
BRANCH  22  23
HETATM   23  C   UNL     1       1.933   2.561  -2.088  1.00  0.00    -0.027 A 
HETATM   24  C   UNL     1       2.469   2.641  -3.390  1.00  0.00    -0.054 A 
HETATM   25  C   UNL     1       3.924   2.434  -3.719  1.00  0.00     0.049 C 
HETATM   26  C   UNL     1       1.611   2.949  -4.461  1.00  0.00     0.007 A 
HETATM   27  C   UNL     1       0.248   3.154  -4.259  1.00  0.00     0.001 A 
HETATM   28  C   UNL     1      -0.286   3.057  -2.982  1.00  0.00     0.001 A 
HETATM   29  C   UNL     1       0.548   2.763  -1.905  1.00  0.00     0.009 A 
ENDBRANCH  22  23
ENDBRANCH   1  22
TORSDOF 5
