REMARK  5 active torsions:
REMARK  status: ('A' for Active; 'I' for Inactive)
REMARK    1  A    between atoms: O_2  and  C_3 
REMARK    2  A    between atoms: C_4  and  N_5 
REMARK       I    between atoms: N_5  and  C_6 
REMARK    3  A    between atoms: C_6  and  C_7 
REMARK    4  A    between atoms: C_7  and  N_8 
REMARK    5  A    between atoms: N_8  and  C_9 
ROOT
HETATM    1  C   UNL     1       6.321   1.123   3.702  1.00  0.00     0.195 C 
ENDROOT
BRANCH   1   2
HETATM    2  C   UNL     1       5.383   1.502   2.547  1.00  0.00     0.235 C 
HETATM    3  N   UNL     1       5.876   1.976   1.367  1.00  0.00    -0.324 N 
HETATM    4  H   UNL     1       5.280   1.756   0.575  1.00  0.00     0.169 HD
HETATM    5  O   UNL     1       4.186   1.191   2.599  1.00  0.00    -0.272 OA
BRANCH   3   6
HETATM    6  C   UNL     1       7.110   2.553   1.030  1.00  0.00     0.068 A 
HETATM    7  C   UNL     1       7.592   2.339  -0.273  1.00  0.00     0.095 A 
HETATM    8  C   UNL     1       8.764   2.958  -0.711  1.00  0.00     0.039 A 
HETATM    9  C   UNL     1       9.471   3.788   0.158  1.00  0.00     0.003 A 
HETATM   10  C   UNL     1       8.996   4.010   1.450  1.00  0.00     0.002 A 
HETATM   11  C   UNL     1       7.814   3.402   1.885  1.00  0.00     0.032 A 
BRANCH   7  12
HETATM   12  O   UNL     1       6.856   1.521  -1.099  1.00  0.00    -0.354 OA
HETATM   13  C   UNL     1       7.640   0.445  -1.619  1.00  0.00     0.210 C 
ENDBRANCH   7  12
ENDBRANCH   3   6
ENDBRANCH   1   2
BRANCH   1  14
HETATM   14  N   UNL     1       6.691  -0.287   3.531  1.00  0.00    -0.283 NA
HETATM   15  H   UNL     1       5.892  -0.835   3.207  1.00  0.00     0.128 HD
BRANCH  14  16
HETATM   16  C   UNL     1       7.393  -1.004   4.514  1.00  0.00     0.019 A 
HETATM   17  C   UNL     1       7.689  -2.386   4.289  1.00  0.00    -0.005 A 
HETATM   18  C   UNL     1       8.386  -3.122   5.281  1.00  0.00    -0.024 A 
HETATM   19  C   UNL     1       7.330  -3.075   3.105  1.00  0.00     0.014 A 
HETATM   20  C   UNL     1       8.666  -4.485   5.082  1.00  0.00     0.012 A 
HETATM   21  C   UNL     1       8.805  -2.482   6.454  1.00  0.00     0.012 A 
HETATM   22  C   UNL     1       8.286  -5.135   3.909  1.00  0.00     0.001 A 
HETATM   23  C   UNL     1       7.622  -4.428   2.917  1.00  0.00     0.001 A 
HETATM   24  C   UNL     1       8.565  -1.126   6.645  1.00  0.00     0.003 A 
HETATM   25  C   UNL     1       7.880  -0.393   5.678  1.00  0.00     0.024 A 
ENDBRANCH  14  16
ENDBRANCH   1  14
TORSDOF 5
