REMARK  2 active torsions:
REMARK  status: ('A' for Active; 'I' for Inactive)
REMARK    1  A    between atoms: C_4  and  C_5 
REMARK       I    between atoms: C_5  and  N_6 
REMARK    2  A    between atoms: N_6  and  C_7 
ROOT
HETATM    1  C   UNL     1       5.432  -2.348   0.453  1.00  0.00     0.277 C 
HETATM    2  N   UNL     1       5.026  -3.436  -0.282  1.00  0.00    -0.321 N 
HETATM    3  O   UNL     1       6.393  -2.216   1.188  1.00  0.00    -0.266 OA
HETATM    4  H   UNL     1       4.054  -3.376  -0.576  1.00  0.00     0.169 HD
ENDROOT
BRANCH   1   5
HETATM    5  C   UNL     1       4.429  -1.199   0.323  1.00  0.00     0.156 A 
HETATM    6  N   UNL     1       3.175  -1.553   0.316  1.00  0.00    -0.164 NA
HETATM    7  N   UNL     1       2.214  -0.584   0.189  1.00  0.00    -0.238 N 
HETATM    8  C   UNL     1       0.834  -1.029   0.231  1.00  0.00     0.183 C 
HETATM    9  C   UNL     1       2.478   0.779   0.097  1.00  0.00     0.274 A 
HETATM   10  C   UNL     1       3.900   1.170   0.067  1.00  0.00     0.046 A 
HETATM   11  O   UNL     1       1.606   1.642   0.027  1.00  0.00    -0.266 OA
HETATM   12  C   UNL     1       4.886   0.193   0.168  1.00  0.00     0.016 A 
HETATM   13  C   UNL     1       4.249   2.519  -0.085  1.00  0.00     0.018 A 
HETATM   14  C   UNL     1       6.234   0.566   0.096  1.00  0.00     0.015 A 
HETATM   15  C   UNL     1       6.583   1.912  -0.056  1.00  0.00     0.001 A 
HETATM   16  C   UNL     1       5.592   2.888  -0.143  1.00  0.00     0.001 A 
ENDBRANCH   1   5
BRANCH   2  17
HETATM   17  C   UNL     1       5.680  -4.661  -0.512  1.00  0.00     0.047 A 
HETATM   18  C   UNL     1       7.065  -4.930  -0.355  1.00  0.00     0.019 A 
HETATM   19  C   UNL     1       7.530  -6.220  -0.658  1.00  0.00     0.044 A 
HETATM   20  C   UNL     1       8.228  -4.184   0.011  1.00  0.00     0.033 A 
HETATM   21  N   UNL     1       8.889  -6.244  -0.433  1.00  0.00    -0.365 N 
HETATM   22  C   UNL     1       6.701  -7.251  -1.113  1.00  0.00     0.030 A 
HETATM   23  H   UNL     1       9.476  -7.056  -0.565  1.00  0.00     0.165 HD
HETATM   24  C   UNL     1       9.324  -5.014  -0.038  1.00  0.00     0.089 A 
HETATM   25  C   UNL     1       5.350  -6.966  -1.284  1.00  0.00     0.005 A 
HETATM   26  C   UNL     1       4.853  -5.698  -0.997  1.00  0.00     0.030 A 
ENDBRANCH   2  17
TORSDOF 2
