REMARK  4 active torsions:
REMARK  status: ('A' for Active; 'I' for Inactive)
REMARK    1  A    between atoms: C_2  and  N_3 
REMARK    2  A    between atoms: N_7  and  C_8 
REMARK    3  A    between atoms: C_11  and  N_12 
REMARK    4  A    between atoms: C_13  and  C_14 
ROOT
HETATM    1  C   UNL     1       1.406   5.204   1.396  1.00  0.00     0.030 A 
HETATM    2  C   UNL     1       0.035   4.951   1.260  1.00  0.00     0.031 A 
HETATM    3  C   UNL     1      -0.895   5.996   1.149  1.00  0.00     0.034 A 
HETATM    4  C   UNL     1      -0.488   7.328   1.160  1.00  0.00     0.056 A 
HETATM    5  C   UNL     1       0.875   7.597   1.276  1.00  0.00     0.034 A 
HETATM    6  C   UNL     1       1.801   6.552   1.404  1.00  0.00     0.031 A 
ENDROOT
BRANCH   4   7
HETATM    7  N   UNL     1      -1.456   8.316   0.945  1.00  0.00    -0.260 NA
HETATM    8  C   UNL     1      -1.431   9.391   1.662  1.00  0.00     0.131 C 
BRANCH   8   9
HETATM    9  C   UNL     1      -2.408  10.432   1.414  1.00  0.00     0.009 A 
HETATM   10  C   UNL     1      -2.469  11.731   2.015  1.00  0.00     0.004 A 
HETATM   11  C   UNL     1      -3.565  12.396   1.460  1.00  0.00     0.043 A 
HETATM   12  C   UNL     1      -1.688  12.415   2.972  1.00  0.00     0.014 A 
HETATM   13  C   UNL     1      -3.919  13.704   1.813  1.00  0.00     0.030 A 
HETATM   14  N   UNL     1      -4.151  11.535   0.563  1.00  0.00    -0.364 N 
HETATM   15  C   UNL     1      -3.127  14.357   2.760  1.00  0.00     0.002 A 
HETATM   16  C   UNL     1      -2.027  13.724   3.333  1.00  0.00     0.001 A 
HETATM   17  H   UNL     1      -4.968  11.753   0.008  1.00  0.00     0.165 HD
HETATM   18  C   UNL     1      -3.463  10.354   0.524  1.00  0.00     0.102 A 
ENDBRANCH   8   9
ENDBRANCH   4   7
BRANCH   1  19
HETATM   19  N   UNL     1       2.365   4.199   1.462  1.00  0.00    -0.378 N 
HETATM   20  C   UNL     1       2.104   2.866   0.900  1.00  0.00     0.150 C 
HETATM   21  C   UNL     1       1.709   1.857   1.997  1.00  0.00     0.254 C 
HETATM   22  N   UNL     1       2.761   1.840   3.113  1.00  0.00    -0.068 N 
HETATM   23  H   UNL     1       3.659   1.586   2.681  1.00  0.00     0.280 HD
HETATM   24  C   UNL     1       2.940   3.256   3.684  1.00  0.00     0.254 C 
HETATM   25  C   UNL     1       3.338   4.246   2.568  1.00  0.00     0.150 C 
BRANCH  22  26
HETATM   26  C   UNL     1       2.465   0.840   4.204  1.00  0.00     0.230 C 
HETATM   27  C   UNL     1       2.688  -0.577   3.711  1.00  0.00     0.034 C 
ENDBRANCH  22  26
ENDBRANCH   1  19
TORSDOF 4
