REMARK  7 active torsions:
REMARK  status: ('A' for Active; 'I' for Inactive)
REMARK    1  A    between atoms: S_2  and  C_3 
REMARK    2  A    between atoms: C_3  and  C_4 
REMARK    3  A    between atoms: C_4  and  C_5 
REMARK    4  A    between atoms: C_5  and  N_6 
REMARK    5  A    between atoms: C_5  and  C_10 
REMARK       I    between atoms: N_6  and  C_7 
REMARK       I    between atoms: C_7  and  N_8 
REMARK       I    between atoms: C_10  and  N_11 
REMARK    6  A    between atoms: N_11  and  N_12 
REMARK       I    between atoms: N_12  and  C_13 
REMARK    7  A    between atoms: C_13  and  C_14 
ROOT
HETATM    1  C   UNL     1       6.894  -2.699  -1.263  1.00  0.00     0.259 C 
HETATM    2  N   UNL     1       7.596  -1.764  -0.533  1.00  0.00    -0.265 N 
HETATM    3  O   UNL     1       7.475  -3.568  -1.922  1.00  0.00    -0.269 OA
HETATM    4  H   UNL     1       7.177  -1.036   0.045  1.00  0.00     0.190 HD
ENDROOT
BRANCH   2   5
HETATM    5  N   UNL     1       8.988  -1.718  -0.655  1.00  0.00    -0.263 N 
HETATM    6  C   UNL     1       9.693  -0.783   0.086  1.00  0.00     0.278 C 
HETATM    7  O   UNL     1       9.091  -0.080   0.901  1.00  0.00    -0.265 OA
HETATM    8  H   UNL     1       9.417  -2.307  -1.368  1.00  0.00     0.190 HD
BRANCH   6   9
HETATM    9  C   UNL     1      11.124  -0.701  -0.171  1.00  0.00     0.097 A 
HETATM   10  S   UNL     1      11.824  -1.507  -1.510  1.00  0.00    -0.082 SA
HETATM   11  C   UNL     1      13.397  -0.908  -1.175  1.00  0.00     0.017 A 
HETATM   12  C   UNL     1      13.406  -0.108  -0.030  1.00  0.00     0.004 A 
HETATM   13  C   UNL     1      14.568  -1.154  -1.918  1.00  0.00     0.020 A 
HETATM   14  C   UNL     1      12.084  -0.003   0.538  1.00  0.00     0.068 A 
HETATM   15  C   UNL     1      14.648   0.451   0.372  1.00  0.00     0.014 A 
HETATM   16 CL   UNL     1      11.801   0.918   1.965  1.00  0.00    -0.082 Cl
HETATM   17  C   UNL     1      15.813   0.210  -0.362  1.00  0.00     0.001 A 
HETATM   18  C   UNL     1      15.771  -0.584  -1.498  1.00  0.00     0.001 A 
ENDBRANCH   6   9
ENDBRANCH   2   5
BRANCH   1  19
HETATM   19  C   UNL     1       5.355  -2.669  -1.083  1.00  0.00     0.180 C 
BRANCH  19  20
HETATM   20  C   UNL     1       4.759  -1.251  -1.107  1.00  0.00     0.045 C 
BRANCH  20  21
HETATM   21  C   UNL     1       3.233  -1.239  -1.032  1.00  0.00     0.076 C 
BRANCH  21  22
HETATM   22  S   UNL     1       2.648   0.479  -0.851  1.00  0.00    -0.173 SA
HETATM   23  C   UNL     1       0.869   0.173  -0.947  1.00  0.00     0.089 C 
ENDBRANCH  21  22
ENDBRANCH  20  21
ENDBRANCH  19  20
BRANCH  19  24
HETATM   24  N   UNL     1       4.759  -3.621  -2.026  1.00  0.00    -0.330 N 
HETATM   25  C   UNL     1       4.623  -3.340  -3.354  1.00  0.00     0.314 C 
HETATM   26  N   UNL     1       4.201  -4.408  -4.074  1.00  0.00    -0.352 N 
HETATM   27  O   UNL     1       4.781  -2.247  -3.874  1.00  0.00    -0.248 OA
HETATM   28  H   UNL     1       4.522  -5.328  -3.815  1.00  0.00     0.160 HD
HETATM   29  H   UNL     1       4.171  -4.232  -5.071  1.00  0.00     0.160 HD
HETATM   30  H   UNL     1       4.979  -4.588  -1.840  1.00  0.00     0.165 HD
ENDBRANCH  19  24
ENDBRANCH   1  19
TORSDOF 7
