REMARK  9 active torsions:
REMARK  status: ('A' for Active; 'I' for Inactive)
REMARK    1  A    between atoms: C_2  and  C_3 
REMARK    2  A    between atoms: C_7  and  C_8 
REMARK    3  A    between atoms: C_8  and  C_9 
REMARK       I    between atoms: C_9  and  N_10 
REMARK    4  A    between atoms: N_10  and  C_11 
REMARK    5  A    between atoms: C_11  and  C_12 
REMARK    6  A    between atoms: C_12  and  C_13 
REMARK    7  A    between atoms: C_21  and  C_22 
REMARK    8  A    between atoms: C_32  and  C_33 
REMARK    9  A    between atoms: C_33  and  O_34 
ROOT
HETATM    1  C   UNL     1       4.384  -0.837  -0.958  1.00  0.00     0.051 C 
HETATM    2  N   UNL     1       4.725  -1.304  -2.206  1.00  0.00    -0.228 NA
HETATM    3  C   UNL     1       5.253  -2.468  -2.302  1.00  0.00     0.170 C 
HETATM    4  N   UNL     1       5.324  -3.535  -1.165  1.00  0.00    -0.318 N 
HETATM    5  C   UNL     1       5.712  -4.661  -1.680  1.00  0.00     0.011 C 
HETATM    6  C   UNL     1       4.784  -3.077   0.144  1.00  0.00     0.166 C 
HETATM    7  S   UNL     1       5.865  -3.062  -3.816  1.00  0.00    -0.086 SA
HETATM    8  C   UNL     1       6.487  -4.538  -2.978  1.00  0.00     0.135 C 
HETATM    9  C   UNL     1       4.531  -1.589   0.152  1.00  0.00     0.069 C 
ENDROOT
BRANCH   5  10
HETATM   10  C   UNL     1       5.218  -6.011  -1.221  1.00  0.00     0.156 C 
BRANCH  10  11
HETATM   11  C   UNL     1       4.165  -6.479  -2.226  1.00  0.00     0.222 C 
HETATM   12  N   UNL     1       3.801  -7.798  -2.179  1.00  0.00    -0.361 N 
HETATM   13  H   UNL     1       4.195  -8.397  -1.457  1.00  0.00     0.162 HD
HETATM   14  O   UNL     1       3.728  -5.707  -3.084  1.00  0.00    -0.273 OA
BRANCH  12  15
HETATM   15  C   UNL     1       3.276  -8.472  -3.360  1.00  0.00     0.124 C 
BRANCH  15  16
HETATM   16  C   UNL     1       1.763  -8.384  -3.601  1.00  0.00     0.053 C 
BRANCH  16  17
HETATM   17  C   UNL     1       1.146  -6.994  -3.730  1.00  0.00     0.189 C 
HETATM   18  N   UNL     1       1.717  -6.104  -4.817  1.00  0.00    -0.071 N 
HETATM   19  H   UNL     1       2.599  -5.716  -4.431  1.00  0.00     0.279 HD
HETATM   20  C   UNL     1       2.027  -6.723  -6.151  1.00  0.00     0.270 C 
HETATM   21  C   UNL     1       0.706  -4.975  -4.967  1.00  0.00     0.235 C 
HETATM   22  C   UNL     1      -0.590  -5.504  -4.364  1.00  0.00     0.030 C 
HETATM   23  C   UNL     1      -0.340  -6.972  -4.051  1.00  0.00     0.035 C 
ENDBRANCH  16  17
ENDBRANCH  15  16
ENDBRANCH  12  15
ENDBRANCH  10  11
ENDBRANCH   5  10
BRANCH   6  24
HETATM   24  C   UNL     1       3.552  -3.880   0.568  1.00  0.00    -0.024 A 
HETATM   25  C   UNL     1       3.541  -4.663   1.751  1.00  0.00    -0.053 A 
HETATM   26  C   UNL     1       4.722  -4.765   2.687  1.00  0.00     0.049 C 
HETATM   27  C   UNL     1       2.371  -5.355   2.113  1.00  0.00     0.014 A 
HETATM   28  C   UNL     1       1.216  -5.300   1.328  1.00  0.00    -0.061 A 
HETATM   29  C   UNL     1      -0.043  -5.984   1.781  1.00  0.00     0.048 C 
HETATM   30  C   UNL     1       1.224  -4.524   0.170  1.00  0.00     0.007 A 
HETATM   31  C   UNL     1       2.373  -3.824  -0.208  1.00  0.00     0.011 A 
ENDBRANCH   6  24
BRANCH   9  32
HETATM   32  C   UNL     1       4.615  -0.963   1.492  1.00  0.00     0.293 C 
HETATM   33  O   UNL     1       4.135  -1.450   2.496  1.00  0.00    -0.259 OA
BRANCH  32  34
HETATM   34  O   UNL     1       5.471   0.083   1.419  1.00  0.00    -0.323 OA
HETATM   35  C   UNL     1       5.758   0.740   2.657  1.00  0.00     0.213 C 
ENDBRANCH  32  34
ENDBRANCH   9  32
BRANCH   1  36
HETATM   36  C   UNL     1       3.874   0.602  -0.986  1.00  0.00     0.056 C 
HETATM   37  C   UNL     1       2.607   0.846  -0.169  1.00  0.00     0.011 C 
ENDBRANCH   1  36
TORSDOF 9
