REMARK  7 active torsions:
REMARK  status: ('A' for Active; 'I' for Inactive)
REMARK    1  A    between atoms: C_4  and  C_5 
REMARK    2  A    between atoms: C_7  and  C_8 
REMARK    3  A    between atoms: C_8  and  N_9 
REMARK       I    between atoms: N_9  and  C_10 
REMARK       I    between atoms: C_10  and  N_11 
REMARK    4  A    between atoms: N_11  and  C_12 
REMARK    5  A    between atoms: C_14  and  O_15 
REMARK    6  A    between atoms: O_15  and  C_16 
REMARK    7  A    between atoms: C_16  and  C_17 
ROOT
HETATM    1  N   UNL     1       4.845   5.808   0.288  1.00  0.00    -0.339 N 
HETATM    2  C   UNL     1       4.572   7.009  -0.298  1.00  0.00     0.320 C 
HETATM    3  N   UNL     1       3.368   7.578  -0.019  1.00  0.00    -0.309 N 
HETATM    4  O   UNL     1       5.383   7.618  -0.991  1.00  0.00    -0.247 OA
HETATM    5  H   UNL     1       4.436   5.738   1.208  1.00  0.00     0.164 HD
HETATM    6  H   UNL     1       3.358   8.554  -0.291  1.00  0.00     0.170 HD
ENDROOT
BRANCH   1   7
HETATM    7  C   UNL     1       6.170   5.245   0.136  1.00  0.00     0.162 C 
BRANCH   7   8
HETATM    8  C   UNL     1       6.335   3.833   0.647  1.00  0.00    -0.040 A 
HETATM    9  C   UNL     1       5.440   3.217   1.535  1.00  0.00     0.024 A 
HETATM   10  C   UNL     1       5.670   1.919   2.024  1.00  0.00     0.014 A 
HETATM   11  C   UNL     1       6.821   1.234   1.619  1.00  0.00     0.015 A 
HETATM   12  C   UNL     1       7.723   1.831   0.739  1.00  0.00     0.002 A 
HETATM   13  C   UNL     1       7.482   3.120   0.262  1.00  0.00     0.009 A 
BRANCH  10  14
HETATM   14  C   UNL     1       4.724   1.291   2.941  1.00  0.00     0.181 A 
HETATM   15  N   UNL     1       4.989   0.099   3.581  1.00  0.00    -0.212 NA
HETATM   16  C   UNL     1       3.907  -0.125   4.294  1.00  0.00     0.118 A 
HETATM   17  C   UNL     1       3.639  -1.256   5.205  1.00  0.00     0.093 C 
HETATM   18  N   UNL     1       3.016   0.884   4.072  1.00  0.00    -0.263 N 
HETATM   19  N   UNL     1       3.520   1.806   3.238  1.00  0.00    -0.152 NA
HETATM   20  H   UNL     1       2.080   1.007   4.441  1.00  0.00     0.190 HD
ENDBRANCH  10  14
ENDBRANCH   7   8
ENDBRANCH   1   7
BRANCH   3  21
HETATM   21  C   UNL     1       2.161   7.056   0.480  1.00  0.00     0.039 A 
HETATM   22  C   UNL     1       1.853   5.689   0.521  1.00  0.00     0.066 A 
HETATM   23  C   UNL     1       0.608   5.259   0.994  1.00  0.00     0.070 A 
HETATM   24  C   UNL     1      -0.326   6.200   1.432  1.00  0.00     0.037 A 
HETATM   25  C   UNL     1      -0.037   7.560   1.379  1.00  0.00     0.005 A 
HETATM   26  C   UNL     1       1.198   7.985   0.893  1.00  0.00     0.030 A 
BRANCH  23  27
HETATM   27  O   UNL     1       0.175   3.963   1.062  1.00  0.00    -0.349 OA
BRANCH  27  28
HETATM   28  C   UNL     1       1.056   2.948   0.571  1.00  0.00     0.207 C 
BRANCH  28  29
HETATM   29  C   UNL     1       0.355   1.603   0.681  1.00  0.00     0.248 C 
HETATM   30  F   UNL     1       0.321   1.207   1.986  1.00  0.00    -0.253 F 
ENDBRANCH  28  29
ENDBRANCH  27  28
ENDBRANCH  23  27
ENDBRANCH   3  21
TORSDOF 7
