REMARK  2 active torsions:
REMARK  status: ('A' for Active; 'I' for Inactive)
REMARK    1  A    between atoms: O_2  and  C_3 
REMARK    2  A    between atoms: C_7  and  N_8 
REMARK       I    between atoms: N_8  and  C_9 
REMARK       I    between atoms: C_9  and  N_10 
ROOT
HETATM    1  N   UNL     1       5.014  -5.172  -0.996  1.00  0.00    -0.307 N 
HETATM    2  C   UNL     1       4.332  -6.364  -1.006  1.00  0.00     0.323 C 
HETATM    3  N   UNL     1       3.005  -6.296  -0.597  1.00  0.00    -0.328 N 
HETATM    4  C   UNL     1       2.336  -7.586  -0.366  1.00  0.00     0.185 C 
HETATM    5  C   UNL     1       0.874  -7.438  -0.582  1.00  0.00     0.035 A 
HETATM    6  C   UNL     1       0.175  -6.268  -0.782  1.00  0.00    -0.020 A 
HETATM    7  C   UNL     1       0.874  -4.959  -0.829  1.00  0.00     0.061 C 
HETATM    8  C   UNL     1       2.271  -5.076  -0.183  1.00  0.00     0.132 C 
HETATM    9  N   UNL     1      -0.014  -8.477  -0.624  1.00  0.00    -0.357 N 
HETATM   10  H   UNL     1       0.217  -9.456  -0.522  1.00  0.00     0.166 HD
HETATM   11  C   UNL     1      -1.286  -7.996  -0.854  1.00  0.00     0.043 A 
HETATM   12  C   UNL     1      -1.194  -6.605  -0.956  1.00  0.00    -0.001 A 
HETATM   13  C   UNL     1      -2.497  -8.684  -0.988  1.00  0.00     0.030 A 
HETATM   14  C   UNL     1      -3.648  -7.929  -1.233  1.00  0.00     0.002 A 
HETATM   15  C   UNL     1      -3.588  -6.542  -1.338  1.00  0.00     0.001 A 
HETATM   16  C   UNL     1      -2.368  -5.867  -1.202  1.00  0.00     0.014 A 
HETATM   17  O   UNL     1       4.843  -7.433  -1.337  1.00  0.00    -0.247 OA
HETATM   18  H   UNL     1       4.716  -4.489  -0.316  1.00  0.00     0.170 HD
ENDROOT
BRANCH   1  19
HETATM   19  C   UNL     1       6.303  -4.927  -1.534  1.00  0.00     0.058 A 
HETATM   20  C   UNL     1       7.002  -3.778  -1.130  1.00  0.00     0.063 A 
HETATM   21  C   UNL     1       8.278  -3.502  -1.628  1.00  0.00     0.063 A 
HETATM   22 CL   UNL     1       6.313  -2.674   0.014  1.00  0.00    -0.082 Cl
HETATM   23  C   UNL     1       8.878  -4.366  -2.544  1.00  0.00     0.070 A 
HETATM   24  C   UNL     1       8.178  -5.490  -2.979  1.00  0.00     0.039 A 
HETATM   25  C   UNL     1       6.899  -5.766  -2.479  1.00  0.00     0.034 A 
BRANCH  23  26
HETATM   26  O   UNL     1      10.133  -4.000  -2.945  1.00  0.00    -0.356 OA
HETATM   27  C   UNL     1      10.862  -4.953  -3.710  1.00  0.00     0.210 C 
ENDBRANCH  23  26
ENDBRANCH   1  19
TORSDOF 2
