REMARK  7 active torsions:
REMARK  status: ('A' for Active; 'I' for Inactive)
REMARK    1  A    between atoms: C_2  and  C_3 
REMARK    2  A    between atoms: C_2  and  C_20 
REMARK    3  A    between atoms: C_3  and  C_4 
REMARK       I    between atoms: C_4  and  N_5 
REMARK    4  A    between atoms: N_5  and  C_6 
REMARK    5  A    between atoms: C_13  and  C_14 
REMARK       I    between atoms: C_14  and  N_15 
REMARK    6  A    between atoms: C_20  and  C_21 
REMARK    7  A    between atoms: C_22  and  O_23 
ROOT
HETATM    1  C   UNL     1       2.288   1.661   1.651  1.00  0.00     0.222 C 
HETATM    2  N   UNL     1       3.044   2.701   2.110  1.00  0.00    -0.327 N 
HETATM    3  O   UNL     1       1.174   1.933   1.190  1.00  0.00    -0.273 OA
HETATM    4  H   UNL     1       2.489   3.548   2.153  1.00  0.00     0.169 HD
ENDROOT
BRANCH   2   5
HETATM    5  C   UNL     1       4.378   2.807   2.538  1.00  0.00     0.035 A 
HETATM    6  C   UNL     1       5.400   1.940   2.140  1.00  0.00     0.046 A 
HETATM    7  C   UNL     1       6.701   2.104   2.663  1.00  0.00     0.030 A 
HETATM    8  C   UNL     1       6.953   3.168   3.517  1.00  0.00     0.063 A 
HETATM    9  C   UNL     1       7.945   1.415   2.551  1.00  0.00     0.156 A 
HETATM   10  N   UNL     1       8.275   3.063   3.848  1.00  0.00    -0.277 N 
HETATM   11  C   UNL     1       5.975   4.095   3.882  1.00  0.00     0.034 A 
HETATM   12  H   UNL     1       8.807   3.675   4.456  1.00  0.00     0.189 HD
HETATM   13  N   UNL     1       8.906   2.015   3.290  1.00  0.00    -0.168 NA
HETATM   14  C   UNL     1       4.686   3.893   3.369  1.00  0.00     0.032 A 
BRANCH   9  15
HETATM   15  C   UNL     1       8.217   0.193   1.780  1.00  0.00     0.270 C 
HETATM   16  N   UNL     1       9.496  -0.274   1.905  1.00  0.00    -0.365 N 
HETATM   17  H   UNL     1      10.137   0.222   2.514  1.00  0.00     0.159 HD
HETATM   18  H   UNL     1       9.767  -1.126   1.440  1.00  0.00     0.159 HD
HETATM   19  O   UNL     1       7.389  -0.388   1.087  1.00  0.00    -0.266 OA
ENDBRANCH   9  15
ENDBRANCH   2   5
BRANCH   1  20
HETATM   20  C   UNL     1       2.720   0.218   1.831  1.00  0.00     0.107 C 
BRANCH  20  21
HETATM   21  C   UNL     1       2.607  -0.668   0.574  1.00  0.00    -0.006 C 
HETATM   22  C   UNL     1       2.921   0.075  -0.729  1.00  0.00     0.011 C 
BRANCH  21  23
HETATM   23  C   UNL     1       1.238  -1.382   0.467  1.00  0.00     0.046 C 
BRANCH  23  24
HETATM   24  C   UNL     1       0.951  -2.347   1.608  1.00  0.00    -0.024 A 
HETATM   25  C   UNL     1      -0.212  -2.240   2.397  1.00  0.00     0.074 A 
HETATM   26  C   UNL     1      -0.410  -3.128   3.461  1.00  0.00     0.037 A 
HETATM   27  C   UNL     1       0.525  -4.129   3.737  1.00  0.00     0.003 A 
HETATM   28  C   UNL     1       1.657  -4.261   2.944  1.00  0.00     0.001 A 
HETATM   29  C   UNL     1       1.864  -3.383   1.881  1.00  0.00     0.010 A 
BRANCH  25  30
HETATM   30  O   UNL     1      -1.082  -1.237   2.060  1.00  0.00    -0.355 OA
HETATM   31  C   UNL     1      -2.317  -1.171   2.757  1.00  0.00     0.210 C 
ENDBRANCH  25  30
ENDBRANCH  23  24
ENDBRANCH  21  23
ENDBRANCH  20  21
ENDBRANCH   1  20
TORSDOF 7
