REMARK  5 active torsions:
REMARK  status: ('A' for Active; 'I' for Inactive)
REMARK    1  A    between atoms: C_4  and  C_5 
REMARK    2  A    between atoms: C_17  and  C_18 
REMARK    3  A    between atoms: C_18  and  N_19 
REMARK       I    between atoms: N_19  and  C_20 
REMARK    4  A    between atoms: C_20  and  C_21 
REMARK    5  A    between atoms: C_21  and  C_22 
ROOT
HETATM    1  C   UNL     1       0.829  -0.164  -0.199  1.00  0.00     0.048 C 
HETATM    2  C   UNL     1       2.319   0.014  -0.173  1.00  0.00    -0.060 A 
HETATM    3  C   UNL     1       3.176  -1.107  -0.163  1.00  0.00     0.024 A 
HETATM    4  C   UNL     1       4.579  -0.975  -0.124  1.00  0.00     0.034 A 
HETATM    5  C   UNL     1       5.079   0.321  -0.078  1.00  0.00     0.088 A 
HETATM    6  C   UNL     1       4.244   1.432  -0.075  1.00  0.00    -0.021 A 
HETATM    7  C   UNL     1       5.044   2.669   0.078  1.00  0.00     0.075 C 
HETATM    8  C   UNL     1       6.448   2.102  -0.168  1.00  0.00     0.151 C 
HETATM    9  O   UNL     1       6.406   0.662   0.034  1.00  0.00    -0.342 OA
HETATM   10  C   UNL     1       2.867   1.301  -0.124  1.00  0.00     0.017 A 
ENDROOT
BRANCH   8  11
HETATM   11  C   UNL     1       7.508   2.680   0.779  1.00  0.00     0.155 C 
BRANCH  11  12
HETATM   12  N   UNL     1       7.542   4.129   0.864  1.00  0.00    -0.359 N 
HETATM   13  C   UNL     1       7.880   4.920  -0.211  1.00  0.00     0.219 C 
HETATM   14  O   UNL     1       8.128   4.468  -1.322  1.00  0.00    -0.274 OA
HETATM   15  H   UNL     1       7.432   4.554   1.777  1.00  0.00     0.162 HD
BRANCH  13  16
HETATM   16  C   UNL     1       7.927   6.397   0.132  1.00  0.00     0.128 C 
BRANCH  16  17
HETATM   17  C   UNL     1       8.015   7.279  -1.121  1.00  0.00     0.094 C 
HETATM   18  N   UNL     1       6.760   7.256  -1.859  1.00  0.00    -0.362 N 
HETATM   19  C   UNL     1       5.727   8.104  -1.639  1.00  0.00     0.168 C 
HETATM   20  H   UNL     1       6.567   6.447  -2.443  1.00  0.00     0.162 HD
HETATM   21  S   UNL     1       4.239   7.849  -2.325  1.00  0.00    -0.041 SA
HETATM   22  N   UNL     1       5.963   9.185  -0.855  1.00  0.00    -0.363 N 
HETATM   23  C   UNL     1       7.184   9.405  -0.098  1.00  0.00     0.081 C 
HETATM   24  H   UNL     1       5.150   9.759  -0.658  1.00  0.00     0.162 HD
HETATM   25  C   UNL     1       7.433  10.898   0.090  1.00  0.00     0.032 C 
HETATM   26  C   UNL     1       8.371   8.729  -0.783  1.00  0.00     0.050 C 
ENDBRANCH  16  17
ENDBRANCH  13  16
ENDBRANCH  11  12
ENDBRANCH   8  11
BRANCH   4  27
HETATM   27  C   UNL     1       5.406  -2.190  -0.101  1.00  0.00     0.112 A 
HETATM   28  S   UNL     1       6.910  -2.273  -0.934  1.00  0.00    -0.067 SA
HETATM   29  C   UNL     1       7.109  -3.908  -0.440  1.00  0.00     0.035 A 
HETATM   30  C   UNL     1       5.998  -4.291   0.309  1.00  0.00     0.075 A 
HETATM   31  C   UNL     1       8.170  -4.791  -0.701  1.00  0.00     0.021 A 
HETATM   32  N   UNL     1       5.032  -3.315   0.479  1.00  0.00    -0.239 NA
HETATM   33  C   UNL     1       5.943  -5.605   0.817  1.00  0.00     0.033 A 
HETATM   34  C   UNL     1       6.994  -6.493   0.565  1.00  0.00     0.002 A 
HETATM   35  C   UNL     1       8.093  -6.089  -0.185  1.00  0.00     0.002 A 
ENDBRANCH   4  27
TORSDOF 5
