REMARK  3 active torsions:
REMARK  status: ('A' for Active; 'I' for Inactive)
REMARK    1  A    between atoms: C_5  and  C_6 
REMARK    2  A    between atoms: C_6  and  O_7 
REMARK       I    between atoms: N_10  and  C_11 
REMARK       I    between atoms: C_11  and  N_12 
REMARK    3  A    between atoms: N_12  and  C_13 
ROOT
HETATM    1  C   UNL     1       6.717   0.221  -0.571  1.00  0.00     0.105 C 
HETATM    2  C   UNL     1       7.077  -1.227  -0.957  1.00  0.00     0.064 C 
HETATM    3  C   UNL     1       6.406  -1.660  -2.254  1.00  0.00     0.131 C 
HETATM    4  N   UNL     1       6.701  -0.726  -3.347  1.00  0.00    -0.334 N 
HETATM    5  C   UNL     1       7.092  -1.053  -4.648  1.00  0.00     0.322 C 
HETATM    6  N   UNL     1       7.165  -2.400  -4.918  1.00  0.00    -0.309 N 
HETATM    7  O   UNL     1       7.345  -0.176  -5.472  1.00  0.00    -0.247 OA
HETATM    8  C   UNL     1       6.430   0.681  -3.054  1.00  0.00     0.131 C 
HETATM    9  C   UNL     1       7.083   1.133  -1.751  1.00  0.00     0.064 C 
HETATM   10  H   UNL     1       6.623  -3.003  -4.324  1.00  0.00     0.170 HD
ENDROOT
BRANCH   6  11
HETATM   11  C   UNL     1       7.712  -3.019  -6.065  1.00  0.00     0.037 A 
HETATM   12  C   UNL     1       8.439  -2.331  -7.046  1.00  0.00     0.039 A 
HETATM   13  C   UNL     1       8.938  -3.047  -8.122  1.00  0.00    -0.021 A 
HETATM   14  C   UNL     1       8.736  -4.419  -8.223  1.00  0.00     0.041 A 
HETATM   15  C   UNL     1       9.730  -2.571  -9.303  1.00  0.00     0.144 A 
HETATM   16  N   UNL     1       9.334  -4.896  -9.377  1.00  0.00    -0.326 N 
HETATM   17  C   UNL     1       8.039  -5.132  -7.275  1.00  0.00     0.032 A 
HETATM   18  C   UNL     1       9.950  -3.871 -10.086  1.00  0.00     0.226 A 
HETATM   19  H   UNL     1       9.340  -5.855  -9.690  1.00  0.00     0.169 HD
HETATM   20  O   UNL     1      10.553  -3.998 -11.138  1.00  0.00    -0.273 OA
HETATM   21  C   UNL     1       7.524  -4.416  -6.188  1.00  0.00     0.032 A 
ENDBRANCH   6  11
BRANCH   1  22
HETATM   22  C   UNL     1       5.289   0.321  -0.026  1.00  0.00     0.068 A 
HETATM   23  N   UNL     1       4.980  -0.569   0.957  1.00  0.00    -0.262 NA
HETATM   24  C   UNL     1       3.762  -0.485   1.540  1.00  0.00     0.123 A 
HETATM   25  C   UNL     1       2.803   0.457   1.204  1.00  0.00    -0.044 A 
HETATM   26  C   UNL     1       1.492   0.528   1.920  1.00  0.00     0.049 C 
HETATM   27  C   UNL     1       3.142   1.385   0.223  1.00  0.00     0.010 A 
HETATM   28  C   UNL     1       4.393   1.323  -0.393  1.00  0.00     0.031 A 
ENDBRANCH   1  22
BRANCH   1  29
HETATM   29  O   UNL     1       7.583   0.581   0.526  1.00  0.00    -0.383 OA
HETATM   30  H   UNL     1       7.144   0.234   1.328  1.00  0.00     0.211 HD
ENDBRANCH   1  29
TORSDOF 3
