REMARK  5 active torsions:
REMARK  status: ('A' for Active; 'I' for Inactive)
REMARK    1  A    between atoms: C_4  and  N_5 
REMARK    2  A    between atoms: C_8  and  N_9 
REMARK    3  A    between atoms: C_14  and  N_15 
REMARK    4  A    between atoms: N_15  and  C_16 
REMARK    5  A    between atoms: C_19  and  C_20 
REMARK       I    between atoms: C_20  and  N_21 
ROOT
HETATM    1  C   UNL     1       0.957   0.187   0.530  1.00  0.00     0.071 C 
HETATM    2  C   UNL     1       2.438   0.056   0.336  1.00  0.00     0.053 A 
HETATM    3  N   UNL     1       3.148   1.189   0.208  1.00  0.00    -0.066 NA
HETATM    4  C   UNL     1       4.476   1.062   0.009  1.00  0.00     0.751 A 
HETATM    5  N   UNL     1       5.124  -0.120  -0.081  1.00  0.00    -0.043 NA
HETATM    6  C   UNL     1       4.394  -1.237   0.063  1.00  0.00     0.149 A 
HETATM    7  C   UNL     1       3.029  -1.188   0.285  1.00  0.00     0.078 A 
ENDROOT
BRANCH   6   8
HETATM    8  N   UNL     1       4.997  -2.513  -0.013  1.00  0.00    -0.340 N 
HETATM    9  H   UNL     1       4.791  -3.050   0.822  1.00  0.00     0.167 HD
BRANCH   8  10
HETATM   10  C   UNL     1       6.217  -2.877  -0.618  1.00  0.00     0.033 A 
HETATM   11  C   UNL     1       6.849  -4.067  -0.225  1.00  0.00     0.030 A 
HETATM   12  C   UNL     1       8.008  -4.522  -0.867  1.00  0.00     0.019 A 
HETATM   13  C   UNL     1       8.547  -3.796  -1.933  1.00  0.00     0.032 A 
HETATM   14  C   UNL     1       7.911  -2.624  -2.353  1.00  0.00     0.019 A 
HETATM   15  C   UNL     1       6.757  -2.174  -1.701  1.00  0.00     0.030 A 
BRANCH  13  16
HETATM   16  C   UNL     1       9.751  -4.252  -2.678  1.00  0.00     0.249 C 
HETATM   17  N   UNL     1      10.614  -5.093  -2.032  1.00  0.00    -0.366 N 
HETATM   18  H   UNL     1      10.599  -5.226  -1.032  1.00  0.00     0.159 HD
HETATM   19  H   UNL     1      11.475  -5.303  -2.521  1.00  0.00     0.159 HD
HETATM   20  O   UNL     1       9.984  -3.873  -3.819  1.00  0.00    -0.268 OA
ENDBRANCH  13  16
ENDBRANCH   8  10
ENDBRANCH   6   8
BRANCH   4  21
HETATM   21  N   UNL     1       5.268   2.258  -0.092  1.00  0.00    -0.069 N 
HETATM   22  N   UNL     1       4.726   3.513  -0.022  1.00  0.00    -0.163 NA
HETATM   23  C   UNL     1       5.771   4.337  -0.128  1.00  0.00     0.177 A 
HETATM   24  C   UNL     1       6.983   3.648  -0.265  1.00  0.00     0.140 A 
HETATM   25  C   UNL     1       6.641   2.314  -0.249  1.00  0.00     0.175 A 
BRANCH  24  26
HETATM   26  N   UNL     1       8.293   4.204  -0.386  1.00  0.00    -0.113 N 
HETATM   27  O   UNL     1       8.375   5.438  -0.390  1.00  0.00    -0.532 OA
HETATM   28  O   UNL     1       9.238   3.410  -0.472  1.00  0.00    -0.532 OA
ENDBRANCH  24  26
ENDBRANCH   4  21
TORSDOF 5
