REMARK  5 active torsions:
REMARK  status: ('A' for Active; 'I' for Inactive)
REMARK    1  A    between atoms: C_6  and  C_7 
REMARK       I    between atoms: C_7  and  N_8 
REMARK    2  A    between atoms: N_8  and  C_9 
REMARK    3  A    between atoms: C_20  and  C_21 
REMARK    4  A    between atoms: C_22  and  C_23 
REMARK    5  A    between atoms: C_26  and  O_27 
ROOT
HETATM    1  C   UNL     1       0.852  -3.553  -0.138  1.00  0.00     0.118 C 
HETATM    2  C   UNL     1       1.534  -4.800  -0.747  1.00  0.00     0.202 C 
HETATM    3  N   UNL     1       2.484  -4.293  -1.717  1.00  0.00    -0.332 N 
HETATM    4  C   UNL     1       3.501  -5.024  -2.271  1.00  0.00     0.257 C 
HETATM    5  O   UNL     1       4.351  -4.530  -3.007  1.00  0.00    -0.267 OA
HETATM    6  C   UNL     1       3.568  -6.476  -1.954  1.00  0.00     0.059 A 
HETATM    7  C   UNL     1       2.443  -7.321  -1.931  1.00  0.00     0.050 A 
HETATM    8  N   UNL     1       1.103  -6.892  -1.999  1.00  0.00    -0.324 N 
HETATM    9  C   UNL     1       0.579  -5.711  -1.522  1.00  0.00     0.247 C 
HETATM   10  O   UNL     1      -0.614  -5.467  -1.701  1.00  0.00    -0.271 OA
HETATM   11  C   UNL     1       4.855  -7.018  -1.798  1.00  0.00     0.030 A 
HETATM   12  C   UNL     1       5.038  -8.391  -1.601  1.00  0.00    -0.035 A 
HETATM   13  C   UNL     1       3.925  -9.233  -1.668  1.00  0.00     0.013 A 
HETATM   14  C   UNL     1       2.642  -8.704  -1.843  1.00  0.00     0.031 A 
HETATM   15  C   UNL     1       2.187  -2.931  -2.084  1.00  0.00     0.129 C 
HETATM   16  C   UNL     1       1.509  -2.357  -0.855  1.00  0.00     0.047 C 
HETATM   17  H   UNL     1       0.389  -7.557  -2.272  1.00  0.00     0.169 HD
ENDROOT
BRANCH   1  18
HETATM   18  N   UNL     1       1.067  -3.429   1.311  1.00  0.00    -0.350 N 
HETATM   19  C   UNL     1       0.721  -4.447   2.176  1.00  0.00     0.252 C 
HETATM   20  O   UNL     1       0.251  -5.515   1.802  1.00  0.00    -0.268 OA
HETATM   21  H   UNL     1       1.155  -2.497   1.694  1.00  0.00     0.163 HD
BRANCH  19  22
HETATM   22  C   UNL     1       0.964  -4.199   3.622  1.00  0.00     0.035 A 
HETATM   23  C   UNL     1       1.978  -3.338   4.057  1.00  0.00     0.059 A 
HETATM   24  C   UNL     1       2.190  -3.173   5.421  1.00  0.00     0.117 A 
HETATM   25  C   UNL     1       1.419  -3.850   6.360  1.00  0.00     0.042 A 
HETATM   26  F   UNL     1       3.164  -2.353   5.838  1.00  0.00    -0.206 F 
HETATM   27  C   UNL     1       0.418  -4.719   5.930  1.00  0.00     0.004 A 
HETATM   28  C   UNL     1       0.194  -4.898   4.563  1.00  0.00     0.017 A 
ENDBRANCH  19  22
ENDBRANCH   1  18
BRANCH  12  29
HETATM   29  C   UNL     1       6.363  -8.970  -1.351  1.00  0.00     0.012 C 
HETATM   30  C   UNL     1       7.231  -8.422  -0.485  1.00  0.00     0.012 C 
BRANCH  30  31
HETATM   31  C   UNL     1       8.547  -8.987  -0.161  1.00  0.00    -0.036 A 
HETATM   32  C   UNL     1       9.623  -8.114   0.050  1.00  0.00     0.014 A 
HETATM   33  C   UNL     1      10.880  -8.605   0.414  1.00  0.00     0.037 A 
HETATM   34  C   UNL     1      11.056  -9.974   0.578  1.00  0.00     0.065 A 
HETATM   35  C   UNL     1       9.999 -10.855   0.386  1.00  0.00     0.037 A 
HETATM   36  C   UNL     1       8.744 -10.362   0.021  1.00  0.00     0.014 A 
BRANCH  34  37
HETATM   37  O   UNL     1      12.262 -10.497   0.939  1.00  0.00    -0.361 OA
HETATM   38  H   UNL     1      12.898  -9.770   1.038  1.00  0.00     0.217 HD
ENDBRANCH  34  37
ENDBRANCH  30  31
ENDBRANCH  12  29
TORSDOF 5
