REMARK  6 active torsions:
REMARK  status: ('A' for Active; 'I' for Inactive)
REMARK    1  A    between atoms: C_4  and  C_5 
REMARK    2  A    between atoms: C_5  and  O_6 
REMARK    3  A    between atoms: O_6  and  C_7 
REMARK    4  A    between atoms: C_10  and  C_11 
REMARK    5  A    between atoms: C_17  and  C_18 
REMARK    6  A    between atoms: C_27  and  N_28 
ROOT
HETATM    1  C   UNL     1       8.877  -2.054  -1.147  1.00  0.00     0.072 A 
HETATM    2  N   UNL     1       9.817  -1.063  -1.336  1.00  0.00    -0.274 N 
HETATM    3  H   UNL     1       9.702  -0.066  -1.186  1.00  0.00     0.189 HD
HETATM    4  N   UNL     1      11.012  -1.513  -1.771  1.00  0.00    -0.148 NA
HETATM    5  C   UNL     1      10.812  -2.822  -1.847  1.00  0.00     0.199 A 
HETATM    6  C   UNL     1       9.525  -3.229  -1.490  1.00  0.00     0.040 A 
HETATM    7  C   UNL     1       9.138  -4.664  -1.553  1.00  0.00     0.106 A 
HETATM    8  C   UNL     1      10.314  -5.528  -1.994  1.00  0.00     0.081 A 
HETATM    9  C   UNL     1      10.098  -6.938  -2.005  1.00  0.00     0.100 C 
HETATM   10  N   UNL     1       9.911  -8.083  -2.013  1.00  0.00    -0.191 NA
HETATM   11  C   UNL     1      11.530  -5.013  -2.314  1.00  0.00     0.140 A 
HETATM   12  O   UNL     1      11.796  -3.637  -2.267  1.00  0.00    -0.277 OA
ENDROOT
BRANCH   7  13
HETATM   13  C   UNL     1       7.945  -4.750  -2.495  1.00  0.00    -0.041 A 
HETATM   14  C   UNL     1       8.003  -4.332  -3.832  1.00  0.00     0.027 A 
HETATM   15  C   UNL     1       6.868  -4.450  -4.621  1.00  0.00     0.116 A 
HETATM   16  N   UNL     1       5.698  -4.960  -4.185  1.00  0.00    -0.273 NA
HETATM   17  C   UNL     1       5.659  -5.370  -2.901  1.00  0.00     0.116 A 
HETATM   18  C   UNL     1       6.737  -5.292  -2.033  1.00  0.00     0.027 A 
ENDBRANCH   7  13
BRANCH  11  19
HETATM   19  N   UNL     1      12.625  -5.751  -2.709  1.00  0.00    -0.282 NA
HETATM   20  H   UNL     1      12.424  -6.645  -3.150  1.00  0.00     0.126 HD
HETATM   21  H   UNL     1      13.297  -5.189  -3.228  1.00  0.00     0.126 HD
ENDBRANCH  11  19
BRANCH   1  22
HETATM   22  C   UNL     1       7.506  -1.792  -0.739  1.00  0.00    -0.007 A 
HETATM   23  C   UNL     1       6.721  -0.877  -1.451  1.00  0.00     0.016 A 
HETATM   24  C   UNL     1       5.375  -0.702  -1.126  1.00  0.00     0.037 A 
HETATM   25  C   UNL     1       4.802  -1.453  -0.103  1.00  0.00     0.069 A 
HETATM   26  C   UNL     1       5.587  -2.322   0.653  1.00  0.00     0.037 A 
HETATM   27  C   UNL     1       6.936  -2.495   0.330  1.00  0.00     0.016 A 
BRANCH  25  28
HETATM   28  O   UNL     1       3.467  -1.262   0.115  1.00  0.00    -0.347 OA
BRANCH  28  29
HETATM   29  C   UNL     1       2.727  -2.484   0.227  1.00  0.00     0.214 C 
BRANCH  29  30
HETATM   30  C   UNL     1       1.374  -2.317  -0.425  1.00  0.00    -0.034 A 
HETATM   31  C   UNL     1       0.873  -3.311  -1.279  1.00  0.00     0.009 A 
HETATM   32  C   UNL     1      -0.382  -3.170  -1.873  1.00  0.00     0.001 A 
HETATM   33  C   UNL     1      -1.153  -2.038  -1.616  1.00  0.00     0.000 A 
HETATM   34  C   UNL     1      -0.671  -1.048  -0.763  1.00  0.00     0.001 A 
HETATM   35  C   UNL     1       0.584  -1.188  -0.166  1.00  0.00     0.009 A 
ENDBRANCH  29  30
ENDBRANCH  28  29
ENDBRANCH  25  28
ENDBRANCH   1  22
TORSDOF 6
