REMARK  7 active torsions:
REMARK  status: ('A' for Active; 'I' for Inactive)
REMARK       I    between atoms: N_2  and  C_3 
REMARK    1  A    between atoms: N_2  and  C_17 
REMARK       I    between atoms: C_3  and  N_4 
REMARK    2  A    between atoms: N_4  and  C_5 
REMARK    3  A    between atoms: N_6  and  C_7 
REMARK    4  A    between atoms: C_17  and  C_18 
REMARK    5  A    between atoms: C_18  and  C_19 
REMARK    6  A    between atoms: C_19  and  O_20 
REMARK    7  A    between atoms: C_19  and  C_21 
ROOT
HETATM    1  C   UNL     1       3.035  -1.370   0.310  1.00  0.00     0.154 C 
HETATM    2  N   UNL     1       2.162  -0.250  -0.009  1.00  0.00    -0.343 N 
HETATM    3  C   UNL     1       2.630   1.002  -0.404  1.00  0.00     0.301 C 
HETATM    4  N   UNL     1       3.875   1.304   0.129  1.00  0.00    -0.194 NA
HETATM    5  O   UNL     1       1.954   1.776  -1.077  1.00  0.00    -0.254 OA
HETATM    6  H   UNL     1       3.914   1.026   1.101  1.00  0.00     0.140 HD
ENDROOT
BRANCH   2   7
HETATM    7  C   UNL     1       0.722  -0.502  -0.011  1.00  0.00     0.129 C 
BRANCH   7   8
HETATM    8  C   UNL     1       0.148  -0.782  -1.398  1.00  0.00     0.056 C 
BRANCH   8   9
HETATM    9  C   UNL     1      -1.352  -1.111  -1.337  1.00  0.00     0.152 C 
BRANCH   9  10
HETATM   10  O   UNL     1      -1.885  -1.039  -2.661  1.00  0.00    -0.391 OA
HETATM   11  H   UNL     1      -1.775  -0.122  -2.963  1.00  0.00     0.210 HD
ENDBRANCH   9  10
BRANCH   9  12
HETATM   12  C   UNL     1      -1.756  -2.463  -0.781  1.00  0.00    -0.030 A 
HETATM   13  C   UNL     1      -0.887  -3.562  -0.706  1.00  0.00     0.010 A 
HETATM   14  C   UNL     1      -1.330  -4.796  -0.220  1.00  0.00     0.001 A 
HETATM   15  C   UNL     1      -2.651  -4.957   0.188  1.00  0.00     0.000 A 
HETATM   16  C   UNL     1      -3.533  -3.884   0.110  1.00  0.00     0.001 A 
HETATM   17  C   UNL     1      -3.089  -2.649  -0.371  1.00  0.00     0.010 A 
ENDBRANCH   9  12
ENDBRANCH   8   9
ENDBRANCH   7   8
ENDBRANCH   2   7
BRANCH   4  18
HETATM   18  C   UNL     1       4.453   2.535  -0.148  1.00  0.00     0.109 A 
HETATM   19  N   UNL     1       4.809   3.007  -1.400  1.00  0.00    -0.254 N 
HETATM   20  N   UNL     1       5.317   4.262  -1.340  1.00  0.00    -0.183 NA
HETATM   21  C   UNL     1       5.347   4.545  -0.040  1.00  0.00     0.142 A 
HETATM   22  C   UNL     1       4.871   3.489   0.751  1.00  0.00     0.065 A 
BRANCH  19  23
HETATM   23  C   UNL     1       4.877   2.249  -2.655  1.00  0.00     0.111 C 
HETATM   24  C   UNL     1       5.220   3.089  -3.908  1.00  0.00     0.027 C 
HETATM   25  C   UNL     1       6.703   3.464  -4.030  1.00  0.00     0.002 C 
HETATM   26  C   UNL     1       7.629   2.267  -3.852  1.00  0.00     0.000 C 
HETATM   27  C   UNL     1       7.310   1.482  -2.586  1.00  0.00     0.002 C 
HETATM   28  C   UNL     1       5.845   1.053  -2.558  1.00  0.00     0.027 C 
ENDBRANCH  19  23
ENDBRANCH   4  18
TORSDOF 7
