REMARK  4 active torsions:
REMARK  status: ('A' for Active; 'I' for Inactive)
REMARK    1  A    between atoms: C_7  and  N_8 
REMARK    2  A    between atoms: N_8  and  C_9 
REMARK    3  A    between atoms: C_9  and  C_10 
REMARK    4  A    between atoms: C_11  and  O_12 
ROOT
HETATM    1  N   UNL     1      -3.742   0.153   0.144  1.00  0.00    -0.222 N 
HETATM    2  H   UNL     1      -4.136   1.062   0.337  1.00  0.00     0.178 HD
ENDROOT
BRANCH   1   3
HETATM    3  C   UNL     1      -2.407   0.048   0.111  1.00  0.00     0.679 A 
HETATM    4  N   UNL     1      -1.577   1.062   0.288  1.00  0.00    -0.190 N 
HETATM    5  C   UNL     1      -0.270   0.630   0.190  1.00  0.00     0.076 A 
HETATM    6  H   UNL     1      -1.845   2.019   0.473  1.00  0.00     0.184 HD
HETATM    7  C   UNL     1      -0.343  -0.738  -0.078  1.00  0.00     0.076 A 
HETATM    8  C   UNL     1       0.936   1.308   0.307  1.00  0.00     0.032 A 
HETATM    9  C   UNL     1       0.786  -1.527  -0.257  1.00  0.00     0.032 A 
HETATM   10  N   UNL     1      -1.688  -1.038  -0.114  1.00  0.00    -0.190 N 
HETATM   11  C   UNL     1       2.015  -0.858  -0.143  1.00  0.00     0.002 A 
HETATM   12  C   UNL     1       2.089   0.526   0.134  1.00  0.00     0.002 A 
HETATM   13  H   UNL     1      -2.070  -1.953  -0.317  1.00  0.00     0.184 HD
ENDBRANCH   1   3
BRANCH   1  14
HETATM   14  C   UNL     1      -4.617  -1.016   0.133  1.00  0.00     0.179 C 
BRANCH  14  15
HETATM   15  C   UNL     1      -4.823  -1.576  -1.250  1.00  0.00    -0.006 A 
HETATM   16  C   UNL     1      -5.438  -2.829  -1.389  1.00  0.00     0.073 A 
HETATM   17  C   UNL     1      -5.692  -3.388  -2.640  1.00  0.00     0.038 A 
HETATM   18  C   UNL     1      -5.329  -2.689  -3.791  1.00  0.00     0.022 A 
HETATM   19  C   UNL     1      -4.728  -1.439  -3.675  1.00  0.00     0.011 A 
HETATM   20 BR   UNL     1      -4.236  -0.487  -5.232  1.00  0.00    -0.051 Br
HETATM   21  C   UNL     1      -4.483  -0.877  -2.419  1.00  0.00     0.030 A 
BRANCH  16  22
HETATM   22  O   UNL     1      -5.794  -3.500  -0.253  1.00  0.00    -0.360 OA
HETATM   23  H   UNL     1      -6.299  -4.298  -0.499  1.00  0.00     0.217 HD
ENDBRANCH  16  22
ENDBRANCH  14  15
ENDBRANCH   1  14
TORSDOF 4
