REMARK  5 active torsions:
REMARK  status: ('A' for Active; 'I' for Inactive)
REMARK    1  A    between atoms: C_4  and  N_5 
REMARK       I    between atoms: N_5  and  C_6 
REMARK       I    between atoms: C_6  and  N_7 
REMARK    2  A    between atoms: N_7  and  C_8 
REMARK    3  A    between atoms: C_11  and  C_12 
REMARK    4  A    between atoms: C_12  and  C_13 
REMARK       I    between atoms: C_13  and  N_14 
REMARK    5  A    between atoms: N_14  and  C_15 
ROOT
HETATM    1  C   UNL     1       1.914   2.805   0.642  1.00  0.00     0.174 A 
HETATM    2  S   UNL     1       1.100   3.052  -0.838  1.00  0.00    -0.062 SA
HETATM    3  C   UNL     1      -0.185   2.076  -0.268  1.00  0.00     0.081 A 
HETATM    4  C   UNL     1       0.071   1.662   1.027  1.00  0.00     0.052 A 
HETATM    5  N   UNL     1       1.275   2.116   1.555  1.00  0.00    -0.228 NA
ENDROOT
BRANCH   1   6
HETATM    6  N   UNL     1       3.153   3.384   0.681  1.00  0.00    -0.287 N 
HETATM    7  C   UNL     1       3.943   3.421   1.769  1.00  0.00     0.326 C 
HETATM    8  N   UNL     1       4.185   2.344   2.553  1.00  0.00    -0.309 N 
HETATM    9  O   UNL     1       4.510   4.483   2.047  1.00  0.00    -0.247 OA
HETATM   10  H   UNL     1       4.647   2.625   3.409  1.00  0.00     0.170 HD
HETATM   11  H   UNL     1       3.265   4.163   0.048  1.00  0.00     0.172 HD
BRANCH   8  12
HETATM   12  C   UNL     1       4.159   0.956   2.312  1.00  0.00     0.036 A 
HETATM   13  C   UNL     1       3.914   0.364   1.071  1.00  0.00     0.036 A 
HETATM   14  C   UNL     1       3.893  -1.033   0.923  1.00  0.00    -0.060 A 
HETATM   15  C   UNL     1       3.523  -1.639  -0.398  1.00  0.00     0.048 C 
HETATM   16  C   UNL     1       4.163  -1.842   2.029  1.00  0.00     0.007 A 
HETATM   17  C   UNL     1       4.472  -1.264   3.257  1.00  0.00     0.003 A 
HETATM   18  C   UNL     1       4.465   0.125   3.398  1.00  0.00     0.029 A 
ENDBRANCH   8  12
ENDBRANCH   1   6
BRANCH   4  19
HETATM   19  C   UNL     1      -0.840   0.855   1.881  1.00  0.00     0.163 C 
BRANCH  19  20
HETATM   20  C   UNL     1      -0.210  -0.454   2.323  1.00  0.00     0.227 C 
HETATM   21  N   UNL     1       0.481  -0.330   3.518  1.00  0.00    -0.327 N 
HETATM   22  H   UNL     1       0.698   0.621   3.799  1.00  0.00     0.169 HD
HETATM   23  O   UNL     1      -0.385  -1.487   1.682  1.00  0.00    -0.273 OA
BRANCH  21  24
HETATM   24  C   UNL     1       0.998  -1.359   4.328  1.00  0.00     0.036 A 
HETATM   25  C   UNL     1       1.635  -0.973   5.516  1.00  0.00     0.056 A 
HETATM   26  C   UNL     1       2.156  -1.936   6.382  1.00  0.00     0.074 A 
HETATM   27 CL   UNL     1       2.933  -1.433   7.834  1.00  0.00    -0.081 Cl
HETATM   28  C   UNL     1       2.047  -3.286   6.066  1.00  0.00     0.138 A 
HETATM   29  F   UNL     1       2.544  -4.226   6.883  1.00  0.00    -0.204 F 
HETATM   30  C   UNL     1       1.419  -3.683   4.892  1.00  0.00     0.046 A 
HETATM   31  C   UNL     1       0.891  -2.720   4.025  1.00  0.00     0.032 A 
ENDBRANCH  21  24
ENDBRANCH  19  20
ENDBRANCH   4  19
TORSDOF 5
