REMARK  4 active torsions:
REMARK  status: ('A' for Active; 'I' for Inactive)
REMARK    1  A    between atoms: C_2  and  N_3 
REMARK       I    between atoms: N_3  and  C_4 
REMARK    2  A    between atoms: C_4  and  C_5 
REMARK    3  A    between atoms: C_5  and  N_6 
REMARK    4  A    between atoms: N_6  and  C_7 
ROOT
HETATM    1  C   UNL     1      -0.303  -2.094  -0.006  1.00  0.00     0.022 A 
HETATM    2  C   UNL     1      -1.172  -2.131   1.128  1.00  0.00     0.012 A 
HETATM    3  C   UNL     1      -2.509  -1.672   0.981  1.00  0.00     0.045 A 
HETATM    4  C   UNL     1      -3.423  -1.726   2.044  1.00  0.00     0.054 A 
HETATM    5  C   UNL     1      -3.021  -2.226   3.278  1.00  0.00     0.036 A 
HETATM    6 CL   UNL     1      -4.147  -2.297   4.572  1.00  0.00    -0.084 Cl
HETATM    7  C   UNL     1      -1.716  -2.660   3.467  1.00  0.00     0.025 A 
HETATM    8  C   UNL     1      -0.802  -2.610   2.409  1.00  0.00     0.017 A 
HETATM    9  N   UNL     1      -2.906  -1.170  -0.203  1.00  0.00    -0.365 N 
HETATM   10  H   UNL     1      -3.866  -0.837  -0.297  1.00  0.00     0.165 HD
HETATM   11  C   UNL     1      -2.096  -1.065  -1.260  1.00  0.00     0.090 A 
HETATM   12  C   UNL     1      -0.787  -1.510  -1.183  1.00  0.00     0.041 A 
ENDROOT
BRANCH   1  13
HETATM   13  N   UNL     1       1.041  -2.505   0.104  1.00  0.00    -0.283 NA
HETATM   14  H   UNL     1       1.178  -3.180   0.854  1.00  0.00     0.128 HD
BRANCH  13  15
HETATM   15  C   UNL     1       1.742  -3.004  -1.108  1.00  0.00     0.195 C 
BRANCH  15  16
HETATM   16  C   UNL     1       2.405  -1.888  -1.920  1.00  0.00     0.231 C 
HETATM   17  N   UNL     1       2.920  -0.868  -1.152  1.00  0.00    -0.352 N 
HETATM   18  H   UNL     1       2.706  -0.915  -0.160  1.00  0.00     0.163 HD
HETATM   19  O   UNL     1       2.472  -1.944  -3.144  1.00  0.00    -0.272 OA
BRANCH  17  20
HETATM   20  C   UNL     1       3.710   0.265  -1.657  1.00  0.00     0.022 C 
HETATM   21  C   UNL     1       2.905   1.096  -2.668  1.00  0.00     0.037 C 
HETATM   22  C   UNL     1       5.013  -0.233  -2.303  1.00  0.00     0.037 C 
HETATM   23  C   UNL     1       4.071   1.168  -0.464  1.00  0.00     0.037 C 
ENDBRANCH  17  20
ENDBRANCH  15  16
ENDBRANCH  13  15
ENDBRANCH   1  13
TORSDOF 4
