REMARK  2 active torsions:
REMARK  status: ('A' for Active; 'I' for Inactive)
REMARK    1  A    between atoms: C_7  and  N_8 
REMARK       I    between atoms: N_8  and  C_9 
REMARK       I    between atoms: C_9  and  N_10 
REMARK    2  A    between atoms: N_10  and  C_11 
ROOT
HETATM    1  C   UNL     1      -3.170   3.251   6.992  1.00  0.00     0.025 A 
HETATM    2  C   UNL     1      -4.470   2.835   6.704  1.00  0.00     0.044 A 
HETATM    3  C   UNL     1      -5.519   3.014   7.665  1.00  0.00     0.099 C 
HETATM    4  N   UNL     1      -6.376   3.165   8.431  1.00  0.00    -0.191 NA
HETATM    5  C   UNL     1      -4.748   2.265   5.459  1.00  0.00     0.025 A 
HETATM    6  C   UNL     1      -3.735   2.125   4.501  1.00  0.00     0.031 A 
HETATM    7  C   UNL     1      -2.431   2.542   4.781  1.00  0.00     0.036 A 
HETATM    8  C   UNL     1      -2.159   3.105   6.035  1.00  0.00     0.031 A 
ENDROOT
BRANCH   7   9
HETATM    9  N   UNL     1      -1.375   2.539   3.846  1.00  0.00    -0.309 N 
HETATM   10  C   UNL     1      -1.327   2.109   2.559  1.00  0.00     0.321 C 
HETATM   11  N   UNL     1      -2.078   1.029   2.230  1.00  0.00    -0.338 N 
HETATM   12  O   UNL     1      -0.603   2.683   1.753  1.00  0.00    -0.247 OA
HETATM   13  H   UNL     1      -2.289   0.421   3.016  1.00  0.00     0.164 HD
HETATM   14  H   UNL     1      -0.604   3.162   4.064  1.00  0.00     0.170 HD
BRANCH  11  15
HETATM   15  C   UNL     1      -2.357   0.524   0.889  1.00  0.00     0.089 C 
HETATM   16  C   UNL     1      -1.127   0.105   0.053  1.00  0.00     0.058 C 
HETATM   17  C   UNL     1      -0.559   1.217  -0.814  1.00  0.00     0.190 C 
HETATM   18  N   UNL     1      -1.669   1.884  -1.583  1.00  0.00    -0.067 N 
HETATM   19  C   UNL     1       0.366   0.813  -1.949  1.00  0.00     0.035 C 
HETATM   20  H   UNL     1      -2.156   1.173  -2.145  1.00  0.00     0.280 HD
HETATM   21  C   UNL     1      -2.666   2.535  -0.684  1.00  0.00     0.237 C 
HETATM   22  C   UNL     1      -0.958   2.784  -2.559  1.00  0.00     0.235 C 
HETATM   23  C   UNL     1      -3.337   1.440   0.134  1.00  0.00     0.053 C 
HETATM   24  C   UNL     1       0.350   2.047  -2.856  1.00  0.00     0.030 C 
ENDBRANCH  11  15
ENDBRANCH   7   9
TORSDOF 2
