REMARK  7 active torsions:
REMARK  status: ('A' for Active; 'I' for Inactive)
REMARK    1  A    between atoms: C_2  and  C_3 
REMARK    2  A    between atoms: N_16  and  C_17 
REMARK    3  A    between atoms: C_17  and  C_18 
REMARK       I    between atoms: C_18  and  N_19 
REMARK    4  A    between atoms: N_19  and  C_20 
REMARK    5  A    between atoms: C_21  and  C_22 
REMARK       I    between atoms: C_22  and  N_23 
REMARK    6  A    between atoms: N_23  and  C_24 
REMARK    7  A    between atoms: C_24  and  C_25 
ROOT
HETATM    1  C   UNL     1       4.415  -1.080   2.986  1.00  0.00     0.240 C 
ENDROOT
BRANCH   1   2
HETATM    2  N   UNL     1       4.178  -0.557   1.664  1.00  0.00    -0.259 N 
HETATM    3  C   UNL     1       4.816   0.534   1.187  1.00  0.00     0.326 C 
HETATM    4  N   UNL     1       4.158   0.996   0.081  1.00  0.00    -0.321 N 
HETATM    5  O   UNL     1       5.778   1.102   1.679  1.00  0.00    -0.247 OA
HETATM    6  C   UNL     1       2.861   0.365  -0.123  1.00  0.00     0.140 C 
HETATM    7  H   UNL     1       4.419   1.917  -0.239  1.00  0.00     0.165 HD
HETATM    8  C   UNL     1       2.775  -0.308  -1.491  1.00  0.00     0.055 C 
HETATM    9  C   UNL     1       3.005  -0.732   0.986  1.00  0.00     0.261 C 
HETATM   10  O   UNL     1       2.178  -1.592   1.263  1.00  0.00    -0.270 OA
BRANCH   6  11
HETATM   11  C   UNL     1       1.684   1.340   0.120  1.00  0.00    -0.010 C 
HETATM   12  C   UNL     1       1.641   2.687  -0.385  1.00  0.00    -0.017 A 
HETATM   13  C   UNL     1       0.579   3.541   0.031  1.00  0.00    -0.025 A 
HETATM   14  C   UNL     1       2.569   3.259  -1.294  1.00  0.00     0.013 A 
HETATM   15  C   UNL     1       0.535   4.888  -0.363  1.00  0.00     0.012 A 
HETATM   16  C   UNL     1      -0.457   3.053   0.832  1.00  0.00     0.012 C 
HETATM   17  C   UNL     1       1.506   5.423  -1.202  1.00  0.00     0.001 A 
HETATM   18  C   UNL     1       2.513   4.603  -1.683  1.00  0.00     0.001 A 
HETATM   19  C   UNL     1      -0.478   1.725   1.223  1.00  0.00     0.002 C 
HETATM   20  C   UNL     1       0.573   0.887   0.869  1.00  0.00     0.011 C 
ENDBRANCH   6  11
ENDBRANCH   1   2
BRANCH   1  21
HETATM   21  C   UNL     1       4.529  -2.599   3.129  1.00  0.00     0.240 C 
HETATM   22  N   UNL     1       4.622  -2.950   4.473  1.00  0.00    -0.325 N 
HETATM   23  H   UNL     1       5.050  -2.253   5.071  1.00  0.00     0.169 HD
HETATM   24  O   UNL     1       4.622  -3.383   2.191  1.00  0.00    -0.271 OA
BRANCH  22  25
HETATM   25  C   UNL     1       4.579  -4.258   4.999  1.00  0.00     0.050 A 
HETATM   26  C   UNL     1       3.694  -5.275   4.610  1.00  0.00     0.058 A 
HETATM   27  C   UNL     1       3.711  -6.515   5.273  1.00  0.00     0.019 A 
HETATM   28  C   UNL     1       4.605  -6.753   6.315  1.00  0.00     0.001 A 
HETATM   29  C   UNL     1       5.470  -5.744   6.720  1.00  0.00     0.002 A 
HETATM   30  C   UNL     1       5.448  -4.504   6.076  1.00  0.00     0.030 A 
BRANCH  26  31
HETATM   31  C   UNL     1       2.532  -5.080   3.718  1.00  0.00     0.254 C 
HETATM   32  N   UNL     1       2.768  -5.295   2.384  1.00  0.00    -0.351 N 
HETATM   33  H   UNL     1       3.696  -5.017   2.063  1.00  0.00     0.163 HD
HETATM   34  O   UNL     1       1.433  -4.852   4.210  1.00  0.00    -0.268 OA
BRANCH  32  35
HETATM   35  C   UNL     1       1.695  -5.122   1.433  1.00  0.00     0.187 C 
BRANCH  35  36
HETATM   36  C   UNL     1       2.118  -5.666   0.119  1.00  0.00     0.070 A 
HETATM   37  O   UNL     1       1.989  -4.840  -0.960  1.00  0.00    -0.325 OA
HETATM   38  C   UNL     1       2.423  -5.532  -2.045  1.00  0.00     0.142 A 
HETATM   39  C   UNL     1       2.828  -6.794  -1.681  1.00  0.00     0.027 A 
HETATM   40  C   UNL     1       2.628  -6.884  -0.283  1.00  0.00     0.036 A 
ENDBRANCH  35  36
ENDBRANCH  32  35
ENDBRANCH  26  31
ENDBRANCH  22  25
ENDBRANCH   1  21
TORSDOF 7
