REMARK  5 active torsions:
REMARK  status: ('A' for Active; 'I' for Inactive)
REMARK    1  A    between atoms: C_5  and  C_6 
REMARK    2  A    between atoms: C_9  and  O_10 
REMARK    3  A    between atoms: O_10  and  C_11 
REMARK    4  A    between atoms: C_11  and  C_12 
REMARK       I    between atoms: C_12  and  N_13 
REMARK    5  A    between atoms: N_13  and  C_14 
ROOT
HETATM    1  C   UNL     1       8.115  -6.278  -0.139  1.00  0.00     0.278 C 
ENDROOT
BRANCH   1   2
HETATM    2  O   UNL     1       8.716  -5.059   0.289  1.00  0.00    -0.342 OA
BRANCH   2   3
HETATM    3  C   UNL     1       8.689  -4.023  -0.603  1.00  0.00     0.069 A 
HETATM    4  C   UNL     1       8.566  -2.752  -0.041  1.00  0.00     0.038 A 
HETATM    5  C   UNL     1       8.567  -1.616  -0.854  1.00  0.00     0.018 A 
HETATM    6  C   UNL     1       8.715  -1.734  -2.243  1.00  0.00     0.015 A 
HETATM    7  C   UNL     1       8.859  -3.016  -2.795  1.00  0.00     0.018 A 
HETATM    8  C   UNL     1       8.849  -4.156  -1.981  1.00  0.00     0.038 A 
BRANCH   6   9
HETATM    9  C   UNL     1       8.730  -0.547  -3.087  1.00  0.00     0.198 A 
HETATM   10  N   UNL     1       8.538   0.725  -2.591  1.00  0.00    -0.136 NA
HETATM   11  N   UNL     1       8.627   1.557  -3.619  1.00  0.00     0.024 NA
HETATM   12  N   UNL     1       8.863   0.766  -4.674  1.00  0.00    -0.196 N 
HETATM   13  C   UNL     1       9.059   1.295  -5.996  1.00  0.00     0.200 C 
HETATM   14  N   UNL     1       8.939  -0.552  -4.417  1.00  0.00    -0.137 NA
ENDBRANCH   6   9
ENDBRANCH   2   3
ENDBRANCH   1   2
BRANCH   1  15
HETATM   15  C   UNL     1       9.105  -7.372  -0.557  1.00  0.00     0.246 C 
HETATM   16  N   UNL     1      10.420  -6.951  -0.533  1.00  0.00    -0.324 N 
HETATM   17  H   UNL     1      10.563  -5.981  -0.272  1.00  0.00     0.169 HD
HETATM   18  O   UNL     1       8.698  -8.484  -0.885  1.00  0.00    -0.271 OA
BRANCH  16  19
HETATM   19  C   UNL     1      11.579  -7.684  -0.854  1.00  0.00     0.047 A 
HETATM   20  C   UNL     1      12.820  -6.995  -0.898  1.00  0.00     0.019 A 
HETATM   21  C   UNL     1      13.982  -7.706  -1.209  1.00  0.00     0.044 A 
HETATM   22  C   UNL     1      13.218  -5.636  -0.701  1.00  0.00     0.033 A 
HETATM   23  N   UNL     1      15.030  -6.812  -1.193  1.00  0.00    -0.365 N 
HETATM   24  C   UNL     1      13.982  -9.078  -1.477  1.00  0.00     0.030 A 
HETATM   25  H   UNL     1      15.992  -7.056  -1.385  1.00  0.00     0.165 HD
HETATM   26  C   UNL     1      14.578  -5.557  -0.891  1.00  0.00     0.089 A 
HETATM   27  C   UNL     1      12.756  -9.741  -1.430  1.00  0.00     0.005 A 
HETATM   28  C   UNL     1      11.576  -9.059  -1.128  1.00  0.00     0.030 A 
ENDBRANCH  16  19
ENDBRANCH   1  15
TORSDOF 5
