REMARK  3 active torsions:
REMARK  status: ('A' for Active; 'I' for Inactive)
REMARK    1  A    between atoms: C_13  and  C_14 
REMARK    2  A    between atoms: C_14  and  N_15 
REMARK       I    between atoms: N_15  and  C_16 
REMARK    3  A    between atoms: C_16  and  C_17 
ROOT
HETATM    1  C   UNL     1       0.108   2.743  -0.021  1.00  0.00     0.002 A 
HETATM    2  C   UNL     1      -1.185   2.200   0.082  1.00  0.00     0.018 A 
HETATM    3  C   UNL     1      -1.275   0.813   0.146  1.00  0.00     0.045 A 
HETATM    4  C   UNL     1      -0.120   0.048   0.104  1.00  0.00     0.017 A 
HETATM    5  C   UNL     1       1.157   0.518  -0.002  1.00  0.00    -0.015 A 
HETATM    6  C   UNL     1       1.261   1.928  -0.063  1.00  0.00     0.013 A 
HETATM    7  C   UNL     1      -0.473  -1.279   0.188  1.00  0.00     0.047 A 
HETATM    8  N   UNL     1      -1.852  -1.333   0.277  1.00  0.00    -0.322 N 
HETATM    9  C   UNL     1      -2.431  -0.056   0.256  1.00  0.00     0.257 A 
HETATM   10  O   UNL     1      -3.631   0.167   0.321  1.00  0.00    -0.267 OA
HETATM   11  C   UNL     1       0.473  -2.283   0.179  1.00  0.00     0.031 A 
HETATM   12  C   UNL     1       1.811  -1.855   0.069  1.00  0.00     0.012 A 
HETATM   13  C   UNL     1       2.174  -0.480  -0.036  1.00  0.00    -0.029 A 
HETATM   14  H   UNL     1      -2.406  -2.172   0.350  1.00  0.00     0.169 HD
ENDROOT
BRANCH  13  15
HETATM   15  C   UNL     1       3.635  -0.127  -0.155  1.00  0.00     0.162 C 
BRANCH  15  16
HETATM   16  N   UNL     1       4.236   0.069   1.140  1.00  0.00    -0.351 N 
HETATM   17  C   UNL     1       4.933  -0.922   1.794  1.00  0.00     0.275 C 
HETATM   18  O   UNL     1       5.131  -2.029   1.301  1.00  0.00    -0.265 OA
HETATM   19  H   UNL     1       4.035   0.914   1.662  1.00  0.00     0.163 HD
BRANCH  17  20
HETATM   20  C   UNL     1       5.410  -0.533   3.105  1.00  0.00     0.142 A 
HETATM   21  O   UNL     1       5.162   0.735   3.568  1.00  0.00    -0.317 OA
HETATM   22  C   UNL     1       5.727   0.829   4.800  1.00  0.00     0.143 A 
HETATM   23  C   UNL     1       6.333  -0.356   5.145  1.00  0.00     0.027 A 
HETATM   24  C   UNL     1       6.129  -1.235   4.055  1.00  0.00     0.045 A 
ENDBRANCH  17  20
ENDBRANCH  15  16
ENDBRANCH  13  15
TORSDOF 3
