REMARK  8 active torsions:
REMARK  status: ('A' for Active; 'I' for Inactive)
REMARK    1  A    between atoms: C_4  and  C_5 
REMARK    2  A    between atoms: C_5  and  N_6 
REMARK    3  A    between atoms: N_6  and  C_9 
REMARK    4  A    between atoms: C_9  and  C_10 
REMARK    5  A    between atoms: C_10  and  C_11 
REMARK    6  A    between atoms: C_11  and  C_12 
REMARK    7  A    between atoms: C_17  and  O_18 
REMARK    8  A    between atoms: C_21  and  O_22 
ROOT
HETATM    1  C   UNL     1       3.190   5.898   4.071  1.00  0.00     0.010 C 
HETATM    2  N   UNL     1       3.972   7.029   4.099  1.00  0.00    -0.359 N 
HETATM    3  H   UNL     1       4.475   7.424   3.315  1.00  0.00     0.166 HD
HETATM    4  C   UNL     1       4.037   7.526   5.381  1.00  0.00     0.048 A 
HETATM    5  C   UNL     1       3.172   6.769   6.167  1.00  0.00     0.026 A 
HETATM    6  C   UNL     1       3.029   7.086   7.534  1.00  0.00     0.083 A 
HETATM    7  C   UNL     1       3.804   8.127   8.074  1.00  0.00     0.074 A 
HETATM    8  C   UNL     1       4.672   8.867   7.268  1.00  0.00     0.073 A 
HETATM    9  C   UNL     1       4.787   8.585   5.901  1.00  0.00     0.067 A 
HETATM   10  C   UNL     1       2.611   5.774   5.317  1.00  0.00     0.041 C 
ENDROOT
BRANCH   1  11
HETATM   11  C   UNL     1       3.082   5.028   2.866  1.00  0.00     0.059 C 
BRANCH  11  12
HETATM   12  C   UNL     1       4.305   4.109   2.736  1.00  0.00     0.033 C 
BRANCH  12  13
HETATM   13  C   UNL     1       4.501   3.218   3.962  1.00  0.00     0.233 C 
BRANCH  13  14
HETATM   14  N   UNL     1       5.745   2.410   3.781  1.00  0.00    -0.067 N 
HETATM   15  H   UNL     1       6.547   3.031   3.607  1.00  0.00     0.277 HD
HETATM   16  H   UNL     1       5.654   1.836   2.933  1.00  0.00     0.277 HD
BRANCH  14  17
HETATM   17  C   UNL     1       6.117   1.490   4.913  1.00  0.00     0.223 C 
HETATM   18  C   UNL     1       6.553   2.302   6.132  1.00  0.00     0.046 C 
BRANCH  17  19
HETATM   19  C   UNL     1       7.190   0.535   4.488  1.00  0.00     0.032 A 
HETATM   20  S   UNL     1       8.588   1.047   3.624  1.00  0.00    -0.076 SA
HETATM   21  C   UNL     1       9.162  -0.573   3.597  1.00  0.00     0.071 A 
HETATM   22  C   UNL     1      10.462  -0.902   2.950  1.00  0.00     0.078 C 
HETATM   23  N   UNL     1       8.376  -1.450   4.181  1.00  0.00    -0.257 NA
HETATM   24  C   UNL     1       7.265  -0.827   4.703  1.00  0.00     0.134 A 
ENDBRANCH  17  19
ENDBRANCH  14  17
ENDBRANCH  13  14
ENDBRANCH  12  13
ENDBRANCH  11  12
ENDBRANCH   1  11
BRANCH   6  25
HETATM   25  O   UNL     1       2.189   6.304   8.289  1.00  0.00    -0.355 OA
HETATM   26  C   UNL     1       1.451   7.018   9.279  1.00  0.00     0.210 C 
ENDBRANCH   6  25
BRANCH   8  27
HETATM   27  O   UNL     1       5.479   9.891   7.690  1.00  0.00    -0.356 OA
HETATM   28  C   UNL     1       5.434  10.229   9.071  1.00  0.00     0.210 C 
ENDBRANCH   8  27
TORSDOF 8
