REMARK  6 active torsions:
REMARK  status: ('A' for Active; 'I' for Inactive)
REMARK    1  A    between atoms: N_3  and  C_4 
REMARK    2  A    between atoms: C_12  and  C_13 
REMARK       I    between atoms: C_13  and  N_14 
REMARK    3  A    between atoms: N_14  and  N_15 
REMARK       I    between atoms: N_15  and  C_16 
REMARK    4  A    between atoms: C_16  and  C_17 
REMARK    5  A    between atoms: C_17  and  C_18 
REMARK    6  A    between atoms: C_23  and  O_24 
ROOT
HETATM    1  C   UNL     1       5.849  -0.855  -1.245  1.00  0.00     0.272 C 
HETATM    2  N   UNL     1       7.151  -0.457  -1.011  1.00  0.00    -0.263 N 
HETATM    3  O   UNL     1       4.921  -0.480  -0.529  1.00  0.00    -0.266 OA
HETATM    4  H   UNL     1       7.919  -0.652  -1.646  1.00  0.00     0.190 HD
ENDROOT
BRANCH   2   5
HETATM    5  N   UNL     1       7.399   0.488  -0.009  1.00  0.00    -0.267 N 
HETATM    6  C   UNL     1       8.683   0.975   0.130  1.00  0.00     0.240 C 
HETATM    7  O   UNL     1       9.593   0.654  -0.637  1.00  0.00    -0.272 OA
HETATM    8  H   UNL     1       6.667   0.624   0.687  1.00  0.00     0.190 HD
BRANCH   6   9
HETATM    9  C   UNL     1       8.862   2.001   1.233  1.00  0.00     0.145 C 
BRANCH   9  10
HETATM   10  C   UNL     1       8.555   1.453   2.590  1.00  0.00    -0.021 A 
HETATM   11  C   UNL     1       7.315   1.555   3.300  1.00  0.00     0.001 A 
HETATM   12  C   UNL     1       7.474   0.895   4.517  1.00  0.00     0.043 A 
HETATM   13  C   UNL     1       6.064   2.141   3.016  1.00  0.00     0.051 A 
HETATM   14  C   UNL     1       6.446   0.790   5.460  1.00  0.00     0.033 A 
HETATM   15  N   UNL     1       8.765   0.424   4.558  1.00  0.00    -0.365 N 
HETATM   16  C   UNL     1       5.208   1.365   5.143  1.00  0.00     0.039 A 
HETATM   17  C   UNL     1       5.010   2.024   3.931  1.00  0.00     0.069 A 
HETATM   18  H   UNL     1       9.163  -0.093   5.330  1.00  0.00     0.165 HD
HETATM   19  C   UNL     1       9.423   0.751   3.404  1.00  0.00     0.097 A 
BRANCH  17  20
HETATM   20  O   UNL     1       3.841   2.615   3.530  1.00  0.00    -0.356 OA
HETATM   21  C   UNL     1       2.660   2.188   4.197  1.00  0.00     0.210 C 
ENDBRANCH  17  20
ENDBRANCH   9  10
ENDBRANCH   6   9
ENDBRANCH   2   5
BRANCH   1  22
HETATM   22  C   UNL     1       5.672  -1.747  -2.397  1.00  0.00     0.058 A 
HETATM   23  C   UNL     1       4.448  -2.114  -2.957  1.00  0.00     0.029 A 
HETATM   24  N   UNL     1       4.675  -3.026  -3.988  1.00  0.00    -0.319 N 
HETATM   25  C   UNL     1       3.090  -1.585  -2.609  1.00  0.00     0.070 C 
HETATM   26  C   UNL     1       6.051  -3.168  -4.139  1.00  0.00     0.014 A 
HETATM   27  C   UNL     1       6.714  -4.097  -5.100  1.00  0.00     0.068 C 
HETATM   28  C   UNL     1       6.667  -2.399  -3.172  1.00  0.00     0.044 A 
BRANCH  24  29
HETATM   29  C   UNL     1       3.675  -3.718  -4.734  1.00  0.00     0.039 A 
HETATM   30  C   UNL     1       2.589  -4.302  -4.068  1.00  0.00     0.030 A 
HETATM   31  C   UNL     1       1.615  -4.992  -4.793  1.00  0.00     0.002 A 
HETATM   32  C   UNL     1       1.719  -5.099  -6.178  1.00  0.00     0.000 A 
HETATM   33  C   UNL     1       2.797  -4.517  -6.844  1.00  0.00     0.002 A 
HETATM   34  C   UNL     1       3.776  -3.828  -6.125  1.00  0.00     0.030 A 
ENDBRANCH  24  29
ENDBRANCH   1  22
TORSDOF 6
