REMARK  7 active torsions:
REMARK  status: ('A' for Active; 'I' for Inactive)
REMARK    1  A    between atoms: O_2  and  C_3 
REMARK    2  A    between atoms: C_4  and  C_5 
REMARK    3  A    between atoms: C_6  and  C_7 
REMARK       I    between atoms: C_7  and  N_8 
REMARK    4  A    between atoms: N_8  and  C_9 
REMARK    5  A    between atoms: C_9  and  C_10 
REMARK    6  A    between atoms: C_10  and  N_11 
REMARK    7  A    between atoms: C_10  and  C_18 
ROOT
HETATM    1  C   UNL     1       3.214   3.910  -5.160  1.00  0.00     0.241 C 
HETATM    2  N   UNL     1       3.347   2.927  -4.208  1.00  0.00    -0.355 N 
HETATM    3  O   UNL     1       3.357   5.097  -4.910  1.00  0.00    -0.269 OA
HETATM    4  H   UNL     1       3.115   1.975  -4.475  1.00  0.00     0.162 HD
ENDROOT
BRANCH   2   5
HETATM    5  C   UNL     1       3.358   3.270  -2.791  1.00  0.00     0.163 C 
BRANCH   5   6
HETATM    6  C   UNL     1       4.654   2.934  -2.010  1.00  0.00     0.262 C 
BRANCH   6   7
HETATM    7  N   UNL     1       5.861   3.807  -2.372  1.00  0.00    -0.059 N 
HETATM    8  H   UNL     1       6.604   3.374  -1.804  1.00  0.00     0.280 HD
HETATM    9  C   UNL     1       6.362   3.715  -3.792  1.00  0.00     0.236 C 
HETATM   10  C   UNL     1       7.758   4.325  -3.852  1.00  0.00     0.028 C 
HETATM   11  C   UNL     1       7.756   5.769  -3.356  1.00  0.00     0.003 C 
HETATM   12  C   UNL     1       7.114   5.891  -1.977  1.00  0.00     0.028 C 
HETATM   13  C   UNL     1       5.736   5.241  -1.928  1.00  0.00     0.236 C 
ENDBRANCH   6   7
BRANCH   6  14
HETATM   14  C   UNL     1       5.000   1.473  -2.035  1.00  0.00     0.085 A 
HETATM   15  O   UNL     1       6.328   1.175  -1.879  1.00  0.00    -0.325 OA
HETATM   16  C   UNL     1       6.440  -0.178  -1.909  1.00  0.00     0.142 A 
HETATM   17  C   UNL     1       5.205  -0.758  -2.069  1.00  0.00     0.027 A 
HETATM   18  C   UNL     1       4.272   0.304  -2.139  1.00  0.00     0.037 A 
ENDBRANCH   6  14
ENDBRANCH   5   6
ENDBRANCH   2   5
BRANCH   1  19
HETATM   19  C   UNL     1       2.937   3.367  -6.509  1.00  0.00     0.075 C 
HETATM   20  C   UNL     1       2.074   3.920  -7.374  1.00  0.00     0.020 C 
BRANCH  20  21
HETATM   21  C   UNL     1       1.230   5.091  -7.110  1.00  0.00    -0.001 A 
HETATM   22  C   UNL     1       1.449   6.309  -7.770  1.00  0.00     0.078 A 
HETATM   23  C   UNL     1       0.664   7.428  -7.479  1.00  0.00     0.039 A 
HETATM   24  C   UNL     1      -0.381   7.325  -6.560  1.00  0.00     0.022 A 
HETATM   25  C   UNL     1      -0.625   6.107  -5.928  1.00  0.00     0.012 A 
HETATM   26  C   UNL     1       0.170   4.992  -6.197  1.00  0.00     0.033 A 
HETATM   27 BR   UNL     1      -2.040   5.963  -4.682  1.00  0.00    -0.051 Br
BRANCH  22  28
HETATM   28  O   UNL     1       2.499   6.433  -8.645  1.00  0.00    -0.355 OA
HETATM   29  C   UNL     1       2.028   6.448  -9.993  1.00  0.00     0.210 C 
ENDBRANCH  22  28
ENDBRANCH  20  21
ENDBRANCH   1  19
TORSDOF 7
