REMARK  8 active torsions:
REMARK  status: ('A' for Active; 'I' for Inactive)
REMARK    1  A    between atoms: C_2  and  S_3 
REMARK    2  A    between atoms: C_2  and  C_24 
REMARK    3  A    between atoms: S_3  and  C_4 
REMARK    4  A    between atoms: N_5  and  C_6 
REMARK    5  A    between atoms: C_13  and  C_14 
REMARK    6  A    between atoms: C_14  and  N_15 
REMARK       I    between atoms: C_24  and  N_25 
REMARK    7  A    between atoms: N_25  and  C_26 
REMARK    8  A    between atoms: C_29  and  C_30 
REMARK       I    between atoms: C_30  and  N_31 
ROOT
HETATM    1  C   UNL     1       2.751   3.173   0.467  1.00  0.00     0.197 A 
HETATM    2  N   UNL     1       1.873   3.588  -0.523  1.00  0.00    -0.274 N 
HETATM    3  C   UNL     1       1.886   4.977  -0.407  1.00  0.00     0.161 A 
HETATM    4  N   UNL     1       2.645   5.331   0.613  1.00  0.00    -0.132 NA
HETATM    5  N   UNL     1       3.192   4.207   1.146  1.00  0.00    -0.122 NA
ENDROOT
BRANCH   1   6
HETATM    6  S   UNL     1       3.344   1.556   0.655  1.00  0.00    -0.076 SA
BRANCH   6   7
HETATM    7  C   UNL     1       4.846   1.825   1.671  1.00  0.00     0.143 C 
HETATM    8  C   UNL     1       5.976   2.403   0.821  1.00  0.00     0.031 C 
BRANCH   7   9
HETATM    9  C   UNL     1       5.313   0.507   2.313  1.00  0.00     0.236 C 
HETATM   10  N   UNL     1       6.165   0.731   3.391  1.00  0.00    -0.326 N 
HETATM   11  H   UNL     1       6.345   1.695   3.645  1.00  0.00     0.169 HD
HETATM   12  O   UNL     1       4.981  -0.594   1.887  1.00  0.00    -0.272 OA
BRANCH  10  13
HETATM   13  C   UNL     1       6.822  -0.230   4.186  1.00  0.00     0.034 A 
HETATM   14  C   UNL     1       6.720  -1.610   3.997  1.00  0.00     0.030 A 
HETATM   15  C   UNL     1       7.414  -2.499   4.830  1.00  0.00     0.019 A 
HETATM   16  C   UNL     1       8.214  -2.015   5.869  1.00  0.00     0.032 A 
HETATM   17  C   UNL     1       8.328  -0.633   6.053  1.00  0.00     0.019 A 
HETATM   18  C   UNL     1       7.635   0.251   5.220  1.00  0.00     0.030 A 
BRANCH  16  19
HETATM   19  C   UNL     1       8.977  -2.909   6.780  1.00  0.00     0.249 C 
HETATM   20  N   UNL     1       8.572  -4.210   6.885  1.00  0.00    -0.366 N 
HETATM   21  H   UNL     1       7.688  -4.548   6.535  1.00  0.00     0.159 HD
HETATM   22  H   UNL     1       9.049  -4.774   7.577  1.00  0.00     0.159 HD
HETATM   23  O   UNL     1       9.918  -2.491   7.443  1.00  0.00    -0.268 OA
ENDBRANCH  16  19
ENDBRANCH  10  13
ENDBRANCH   7   9
ENDBRANCH   6   7
ENDBRANCH   1   6
BRANCH   2  24
HETATM   24  C   UNL     1       1.082   2.809  -1.411  1.00  0.00     0.043 A 
HETATM   25  C   UNL     1       0.438   1.653  -0.943  1.00  0.00     0.033 A 
HETATM   26  C   UNL     1      -0.369   0.903  -1.803  1.00  0.00     0.044 A 
HETATM   27  C   UNL     1      -0.527   1.304  -3.123  1.00  0.00     0.116 A 
HETATM   28  F   UNL     1      -1.302   0.587  -3.944  1.00  0.00    -0.206 F 
HETATM   29  C   UNL     1       0.113   2.440  -3.603  1.00  0.00     0.044 A 
HETATM   30  C   UNL     1       0.922   3.197  -2.750  1.00  0.00     0.033 A 
ENDBRANCH   2  24
BRANCH   3  31
HETATM   31  C   UNL     1       1.047   5.944  -1.167  1.00  0.00     0.315 C 
BRANCH  31  32
HETATM   32  N   UNL     1       1.193   7.364  -0.623  1.00  0.00    -0.064 N 
HETATM   33  H   UNL     1       1.252   7.240   0.401  1.00  0.00     0.280 HD
HETATM   34  C   UNL     1       2.495   8.016  -1.038  1.00  0.00     0.235 C 
HETATM   35  C   UNL     1       2.649   9.337  -0.298  1.00  0.00     0.028 C 
HETATM   36  C   UNL     1       1.461  10.258  -0.550  1.00  0.00     0.003 C 
HETATM   37  C   UNL     1       0.144   9.566  -0.214  1.00  0.00     0.028 C 
HETATM   38  C   UNL     1       0.002   8.230  -0.930  1.00  0.00     0.235 C 
ENDBRANCH  31  32
ENDBRANCH   3  31
TORSDOF 8
