REMARK  7 active torsions:
REMARK  status: ('A' for Active; 'I' for Inactive)
REMARK    1  A    between atoms: C_4  and  C_5 
REMARK    2  A    between atoms: C_5  and  N_6 
REMARK       I    between atoms: N_6  and  C_7 
REMARK    3  A    between atoms: N_6  and  C_22 
REMARK    4  A    between atoms: C_7  and  C_8 
REMARK    5  A    between atoms: C_13  and  C_14 
REMARK    6  A    between atoms: C_15  and  O_16 
REMARK    7  A    between atoms: C_22  and  C_23 
ROOT
HETATM    1  N   UNL     1       5.314  -4.106  -1.695  1.00  0.00    -0.343 N 
HETATM    2  C   UNL     1       4.441  -3.260  -1.015  1.00  0.00     0.235 C 
HETATM    3  O   UNL     1       4.692  -2.058  -0.887  1.00  0.00    -0.272 OA
ENDROOT
BRANCH   2   4
HETATM    4  C   UNL     1       3.138  -3.807  -0.460  1.00  0.00     0.195 C 
HETATM    5  C   UNL     1       1.990  -3.481  -1.368  1.00  0.00     0.247 C 
HETATM    6  O   UNL     1       1.971  -3.548  -2.585  1.00  0.00    -0.271 OA
HETATM    7  N   UNL     1       0.906  -3.180  -0.568  1.00  0.00    -0.290 N 
HETATM    8  N   UNL     1       1.214  -3.118   0.794  1.00  0.00    -0.228 NA
HETATM    9  H   UNL     1       0.037  -2.836  -0.969  1.00  0.00     0.183 HD
HETATM   10  C   UNL     1       2.709  -3.094   0.842  1.00  0.00     0.134 C 
HETATM   11  H   UNL     1       0.901  -4.006   1.210  1.00  0.00     0.147 HD
BRANCH  10  12
HETATM   12  C   UNL     1       3.231  -3.682   2.149  1.00  0.00    -0.004 A 
HETATM   13  C   UNL     1       2.622  -3.394   3.385  1.00  0.00     0.073 A 
HETATM   14  C   UNL     1       3.105  -3.923   4.582  1.00  0.00     0.037 A 
HETATM   15  C   UNL     1       4.226  -4.746   4.578  1.00  0.00     0.003 A 
HETATM   16  C   UNL     1       4.868  -5.025   3.377  1.00  0.00     0.001 A 
HETATM   17  C   UNL     1       4.380  -4.493   2.179  1.00  0.00     0.012 A 
BRANCH  13  18
HETATM   18  O   UNL     1       1.522  -2.588   3.498  1.00  0.00    -0.360 OA
HETATM   19  H   UNL     1       1.248  -2.300   2.605  1.00  0.00     0.217 HD
ENDBRANCH  13  18
ENDBRANCH  10  12
ENDBRANCH   2   4
BRANCH   1  20
HETATM   20  C   UNL     1       6.366  -3.470  -2.508  1.00  0.00     0.164 C 
BRANCH  20  21
HETATM   21  C   UNL     1       6.207  -3.730  -3.990  1.00  0.00    -0.040 A 
HETATM   22  C   UNL     1       5.062  -3.295  -4.672  1.00  0.00     0.009 A 
HETATM   23  C   UNL     1       4.910  -3.554  -6.035  1.00  0.00     0.001 A 
HETATM   24  C   UNL     1       5.901  -4.244  -6.730  1.00  0.00     0.000 A 
HETATM   25  C   UNL     1       7.048  -4.673  -6.065  1.00  0.00     0.001 A 
HETATM   26  C   UNL     1       7.203  -4.415  -4.702  1.00  0.00     0.009 A 
ENDBRANCH  20  21
ENDBRANCH   1  20
BRANCH   1  27
HETATM   27  C   UNL     1       5.152  -5.563  -1.829  1.00  0.00     0.164 C 
BRANCH  27  28
HETATM   28  C   UNL     1       6.430  -6.358  -1.670  1.00  0.00    -0.040 A 
HETATM   29  C   UNL     1       7.271  -6.171  -0.561  1.00  0.00     0.009 A 
HETATM   30  C   UNL     1       8.434  -6.928  -0.416  1.00  0.00     0.001 A 
HETATM   31  C   UNL     1       8.764  -7.890  -1.369  1.00  0.00     0.000 A 
HETATM   32  C   UNL     1       7.930  -8.097  -2.466  1.00  0.00     0.001 A 
HETATM   33  C   UNL     1       6.767  -7.339  -2.614  1.00  0.00     0.009 A 
ENDBRANCH  27  28
ENDBRANCH   1  27
TORSDOF 7
