REMARK  7 active torsions:
REMARK  status: ('A' for Active; 'I' for Inactive)
REMARK    1  A    between atoms: O_2  and  C_3 
REMARK    2  A    between atoms: C_4  and  C_5 
REMARK    3  A    between atoms: C_5  and  N_6 
REMARK    4  A    between atoms: N_6  and  C_7 
REMARK    5  A    between atoms: C_9  and  N_10 
REMARK    6  A    between atoms: N_10  and  C_11 
REMARK    7  A    between atoms: C_11  and  C_12 
ROOT
HETATM    1  C   UNL     1      -0.541   4.242  -0.886  1.00  0.00     0.119 A 
HETATM    2  N   UNL     1      -0.831   5.557  -0.925  1.00  0.00    -0.207 NA
HETATM    3  C   UNL     1      -1.892   5.946  -1.643  1.00  0.00     0.181 A 
HETATM    4  N   UNL     1      -2.684   5.099  -2.287  1.00  0.00    -0.330 N 
HETATM    5  H   UNL     1      -3.510   5.483  -2.726  1.00  0.00     0.168 HD
HETATM    6  C   UNL     1      -2.421   3.789  -2.319  1.00  0.00     0.048 A 
HETATM    7  C   UNL     1      -1.294   3.300  -1.626  1.00  0.00     0.031 A 
HETATM    8  C   UNL     1      -3.263   2.923  -3.031  1.00  0.00     0.030 A 
HETATM    9  C   UNL     1      -2.985   1.559  -3.079  1.00  0.00     0.002 A 
HETATM   10  C   UNL     1      -1.864   1.056  -2.426  1.00  0.00     0.001 A 
HETATM   11  C   UNL     1      -1.024   1.913  -1.709  1.00  0.00     0.017 A 
ENDROOT
BRANCH   1  12
HETATM   12  N   UNL     1       0.576   3.816  -0.153  1.00  0.00    -0.272 NA
HETATM   13  H   UNL     1       0.399   2.924   0.301  1.00  0.00     0.129 HD
BRANCH  12  14
HETATM   14  C   UNL     1       1.120   4.746   0.848  1.00  0.00     0.135 C 
BRANCH  14  15
HETATM   15  C   UNL     1       2.473   5.317   0.492  1.00  0.00    -0.012 A 
HETATM   16  C   UNL     1       3.103   6.168   1.421  1.00  0.00     0.075 A 
HETATM   17  C   UNL     1       4.385   6.669   1.180  1.00  0.00     0.037 A 
HETATM   18  C   UNL     1       5.035   6.365  -0.015  1.00  0.00     0.003 A 
HETATM   19  C   UNL     1       4.410   5.556  -0.961  1.00  0.00     0.001 A 
HETATM   20  C   UNL     1       3.140   5.031  -0.708  1.00  0.00     0.011 A 
BRANCH  16  21
HETATM   21  O   UNL     1       2.430   6.417   2.592  1.00  0.00    -0.355 OA
HETATM   22  C   UNL     1       2.424   7.795   2.961  1.00  0.00     0.210 C 
ENDBRANCH  16  21
ENDBRANCH  14  15
ENDBRANCH  12  14
ENDBRANCH   1  12
BRANCH   3  23
HETATM   23  N   UNL     1      -2.207   7.296  -1.632  1.00  0.00    -0.259 NA
HETATM   24  H   UNL     1      -1.460   7.728  -1.079  1.00  0.00     0.130 HD
BRANCH  23  25
HETATM   25  C   UNL     1      -2.320   7.947  -2.928  1.00  0.00     0.121 C 
BRANCH  25  26
HETATM   26  C   UNL     1      -3.762   7.892  -3.333  1.00  0.00    -0.022 C 
HETATM   27  C   UNL     1      -4.232   7.331  -4.456  1.00  0.00     0.008 C 
ENDBRANCH  25  26
ENDBRANCH  23  25
ENDBRANCH   3  23
TORSDOF 7
