REMARK  6 active torsions:
REMARK  status: ('A' for Active; 'I' for Inactive)
REMARK    1  A    between atoms: C_2  and  C_3 
REMARK    2  A    between atoms: C_2  and  C_18 
REMARK       I    between atoms: C_3  and  N_4 
REMARK    3  A    between atoms: N_4  and  C_5 
REMARK    4  A    between atoms: C_9  and  C_10 
REMARK    5  A    between atoms: C_18  and  C_19 
REMARK    6  A    between atoms: C_22  and  O_23 
ROOT
HETATM    1  C   UNL     1       3.097   1.064   1.135  1.00  0.00     0.227 C 
HETATM    2  N   UNL     1       4.449   1.059   1.427  1.00  0.00    -0.312 N 
HETATM    3  O   UNL     1       2.274   1.769   1.724  1.00  0.00    -0.273 OA
HETATM    4  H   UNL     1       5.077   0.427   0.949  1.00  0.00     0.170 HD
ENDROOT
BRANCH   2   5
HETATM    5  C   UNL     1       4.988   1.885   2.393  1.00  0.00     0.126 A 
HETATM    6  N   UNL     1       4.281   2.820   3.099  1.00  0.00    -0.262 N 
HETATM    7  H   UNL     1       3.284   3.007   3.026  1.00  0.00     0.191 HD
HETATM    8  N   UNL     1       5.041   3.555   3.930  1.00  0.00    -0.172 NA
HETATM    9  C   UNL     1       6.276   3.041   3.801  1.00  0.00     0.092 A 
HETATM   10  C   UNL     1       6.281   1.986   2.843  1.00  0.00     0.084 A 
BRANCH   9  11
HETATM   11  C   UNL     1       7.407   3.570   4.558  1.00  0.00     0.012 A 
HETATM   12  C   UNL     1       8.538   2.801   4.819  1.00  0.00     0.130 A 
HETATM   13  N   UNL     1       9.629   3.240   5.496  1.00  0.00    -0.272 NA
HETATM   14  C   UNL     1       9.588   4.513   5.944  1.00  0.00     0.116 A 
HETATM   15  C   UNL     1       8.512   5.363   5.748  1.00  0.00     0.020 A 
HETATM   16  C   UNL     1       7.407   4.880   5.047  1.00  0.00     0.017 A 
ENDBRANCH   9  11
ENDBRANCH   2   5
BRANCH   1  17
HETATM   17  C   UNL     1       2.681   0.233  -0.079  1.00  0.00     0.078 C 
HETATM   18  C   UNL     1       3.001   1.030  -1.345  1.00  0.00     0.020 C 
BRANCH  17  19
HETATM   19  C   UNL     1       3.308  -1.168  -0.163  1.00  0.00     0.052 C 
BRANCH  19  20
HETATM   20  C   UNL     1       3.088  -2.049   1.042  1.00  0.00    -0.057 A 
HETATM   21  C   UNL     1       1.797  -2.360   1.484  1.00  0.00     0.010 A 
HETATM   22  C   UNL     1       1.610  -3.213   2.575  1.00  0.00     0.037 A 
HETATM   23  C   UNL     1       2.701  -3.777   3.237  1.00  0.00     0.068 A 
HETATM   24  C   UNL     1       3.989  -3.472   2.803  1.00  0.00     0.037 A 
HETATM   25  C   UNL     1       4.181  -2.617   1.711  1.00  0.00     0.010 A 
BRANCH  23  26
HETATM   26  O   UNL     1       2.376  -4.604   4.276  1.00  0.00    -0.356 OA
HETATM   27  C   UNL     1       3.450  -5.261   4.936  1.00  0.00     0.210 C 
ENDBRANCH  23  26
ENDBRANCH  19  20
ENDBRANCH  17  19
ENDBRANCH   1  17
TORSDOF 6
