REMARK  4 active torsions:
REMARK  status: ('A' for Active; 'I' for Inactive)
REMARK    1  A    between atoms: C_3  and  N_4 
REMARK       I    between atoms: N_4  and  C_5 
REMARK    2  A    between atoms: C_5  and  C_6 
REMARK    3  A    between atoms: C_7  and  C_8 
REMARK    4  A    between atoms: C_16  and  C_17 
ROOT
HETATM    1  C   UNL     1       6.280  -4.517   0.283  1.00  0.00     0.003 A 
HETATM    2  C   UNL     1       5.215  -3.643   0.506  1.00  0.00     0.029 A 
HETATM    3  C   UNL     1       5.120  -2.945   1.709  1.00  0.00     0.035 A 
HETATM    4  C   UNL     1       6.106  -3.143   2.690  1.00  0.00     0.042 A 
HETATM    5  C   UNL     1       7.183  -4.022   2.483  1.00  0.00    -0.021 A 
HETATM    6  C   UNL     1       7.258  -4.704   1.262  1.00  0.00     0.012 A 
ENDROOT
BRANCH   3   7
HETATM    7  N   UNL     1       4.098  -2.018   2.001  1.00  0.00    -0.327 N 
HETATM    8  C   UNL     1       3.022  -1.675   1.209  1.00  0.00     0.227 C 
HETATM    9  O   UNL     1       2.707  -2.165   0.134  1.00  0.00    -0.273 OA
HETATM   10  H   UNL     1       4.178  -1.538   2.887  1.00  0.00     0.169 HD
BRANCH   8  11
HETATM   11  C   UNL     1       2.206  -0.560   1.779  1.00  0.00     0.089 A 
HETATM   12  C   UNL     1       0.736  -0.428   1.408  1.00  0.00     0.057 A 
HETATM   13  C   UNL     1       1.760   0.556   0.884  1.00  0.00     0.027 A 
BRANCH  12  14
HETATM   14  C   UNL     1      -0.218   0.061   2.481  1.00  0.00     0.057 A 
HETATM   15  O   UNL     1       0.113   0.946   3.464  1.00  0.00    -0.327 OA
HETATM   16  C   UNL     1      -1.002   1.143   4.213  1.00  0.00     0.142 A 
HETATM   17  C   UNL     1      -2.046   0.392   3.728  1.00  0.00     0.027 A 
HETATM   18  C   UNL     1      -1.539  -0.311   2.607  1.00  0.00     0.035 A 
ENDBRANCH  12  14
ENDBRANCH   8  11
ENDBRANCH   3   7
BRANCH   5  19
HETATM   19  C   UNL     1       8.194  -4.202   3.519  1.00  0.00     0.010 A 
HETATM   20  C   UNL     1       8.466  -3.450   4.690  1.00  0.00     0.152 A 
HETATM   21  N   UNL     1       9.483  -3.942   5.403  1.00  0.00    -0.187 NA
HETATM   22  N   UNL     1       9.872  -5.011   4.694  1.00  0.00    -0.289 N 
HETATM   23  H   UNL     1      10.650  -5.563   5.042  1.00  0.00     0.188 HD
HETATM   24  C   UNL     1       9.134  -5.211   3.563  1.00  0.00     0.123 A 
ENDBRANCH   5  19
TORSDOF 4
