REMARK  5 active torsions:
REMARK  status: ('A' for Active; 'I' for Inactive)
REMARK    1  A    between atoms: C_2  and  C_3 
REMARK    2  A    between atoms: N_12  and  N_13 
REMARK       I    between atoms: N_13  and  C_14 
REMARK    3  A    between atoms: C_14  and  C_15 
REMARK    4  A    between atoms: C_15  and  N_16 
REMARK       I    between atoms: N_16  and  C_17 
REMARK    5  A    between atoms: C_17  and  C_18 
ROOT
HETATM    1  N   UNL     1       5.341  -1.728   1.447  1.00  0.00    -0.255 N 
HETATM    2  C   UNL     1       4.842  -2.614   2.382  1.00  0.00     0.254 C 
HETATM    3  O   UNL     1       3.664  -2.663   2.730  1.00  0.00    -0.270 OA
HETATM    4  H   UNL     1       6.344  -1.521   1.459  1.00  0.00     0.191 HD
ENDROOT
BRANCH   1   5
HETATM    5  N   UNL     1       4.504  -0.723   0.998  1.00  0.00    -0.167 N 
HETATM    6  C   UNL     1       4.357   0.481   1.629  1.00  0.00     0.345 A 
HETATM    7  N   UNL     1       3.378   1.189   0.960  1.00  0.00    -0.319 N 
HETATM    8  O   UNL     1       4.952   0.899   2.610  1.00  0.00    -0.245 OA
HETATM    9  C   UNL     1       2.728   0.393  -0.070  1.00  0.00     0.141 A 
HETATM   10  H   UNL     1       3.001   2.037   1.361  1.00  0.00     0.166 HD
HETATM   11  C   UNL     1       2.964   1.010  -1.455  1.00  0.00     0.055 C 
HETATM   12  C   UNL     1       3.576  -0.903   0.002  1.00  0.00     0.279 A 
HETATM   13  O   UNL     1       3.442  -1.889  -0.714  1.00  0.00    -0.268 OA
BRANCH   9  14
HETATM   14  C   UNL     1       1.251   0.225   0.273  1.00  0.00    -0.021 A 
HETATM   15  C   UNL     1       0.357   1.301   0.100  1.00  0.00     0.010 A 
HETATM   16  C   UNL     1      -0.996   1.181   0.424  1.00  0.00     0.001 A 
HETATM   17  C   UNL     1      -1.485  -0.014   0.939  1.00  0.00     0.000 A 
HETATM   18  C   UNL     1      -0.620  -1.085   1.137  1.00  0.00     0.001 A 
HETATM   19  C   UNL     1       0.736  -0.966   0.814  1.00  0.00     0.010 A 
ENDBRANCH   9  14
ENDBRANCH   1   5
BRANCH   2  20
HETATM   20  C   UNL     1       5.901  -3.568   2.937  1.00  0.00     0.227 C 
BRANCH  20  21
HETATM   21  N   UNL     1       6.822  -2.918   3.857  1.00  0.00    -0.348 N 
HETATM   22  C   UNL     1       7.856  -2.134   3.394  1.00  0.00     0.252 C 
HETATM   23  O   UNL     1       7.958  -1.833   2.207  1.00  0.00    -0.268 OA
HETATM   24  H   UNL     1       6.824  -3.248   4.812  1.00  0.00     0.163 HD
BRANCH  22  25
HETATM   25  C   UNL     1       8.870  -1.678   4.385  1.00  0.00     0.033 A 
HETATM   26  C   UNL     1      10.140  -1.328   3.908  1.00  0.00     0.036 A 
HETATM   27  C   UNL     1      11.127  -0.913   4.801  1.00  0.00     0.012 A 
HETATM   28 BR   UNL     1      12.843  -0.451   4.156  1.00  0.00    -0.051 Br
HETATM   29  C   UNL     1      10.860  -0.837   6.167  1.00  0.00     0.019 A 
HETATM   30  C   UNL     1       9.591  -1.167   6.644  1.00  0.00     0.002 A 
HETATM   31  C   UNL     1       8.594  -1.582   5.756  1.00  0.00     0.017 A 
ENDBRANCH  22  25
ENDBRANCH  20  21
ENDBRANCH   2  20
TORSDOF 5
