REMARK  4 active torsions:
REMARK  status: ('A' for Active; 'I' for Inactive)
REMARK    1  A    between atoms: C_2  and  N_3 
REMARK    2  A    between atoms: C_10  and  C_11 
REMARK    3  A    between atoms: C_11  and  C_12 
REMARK       I    between atoms: C_12  and  N_13 
REMARK    4  A    between atoms: N_13  and  C_14 
ROOT
HETATM    1  C   UNL     1       3.442   3.572   2.638  1.00  0.00     0.035 A 
HETATM    2  C   UNL     1       3.663   4.757   3.341  1.00  0.00     0.049 A 
HETATM    3  C   UNL     1       3.161   5.992   2.877  1.00  0.00     0.061 A 
HETATM    4  C   UNL     1       2.425   6.039   1.686  1.00  0.00     0.050 A 
HETATM    5  N   UNL     1       1.770   7.166   1.160  1.00  0.00    -0.324 N 
HETATM    6  C   UNL     1       1.204   8.212   1.839  1.00  0.00     0.245 C 
HETATM    7  O   UNL     1       0.493   8.996   1.205  1.00  0.00    -0.271 OA
HETATM    8  C   UNL     1       1.309   8.236   3.363  1.00  0.00     0.180 C 
HETATM    9  N   UNL     1       2.703   8.240   3.776  1.00  0.00    -0.334 N 
HETATM   10  C   UNL     1       3.577   7.189   3.653  1.00  0.00     0.256 C 
HETATM   11  O   UNL     1       4.691   7.202   4.171  1.00  0.00    -0.267 OA
HETATM   12  C   UNL     1       0.725   9.515   3.977  1.00  0.00     0.037 C 
HETATM   13  C   UNL     1       1.642   9.796   5.160  1.00  0.00     0.022 C 
HETATM   14  C   UNL     1       3.002   9.373   4.634  1.00  0.00     0.127 C 
HETATM   15  C   UNL     1       2.299   4.864   0.931  1.00  0.00     0.033 A 
HETATM   16  C   UNL     1       2.789   3.643   1.407  1.00  0.00     0.032 A 
HETATM   17  H   UNL     1       1.462   7.136   0.194  1.00  0.00     0.169 HD
ENDROOT
BRANCH   1  18
HETATM   18  N   UNL     1       3.777   2.289   3.120  1.00  0.00    -0.327 N 
HETATM   19  C   UNL     1       4.374   1.979   4.331  1.00  0.00     0.226 C 
HETATM   20  O   UNL     1       4.921   2.782   5.084  1.00  0.00    -0.273 OA
HETATM   21  H   UNL     1       3.520   1.502   2.534  1.00  0.00     0.169 HD
BRANCH  19  22
HETATM   22  C   UNL     1       4.165   0.541   4.779  1.00  0.00     0.144 C 
BRANCH  22  23
HETATM   23  C   UNL     1       4.574  -0.502   3.790  1.00  0.00    -0.021 A 
HETATM   24  C   UNL     1       3.727  -1.217   2.886  1.00  0.00    -0.001 A 
HETATM   25  C   UNL     1       4.517  -2.160   2.219  1.00  0.00     0.045 A 
HETATM   26  C   UNL     1       2.347  -1.156   2.590  1.00  0.00     0.014 A 
HETATM   27  N   UNL     1       5.799  -2.042   2.723  1.00  0.00    -0.351 N 
HETATM   28  C   UNL     1       3.973  -3.029   1.257  1.00  0.00     0.030 A 
HETATM   29  C   UNL     1       5.846  -1.011   3.630  1.00  0.00     0.100 A 
HETATM   30  C   UNL     1       2.607  -2.940   0.977  1.00  0.00     0.002 A 
HETATM   31  C   UNL     1       1.802  -2.018   1.635  1.00  0.00     0.001 A 
BRANCH  27  32
HETATM   32  C   UNL     1       6.933  -2.912   2.404  1.00  0.00     0.081 C 
HETATM   33  C   UNL     1       7.486  -3.604   3.653  1.00  0.00     0.032 C 
HETATM   34  C   UNL     1       8.028  -2.157   1.652  1.00  0.00     0.032 C 
ENDBRANCH  27  32
ENDBRANCH  22  23
ENDBRANCH  19  22
ENDBRANCH   1  18
TORSDOF 4
