REMARK  6 active torsions:
REMARK  status: ('A' for Active; 'I' for Inactive)
REMARK    1  A    between atoms: C_2  and  O_3 
REMARK    2  A    between atoms: O_3  and  C_4 
REMARK    3  A    between atoms: C_5  and  O_6 
REMARK    4  A    between atoms: O_6  and  C_7 
REMARK    5  A    between atoms: C_7  and  C_8 
REMARK    6  A    between atoms: C_18  and  C_19 
ROOT
HETATM    1  C   UNL     1      10.252   0.250   3.399  1.00  0.00     0.103 A 
HETATM    2  C   UNL     1      10.277  -0.937   4.132  1.00  0.00     0.112 A 
HETATM    3  C   UNL     1       9.351  -1.950   3.898  1.00  0.00     0.041 A 
HETATM    4  C   UNL     1       8.460  -1.825   2.832  1.00  0.00     0.014 A 
HETATM    5  C   UNL     1       8.490  -0.692   1.991  1.00  0.00    -0.013 A 
HETATM    6  C   UNL     1       9.368   0.361   2.323  1.00  0.00     0.050 A 
ENDROOT
BRANCH   5   7
HETATM    7  C   UNL     1       7.634  -0.686   0.724  1.00  0.00     0.219 C 
HETATM    8  N   UNL     1       7.715   0.533  -0.047  1.00  0.00    -0.332 N 
HETATM    9  C   UNL     1       8.759   0.806  -0.897  1.00  0.00     0.256 C 
HETATM   10  H   UNL     1       7.191   1.335   0.267  1.00  0.00     0.165 HD
HETATM   11  O   UNL     1       8.992   1.942  -1.292  1.00  0.00    -0.267 OA
HETATM   12  C   UNL     1       9.572  -0.341  -1.264  1.00  0.00     0.073 A 
HETATM   13  C   UNL     1       9.145  -1.593  -0.887  1.00  0.00     0.088 A 
HETATM   14  C   UNL     1      10.819  -0.396  -1.960  1.00  0.00    -0.023 A 
HETATM   15  S   UNL     1      10.183  -2.830  -1.409  1.00  0.00    -0.074 SA
HETATM   16  N   UNL     1       8.025  -1.787  -0.150  1.00  0.00    -0.358 N 
HETATM   17  C   UNL     1      11.260  -1.701  -2.091  1.00  0.00     0.018 A 
HETATM   18  C   UNL     1      12.550  -2.113  -2.708  1.00  0.00     0.281 C 
HETATM   19  N   UNL     1      13.166  -0.978  -3.521  1.00  0.00    -0.070 N 
HETATM   20  C   UNL     1      13.068   0.357  -2.786  1.00  0.00     0.239 C 
HETATM   21  H   UNL     1      14.167  -1.198  -3.595  1.00  0.00     0.279 HD
HETATM   22  C   UNL     1      12.640  -0.925  -4.926  1.00  0.00     0.270 C 
HETATM   23  C   UNL     1      11.610   0.759  -2.497  1.00  0.00     0.068 C 
HETATM   24  H   UNL     1       7.895  -2.707   0.261  1.00  0.00     0.162 HD
ENDBRANCH   5   7
BRANCH   1  25
HETATM   25  O   UNL     1      11.164   1.216   3.734  1.00  0.00    -0.349 OA
BRANCH  25  26
HETATM   26  C   UNL     1      10.681   2.558   3.622  1.00  0.00     0.171 C 
HETATM   27  C   UNL     1      11.545   3.443   4.502  1.00  0.00     0.034 C 
ENDBRANCH  25  26
ENDBRANCH   1  25
BRANCH   2  28
HETATM   28  O   UNL     1      11.241  -1.088   5.130  1.00  0.00    -0.272 OA
BRANCH  28  29
HETATM   29  C   UNL     1      12.288  -1.874   4.692  1.00  0.00     0.298 C 
HETATM   30  O   UNL     1      12.333  -2.598   3.707  1.00  0.00    -0.259 OA
BRANCH  29  31
HETATM   31  C   UNL     1      13.416  -1.753   5.643  1.00  0.00     0.040 A 
HETATM   32  C   UNL     1      14.214  -2.878   5.882  1.00  0.00     0.019 A 
HETATM   33  C   UNL     1      15.324  -2.780   6.725  1.00  0.00     0.020 A 
HETATM   34  C   UNL     1      15.639  -1.554   7.311  1.00  0.00     0.011 A 
HETATM   35 BR   UNL     1      17.158  -1.414   8.427  1.00  0.00    -0.051 Br
HETATM   36  C   UNL     1      14.852  -0.427   7.070  1.00  0.00     0.020 A 
HETATM   37  C   UNL     1      13.736  -0.524   6.236  1.00  0.00     0.019 A 
ENDBRANCH  29  31
ENDBRANCH  28  29
ENDBRANCH   2  28
TORSDOF 6
