REMARK  6 active torsions:
REMARK  status: ('A' for Active; 'I' for Inactive)
REMARK       I    between atoms: N_2  and  C_3 
REMARK    1  A    between atoms: N_2  and  C_19 
REMARK       I    between atoms: C_3  and  N_4 
REMARK    2  A    between atoms: N_4  and  C_5 
REMARK    3  A    between atoms: C_12  and  C_13 
REMARK       I    between atoms: C_13  and  N_14 
REMARK    4  A    between atoms: C_19  and  C_20 
REMARK    5  A    between atoms: C_20  and  O_21 
REMARK    6  A    between atoms: O_21  and  C_22 
ROOT
HETATM    1  C   UNL     1       1.096  -0.038   0.127  1.00  0.00     0.154 C 
HETATM    2  N   UNL     1       2.548   0.064   0.151  1.00  0.00    -0.336 N 
HETATM    3  C   UNL     1       3.180  -0.523   1.256  1.00  0.00     0.322 C 
HETATM    4  N   UNL     1       4.554  -0.525   1.181  1.00  0.00    -0.309 N 
HETATM    5  O   UNL     1       2.533  -1.025   2.172  1.00  0.00    -0.247 OA
HETATM    6  H   UNL     1       4.926  -0.513   0.246  1.00  0.00     0.170 HD
ENDROOT
BRANCH   4   7
HETATM    7  C   UNL     1       5.460  -0.847   2.213  1.00  0.00     0.037 A 
HETATM    8  C   UNL     1       5.099  -0.868   3.567  1.00  0.00     0.046 A 
HETATM    9  C   UNL     1       6.076  -1.155   4.545  1.00  0.00     0.030 A 
HETATM   10  C   UNL     1       7.373  -1.433   4.134  1.00  0.00     0.063 A 
HETATM   11  C   UNL     1       6.113  -1.233   5.969  1.00  0.00     0.156 A 
HETATM   12  N   UNL     1       8.069  -1.688   5.282  1.00  0.00    -0.277 N 
HETATM   13  C   UNL     1       7.768  -1.420   2.794  1.00  0.00     0.034 A 
HETATM   14  H   UNL     1       9.048  -1.937   5.363  1.00  0.00     0.189 HD
HETATM   15  N   UNL     1       7.346  -1.576   6.409  1.00  0.00    -0.168 NA
HETATM   16  C   UNL     1       6.786  -1.107   1.845  1.00  0.00     0.032 A 
BRANCH  11  17
HETATM   17  C   UNL     1       5.013  -0.976   6.909  1.00  0.00     0.270 C 
HETATM   18  N   UNL     1       5.342  -1.179   8.222  1.00  0.00    -0.365 N 
HETATM   19  H   UNL     1       6.293  -1.450   8.446  1.00  0.00     0.159 HD
HETATM   20  H   UNL     1       4.664  -0.989   8.942  1.00  0.00     0.159 HD
HETATM   21  O   UNL     1       3.892  -0.596   6.588  1.00  0.00    -0.266 OA
ENDBRANCH  11  17
ENDBRANCH   4   7
BRANCH   2  22
HETATM   22  C   UNL     1       3.130   1.200  -0.587  1.00  0.00     0.153 C 
BRANCH  22  23
HETATM   23  C   UNL     1       2.958   2.548   0.130  1.00  0.00     0.195 C 
BRANCH  23  24
HETATM   24  O   UNL     1       3.841   2.594   1.259  1.00  0.00    -0.350 OA
BRANCH  24  25
HETATM   25  C   UNL     1       3.295   3.304   2.290  1.00  0.00     0.068 A 
HETATM   26  C   UNL     1       2.940   2.610   3.445  1.00  0.00     0.038 A 
HETATM   27  C   UNL     1       2.406   3.301   4.534  1.00  0.00     0.026 A 
HETATM   28  C   UNL     1       2.247   4.683   4.461  1.00  0.00     0.034 A 
HETATM   29 CL   UNL     1       1.590   5.540   5.801  1.00  0.00    -0.084 Cl
HETATM   30  C   UNL     1       2.622   5.381   3.311  1.00  0.00     0.026 A 
HETATM   31  C   UNL     1       3.154   4.690   2.221  1.00  0.00     0.038 A 
ENDBRANCH  24  25
ENDBRANCH  23  24
ENDBRANCH  22  23
ENDBRANCH   2  22
TORSDOF 6
