REMARK  10 active torsions:
REMARK  status: ('A' for Active; 'I' for Inactive)
REMARK    1  A    between atoms: C_6  and  C_7 
REMARK    2  A    between atoms: C_7  and  C_8 
REMARK       I    between atoms: C_8  and  N_9 
REMARK    3  A    between atoms: N_9  and  C_10 
REMARK    4  A    between atoms: C_10  and  C_11 
REMARK    5  A    between atoms: C_11  and  N_12 
REMARK    6  A    between atoms: C_17  and  C_18 
REMARK    7  A    between atoms: C_27  and  C_28 
REMARK    8  A    between atoms: C_28  and  O_29 
REMARK    9  A    between atoms: O_29  and  C_30 
REMARK   10  A    between atoms: C_30  and  C_31 
ROOT
HETATM    1  C   UNL     1       0.989   0.863   0.663  1.00  0.00     0.071 C 
HETATM    2  C   UNL     1       2.389   0.307   0.623  1.00  0.00     0.048 C 
HETATM    3  N   UNL     1       3.326   1.061   1.333  1.00  0.00    -0.229 NA
HETATM    4  C   UNL     1       4.338   0.407   1.794  1.00  0.00     0.170 C 
HETATM    5  N   UNL     1       4.597  -1.083   1.451  1.00  0.00    -0.318 N 
HETATM    6  C   UNL     1       4.971  -1.720   2.507  1.00  0.00     0.011 C 
HETATM    7  C   UNL     1       4.113  -1.404   0.098  1.00  0.00     0.169 C 
HETATM    8  S   UNL     1       5.358   0.910   3.094  1.00  0.00    -0.086 SA
HETATM    9  C   UNL     1       5.522  -0.842   3.620  1.00  0.00     0.135 C 
HETATM   10  C   UNL     1       2.714  -0.880   0.069  1.00  0.00     0.069 C 
ENDROOT
BRANCH   6  11
HETATM   11  C   UNL     1       4.741  -3.197   2.644  1.00  0.00     0.156 C 
BRANCH  11  12
HETATM   12  C   UNL     1       3.893  -3.500   3.868  1.00  0.00     0.223 C 
HETATM   13  N   UNL     1       2.552  -3.685   3.664  1.00  0.00    -0.359 N 
HETATM   14  H   UNL     1       2.164  -3.671   2.719  1.00  0.00     0.162 HD
HETATM   15  O   UNL     1       4.381  -3.490   4.997  1.00  0.00    -0.273 OA
BRANCH  13  16
HETATM   16  C   UNL     1       1.569  -3.687   4.759  1.00  0.00     0.150 C 
BRANCH  16  17
HETATM   17  C   UNL     1       1.649  -4.872   5.754  1.00  0.00     0.253 C 
BRANCH  17  18
HETATM   18  N   UNL     1       2.840  -4.784   6.689  1.00  0.00    -0.077 N 
HETATM   19  H   UNL     1       3.641  -4.428   6.131  1.00  0.00     0.279 HD
HETATM   20  C   UNL     1       2.666  -3.802   7.815  1.00  0.00     0.269 C 
HETATM   21  C   UNL     1       3.250  -6.133   7.214  1.00  0.00     0.269 C 
ENDBRANCH  17  18
ENDBRANCH  16  17
ENDBRANCH  13  16
ENDBRANCH  11  12
ENDBRANCH   6  11
BRANCH   7  22
HETATM   22  C   UNL     1       5.077  -0.862  -0.960  1.00  0.00     0.008 A 
HETATM   23  C   UNL     1       4.647  -0.099  -2.061  1.00  0.00     0.125 A 
HETATM   24  F   UNL     1       3.347   0.161  -2.239  1.00  0.00    -0.205 F 
HETATM   25  C   UNL     1       5.538   0.417  -2.998  1.00  0.00     0.043 A 
HETATM   26  C   UNL     1       6.898   0.164  -2.871  1.00  0.00     0.003 A 
HETATM   27  C   UNL     1       7.357  -0.621  -1.817  1.00  0.00     0.001 A 
HETATM   28  C   UNL     1       6.459  -1.140  -0.877  1.00  0.00     0.013 A 
ENDBRANCH   7  22
BRANCH  10  29
HETATM   29  C   UNL     1       1.748  -1.943  -0.232  1.00  0.00     0.294 C 
HETATM   30  O   UNL     1       1.552  -2.810   0.614  1.00  0.00    -0.259 OA
BRANCH  29  31
HETATM   31  O   UNL     1       1.450  -1.947  -1.538  1.00  0.00    -0.313 OA
BRANCH  31  32
HETATM   32  C   UNL     1       0.864  -3.158  -2.041  1.00  0.00     0.217 C 
BRANCH  32  33
HETATM   33  C   UNL     1      -0.633  -3.110  -1.950  1.00  0.00    -0.034 A 
HETATM   34  C   UNL     1      -1.360  -2.252  -2.786  1.00  0.00     0.009 A 
HETATM   35  C   UNL     1      -2.753  -2.229  -2.732  1.00  0.00     0.001 A 
HETATM   36  C   UNL     1      -3.431  -3.057  -1.839  1.00  0.00     0.000 A 
HETATM   37  C   UNL     1      -2.717  -3.906  -0.995  1.00  0.00     0.001 A 
HETATM   38  C   UNL     1      -1.323  -3.931  -1.048  1.00  0.00     0.009 A 
ENDBRANCH  32  33
ENDBRANCH  31  32
ENDBRANCH  29  31
ENDBRANCH  10  29
TORSDOF 10
