REMARK  8 active torsions:
REMARK  status: ('A' for Active; 'I' for Inactive)
REMARK    1  A    between atoms: C_7  and  C_8 
REMARK    2  A    between atoms: C_10  and  O_11 
REMARK    3  A    between atoms: C_13  and  O_14 
REMARK    4  A    between atoms: O_14  and  C_15 
REMARK    5  A    between atoms: C_15  and  C_16 
REMARK       I    between atoms: C_16  and  N_17 
REMARK    6  A    between atoms: C_21  and  C_22 
REMARK       I    between atoms: C_22  and  N_23 
REMARK    7  A    between atoms: N_23  and  C_24 
REMARK    8  A    between atoms: C_24  and  C_25 
ROOT
HETATM    1  C   UNL     1       0.949   0.132   0.454  1.00  0.00     0.069 C 
HETATM    2  C   UNL     1       2.403   0.017   0.095  1.00  0.00     0.024 C 
HETATM    3  N   UNL     1       3.021   1.203  -0.235  1.00  0.00    -0.312 N 
HETATM    4  C   UNL     1       4.358   1.368  -0.439  1.00  0.00     0.321 C 
HETATM    5  O   UNL     1       4.842   2.464  -0.696  1.00  0.00    -0.247 OA
HETATM    6  N   UNL     1       5.127   0.259  -0.322  1.00  0.00    -0.330 N 
HETATM    7  C   UNL     1       4.620  -1.096  -0.206  1.00  0.00     0.160 C 
HETATM    8  C   UNL     1       3.148  -1.105   0.106  1.00  0.00     0.059 C 
HETATM    9  H   UNL     1       2.488   2.065  -0.262  1.00  0.00     0.170 HD
HETATM   10  H   UNL     1       6.112   0.398  -0.498  1.00  0.00     0.165 HD
ENDROOT
BRANCH   7  11
HETATM   11  C   UNL     1       4.962  -1.869  -1.474  1.00  0.00    -0.028 A 
HETATM   12  C   UNL     1       4.504  -1.438  -2.733  1.00  0.00     0.049 A 
HETATM   13  C   UNL     1       4.826  -2.143  -3.897  1.00  0.00     0.102 A 
HETATM   14  C   UNL     1       5.606  -3.309  -3.802  1.00  0.00     0.102 A 
HETATM   15  C   UNL     1       6.077  -3.737  -2.559  1.00  0.00     0.040 A 
HETATM   16  C   UNL     1       5.750  -3.026  -1.402  1.00  0.00     0.012 A 
BRANCH  13  17
HETATM   17  O   UNL     1       4.408  -1.798  -5.159  1.00  0.00    -0.353 OA
HETATM   18  C   UNL     1       3.808  -0.518  -5.315  1.00  0.00     0.210 C 
ENDBRANCH  13  17
BRANCH  14  19
HETATM   19  O   UNL     1       5.902  -3.938  -4.983  1.00  0.00    -0.339 OA
BRANCH  19  20
HETATM   20  C   UNL     1       6.130  -5.343  -4.914  1.00  0.00     0.278 C 
BRANCH  20  21
HETATM   21  C   UNL     1       5.906  -5.956  -6.293  1.00  0.00     0.239 C 
HETATM   22  N   UNL     1       5.128  -5.220  -7.142  1.00  0.00    -0.368 N 
HETATM   23  H   UNL     1       4.949  -4.244  -6.923  1.00  0.00     0.159 HD
HETATM   24  H   UNL     1       5.018  -5.542  -8.093  1.00  0.00     0.159 HD
HETATM   25  O   UNL     1       6.337  -7.057  -6.620  1.00  0.00    -0.271 OA
ENDBRANCH  20  21
ENDBRANCH  19  20
ENDBRANCH  14  19
ENDBRANCH   7  11
BRANCH   8  26
HETATM   26  C   UNL     1       2.615  -2.439   0.482  1.00  0.00     0.252 C 
HETATM   27  N   UNL     1       1.505  -2.832  -0.216  1.00  0.00    -0.353 N 
HETATM   28  H   UNL     1       1.197  -2.292  -1.014  1.00  0.00     0.163 HD
HETATM   29  O   UNL     1       3.196  -3.135   1.307  1.00  0.00    -0.268 OA
BRANCH  27  30
HETATM   30  C   UNL     1       0.933  -4.145  -0.032  1.00  0.00     0.161 C 
BRANCH  30  31
HETATM   31  C   UNL     1      -0.507  -4.170  -0.471  1.00  0.00    -0.041 A 
HETATM   32  C   UNL     1      -0.902  -4.896  -1.602  1.00  0.00     0.009 A 
HETATM   33  C   UNL     1      -2.242  -4.918  -1.997  1.00  0.00     0.001 A 
HETATM   34  C   UNL     1      -3.197  -4.211  -1.268  1.00  0.00     0.000 A 
HETATM   35  C   UNL     1      -2.816  -3.481  -0.144  1.00  0.00     0.001 A 
HETATM   36  C   UNL     1      -1.478  -3.461   0.253  1.00  0.00     0.009 A 
ENDBRANCH  30  31
ENDBRANCH  27  30
ENDBRANCH   8  26
TORSDOF 8
