REMARK  8 active torsions:
REMARK  status: ('A' for Active; 'I' for Inactive)
REMARK    1  A    between atoms: N_4  and  C_5 
REMARK    2  A    between atoms: C_5  and  C_6 
REMARK    3  A    between atoms: C_6  and  C_7 
REMARK       I    between atoms: C_7  and  N_8 
REMARK    4  A    between atoms: N_8  and  N_9 
REMARK    5  A    between atoms: N_9  and  C_10 
REMARK    6  A    between atoms: C_10  and  N_11 
REMARK    7  A    between atoms: N_11  and  C_12 
REMARK    8  A    between atoms: C_13  and  O_14 
ROOT
HETATM    1  C   UNL     1       8.733   0.686  -0.442  1.00  0.00     0.237 C 
HETATM    2  N   UNL     1       8.946   2.030  -0.673  1.00  0.00    -0.268 N 
HETATM    3  O   UNL     1       7.925   0.272   0.386  1.00  0.00    -0.272 OA
HETATM    4  H   UNL     1       9.440   2.368  -1.498  1.00  0.00     0.190 HD
ENDROOT
BRANCH   2   5
HETATM    5  N   UNL     1       8.077   2.944  -0.049  1.00  0.00    -0.274 N 
HETATM    6  H   UNL     1       7.457   2.512   0.637  1.00  0.00     0.189 HD
BRANCH   5   7
HETATM    7  C   UNL     1       7.614   4.068  -0.741  1.00  0.00     0.191 C 
HETATM    8  S   UNL     1       8.272   4.545  -2.208  1.00  0.00    -0.039 SA
BRANCH   7   9
HETATM    9  N   UNL     1       6.633   4.700   0.003  1.00  0.00    -0.330 N 
HETATM   10  H   UNL     1       6.653   4.488   0.997  1.00  0.00     0.168 HD
BRANCH   9  11
HETATM   11  C   UNL     1       5.704   5.728  -0.291  1.00  0.00     0.068 A 
HETATM   12  C   UNL     1       5.052   6.316   0.819  1.00  0.00     0.095 A 
HETATM   13  C   UNL     1       4.101   7.321   0.620  1.00  0.00     0.039 A 
HETATM   14  C   UNL     1       3.786   7.739  -0.673  1.00  0.00     0.003 A 
HETATM   15  C   UNL     1       4.410   7.148  -1.768  1.00  0.00     0.002 A 
HETATM   16  C   UNL     1       5.360   6.141  -1.578  1.00  0.00     0.032 A 
BRANCH  12  17
HETATM   17  O   UNL     1       5.426   5.821   2.050  1.00  0.00    -0.354 OA
HETATM   18  C   UNL     1       4.834   6.424   3.195  1.00  0.00     0.210 C 
ENDBRANCH  12  17
ENDBRANCH   9  11
ENDBRANCH   7   9
ENDBRANCH   5   7
ENDBRANCH   2   5
BRANCH   1  19
HETATM   19  C   UNL     1       9.563  -0.208  -1.326  1.00  0.00     0.126 C 
BRANCH  19  20
HETATM   20  C   UNL     1       9.499  -1.648  -0.838  1.00  0.00     0.160 C 
BRANCH  20  21
HETATM   21  N   UNL     1      10.262  -2.538  -1.697  1.00  0.00    -0.272 N 
HETATM   22  N   UNL     1      11.602  -2.389  -1.736  1.00  0.00    -0.176 NA
HETATM   23  C   UNL     1      12.016  -3.331  -2.593  1.00  0.00     0.070 A 
HETATM   24  C   UNL     1      13.460  -3.482  -2.893  1.00  0.00     0.074 C 
HETATM   25  C   UNL     1      10.926  -4.069  -3.092  1.00  0.00     0.060 A 
HETATM   26  C   UNL     1       9.796  -3.541  -2.511  1.00  0.00     0.046 A 
HETATM   27 BR   UNL     1      11.045  -5.490  -4.307  1.00  0.00    -0.047 Br
HETATM   28  C   UNL     1       8.362  -3.896  -2.644  1.00  0.00     0.071 C 
ENDBRANCH  20  21
ENDBRANCH  19  20
ENDBRANCH   1  19
TORSDOF 8
