REMARK  9 active torsions:
REMARK  status: ('A' for Active; 'I' for Inactive)
REMARK    1  A    between atoms: C_2  and  C_3 
REMARK    2  A    between atoms: C_5  and  O_6 
REMARK    3  A    between atoms: C_8  and  O_9 
REMARK    4  A    between atoms: O_9  and  C_10 
REMARK    5  A    between atoms: C_10  and  C_11 
REMARK       I    between atoms: C_11  and  N_12 
REMARK    6  A    between atoms: N_12  and  C_13 
REMARK    7  A    between atoms: C_13  and  C_14 
REMARK    8  A    between atoms: C_17  and  N_18 
REMARK       I    between atoms: N_18  and  C_19 
REMARK    9  A    between atoms: C_19  and  C_20 
ROOT
HETATM    1  C   UNL     1       7.072   5.536   3.061  1.00  0.00     0.242 C 
HETATM    2  N   UNL     1       6.573   6.646   2.444  1.00  0.00    -0.355 N 
HETATM    3  O   UNL     1       8.074   5.651   3.770  1.00  0.00    -0.271 OA
HETATM    4  H   UNL     1       7.091   7.488   2.659  1.00  0.00     0.162 HD
ENDROOT
BRANCH   2   5
HETATM    5  C   UNL     1       5.321   6.793   1.729  1.00  0.00     0.161 C 
BRANCH   5   6
HETATM    6  C   UNL     1       4.316   7.516   2.590  1.00  0.00    -0.040 A 
HETATM    7  C   UNL     1       4.425   8.898   2.792  1.00  0.00     0.011 A 
HETATM    8  C   UNL     1       3.545   9.570   3.648  1.00  0.00     0.030 A 
HETATM    9  C   UNL     1       2.542   8.873   4.321  1.00  0.00     0.035 A 
HETATM   10  C   UNL     1       2.416   7.496   4.103  1.00  0.00     0.030 A 
HETATM   11  C   UNL     1       3.295   6.821   3.248  1.00  0.00     0.011 A 
BRANCH   9  12
HETATM   12  N   UNL     1       1.653   9.464   5.238  1.00  0.00    -0.321 N 
HETATM   13  C   UNL     1       1.602  10.781   5.658  1.00  0.00     0.279 C 
HETATM   14  O   UNL     1       2.302  11.694   5.234  1.00  0.00    -0.265 OA
HETATM   15  H   UNL     1       0.985   8.851   5.694  1.00  0.00     0.169 HD
BRANCH  13  16
HETATM   16  C   UNL     1       0.610  10.995   6.699  1.00  0.00     0.142 A 
HETATM   17  O   UNL     1      -0.154   9.939   7.133  1.00  0.00    -0.317 OA
HETATM   18  C   UNL     1      -0.972  10.413   8.108  1.00  0.00     0.143 A 
HETATM   19  C   UNL     1      -0.754  11.755   8.313  1.00  0.00     0.027 A 
HETATM   20  C   UNL     1       0.263  12.132   7.405  1.00  0.00     0.045 A 
ENDBRANCH  13  16
ENDBRANCH   9  12
ENDBRANCH   5   6
ENDBRANCH   2   5
BRANCH   1  21
HETATM   21  C   UNL     1       6.370   4.196   2.881  1.00  0.00     0.278 C 
BRANCH  21  22
HETATM   22  O   UNL     1       6.453   3.813   1.515  1.00  0.00    -0.339 OA
BRANCH  22  23
HETATM   23  C   UNL     1       6.079   2.533   1.197  1.00  0.00     0.102 A 
HETATM   24  C   UNL     1       6.518   2.052  -0.052  1.00  0.00     0.102 A 
HETATM   25  C   UNL     1       6.152   0.770  -0.481  1.00  0.00     0.054 A 
HETATM   26  C   UNL     1       5.362  -0.045   0.338  1.00  0.00     0.012 A 
HETATM   27  C   UNL     1       4.944   0.431   1.587  1.00  0.00     0.018 A 
HETATM   28  C   UNL     1       5.295   1.716   2.012  1.00  0.00     0.040 A 
BRANCH  24  29
HETATM   29  O   UNL     1       7.270   2.917  -0.810  1.00  0.00    -0.353 OA
HETATM   30  C   UNL     1       8.198   2.324  -1.710  1.00  0.00     0.210 C 
ENDBRANCH  24  29
BRANCH  26  31
HETATM   31  C   UNL     1       4.935  -1.414  -0.077  1.00  0.00     0.155 C 
HETATM   32  C   UNL     1       5.210  -1.873  -1.485  1.00  0.00     0.096 C 
HETATM   33  O   UNL     1       4.368  -2.147   0.731  1.00  0.00    -0.293 OA
ENDBRANCH  26  31
ENDBRANCH  22  23
ENDBRANCH  21  22
ENDBRANCH   1  21
TORSDOF 9
