REMARK  9 active torsions:
REMARK  status: ('A' for Active; 'I' for Inactive)
REMARK    1  A    between atoms: C_3  and  C_4 
REMARK    2  A    between atoms: C_4  and  C_5 
REMARK       I    between atoms: C_5  and  N_6 
REMARK    3  A    between atoms: N_6  and  C_7 
REMARK    4  A    between atoms: C_7  and  C_8 
REMARK    5  A    between atoms: C_17  and  N_18 
REMARK       I    between atoms: N_18  and  C_19 
REMARK    6  A    between atoms: C_19  and  C_20 
REMARK    7  A    between atoms: C_28  and  C_29 
REMARK    8  A    between atoms: C_29  and  O_30 
REMARK    9  A    between atoms: C_32  and  O_33 
ROOT
HETATM    1  C   UNL     1      -2.276   1.445   0.408  1.00  0.00     0.016 C 
HETATM    2  C   UNL     1      -0.795   0.956   0.316  1.00  0.00    -0.030 C 
HETATM    3  C   UNL     1      -0.669  -0.507   0.941  1.00  0.00     0.056 C 
HETATM    4  C   UNL     1      -1.106  -1.556  -0.062  1.00  0.00     0.056 C 
HETATM    5  C   UNL     1      -1.393  -1.285  -1.386  1.00  0.00     0.012 C 
HETATM    6  S   UNL     1      -1.841  -2.711  -2.201  1.00  0.00    -0.055 SA
HETATM    7  C   UNL     1      -1.336  -3.596  -0.831  1.00  0.00     0.173 C 
HETATM    8  N   UNL     1      -1.068  -2.905   0.249  1.00  0.00    -0.227 NA
HETATM    9  C   UNL     1      -1.270   0.034  -2.057  1.00  0.00     0.055 C 
HETATM   10  C   UNL     1      -0.366   0.976  -1.213  1.00  0.00     0.012 C 
HETATM   11  C   UNL     1       1.201   0.855  -1.494  1.00  0.00     0.008 C 
HETATM   12  C   UNL     1       1.477   1.634  -2.815  1.00  0.00     0.020 C 
HETATM   13  C   UNL     1       2.024   1.556  -0.367  1.00  0.00     0.128 C 
HETATM   14  C   UNL     1       1.212   2.608   0.375  1.00  0.00     0.033 C 
HETATM   15  C   UNL     1       0.055   1.972   1.144  1.00  0.00     0.013 C 
ENDROOT
BRANCH   3  16
HETATM   16  C   UNL     1      -1.427  -0.645   2.274  1.00  0.00     0.114 C 
BRANCH  16  17
HETATM   17  C   UNL     1      -0.791  -1.632   3.232  1.00  0.00     0.218 C 
HETATM   18  N   UNL     1      -1.198  -2.928   3.060  1.00  0.00    -0.355 N 
HETATM   19  H   UNL     1      -1.422  -3.201   2.102  1.00  0.00     0.162 HD
HETATM   20  O   UNL     1      -0.020  -1.263   4.114  1.00  0.00    -0.274 OA
BRANCH  18  21
HETATM   21  C   UNL     1      -0.725  -3.979   3.928  1.00  0.00     0.187 C 
BRANCH  21  22
HETATM   22  C   UNL     1      -1.740  -5.063   3.962  1.00  0.00     0.070 A 
HETATM   23  O   UNL     1      -2.813  -4.880   4.789  1.00  0.00    -0.325 OA
HETATM   24  C   UNL     1      -3.603  -5.977   4.665  1.00  0.00     0.142 A 
HETATM   25  C   UNL     1      -3.056  -6.868   3.773  1.00  0.00     0.027 A 
HETATM   26  C   UNL     1      -1.849  -6.282   3.324  1.00  0.00     0.036 A 
ENDBRANCH  21  22
ENDBRANCH  18  21
ENDBRANCH  16  17
ENDBRANCH   3  16
BRANCH  11  27
HETATM   27  C   UNL     1       1.759  -0.582  -1.688  1.00  0.00     0.176 C 
BRANCH  27  28
HETATM   28  O   UNL     1       1.300  -1.193  -2.889  1.00  0.00    -0.400 OA
HETATM   29  H   UNL     1       1.642  -2.104  -2.873  1.00  0.00     0.209 HD
ENDBRANCH  27  28
ENDBRANCH  11  27
BRANCH   7  30
HETATM   30  N   UNL     1      -1.186  -4.929  -1.089  1.00  0.00    -0.305 N 
HETATM   31  C   UNL     1      -0.370  -5.729  -0.320  1.00  0.00     0.227 C 
HETATM   32  O   UNL     1       0.079  -5.422   0.787  1.00  0.00    -0.273 OA
HETATM   33  H   UNL     1      -1.460  -5.219  -2.014  1.00  0.00     0.171 HD
BRANCH  31  34
HETATM   34  C   UNL     1      -0.010  -7.077  -1.001  1.00  0.00     0.078 C 
HETATM   35  C   UNL     1      -0.001  -7.196  -2.555  1.00  0.00     0.014 C 
HETATM   36  C   UNL     1       1.216  -8.127  -2.418  1.00  0.00     0.002 C 
HETATM   37  C   UNL     1       1.507  -7.428  -1.078  1.00  0.00     0.014 C 
ENDBRANCH  31  34
ENDBRANCH   7  30
BRANCH  13  38
HETATM   38  O   UNL     1       2.504   0.603   0.582  1.00  0.00    -0.395 OA
HETATM   39  H   UNL     1       2.986   1.084   1.279  1.00  0.00     0.210 HD
ENDBRANCH  13  38
TORSDOF 9
