REMARK  3 active torsions:
REMARK  status: ('A' for Active; 'I' for Inactive)
REMARK    1  A    between atoms: C_5  and  C_6 
REMARK       I    between atoms: C_6  and  N_7 
REMARK    2  A    between atoms: N_7  and  C_8 
REMARK    3  A    between atoms: C_15  and  C_16 
REMARK       I    between atoms: C_16  and  N_17 
ROOT
HETATM    1  C   UNL     1       4.564   1.825   0.294  1.00  0.00     0.036 A 
HETATM    2  C   UNL     1       4.741   0.436   0.363  1.00  0.00     0.046 A 
HETATM    3  C   UNL     1       6.031  -0.092   0.594  1.00  0.00     0.030 A 
HETATM    4  C   UNL     1       7.098   0.784   0.745  1.00  0.00     0.063 A 
HETATM    5  N   UNL     1       8.193  -0.009   0.950  1.00  0.00    -0.277 N 
HETATM    6  H   UNL     1       9.149   0.292   1.100  1.00  0.00     0.189 HD
HETATM    7  N   UNL     1       7.935  -1.326   0.947  1.00  0.00    -0.168 NA
HETATM    8  C   UNL     1       6.602  -1.395   0.727  1.00  0.00     0.156 A 
HETATM    9  C   UNL     1       6.961   2.170   0.681  1.00  0.00     0.034 A 
HETATM   10  C   UNL     1       5.672   2.670   0.453  1.00  0.00     0.032 A 
ENDROOT
BRANCH   1  11
HETATM   11  N   UNL     1       3.320   2.457   0.071  1.00  0.00    -0.322 N 
HETATM   12  C   UNL     1       2.080   1.874  -0.123  1.00  0.00     0.276 C 
HETATM   13  O   UNL     1       1.896   0.662  -0.122  1.00  0.00    -0.266 OA
HETATM   14  H   UNL     1       3.351   3.468   0.050  1.00  0.00     0.169 HD
BRANCH  12  15
HETATM   15  C   UNL     1       0.984   2.807  -0.321  1.00  0.00     0.150 A 
HETATM   16  N   UNL     1      -0.364   2.457  -0.331  1.00  0.00    -0.299 N 
HETATM   17  C   UNL     1      -1.087   3.629  -0.554  1.00  0.00     0.136 A 
HETATM   18  C   UNL     1      -0.998   1.221  -0.151  1.00  0.00     0.099 A 
HETATM   19  C   UNL     1      -2.507   3.538  -0.605  1.00  0.00     0.051 A 
HETATM   20  N   UNL     1      -0.299   4.668  -0.683  1.00  0.00    -0.216 NA
HETATM   21  C   UNL     1      -3.110   2.347  -0.436  1.00  0.00     0.005 A 
HETATM   22  C   UNL     1      -2.339   1.141  -0.198  1.00  0.00     0.018 A 
HETATM   23  C   UNL     1       0.971   4.177  -0.549  1.00  0.00     0.161 A 
HETATM   24 CL   UNL     1       2.302   5.242  -0.676  1.00  0.00    -0.060 Cl
ENDBRANCH  12  15
ENDBRANCH   1  11
BRANCH   8  25
HETATM   25  C   UNL     1       5.910  -2.689   0.651  1.00  0.00     0.270 C 
HETATM   26  N   UNL     1       6.731  -3.771   0.818  1.00  0.00    -0.365 N 
HETATM   27  H   UNL     1       7.719  -3.611   0.974  1.00  0.00     0.159 HD
HETATM   28  H   UNL     1       6.346  -4.701   0.780  1.00  0.00     0.159 HD
HETATM   29  O   UNL     1       4.707  -2.829   0.458  1.00  0.00    -0.266 OA
ENDBRANCH   8  25
TORSDOF 3
