REMARK  8 active torsions:
REMARK  status: ('A' for Active; 'I' for Inactive)
REMARK    1  A    between atoms: C_2  and  O_3 
REMARK    2  A    between atoms: O_3  and  C_4 
REMARK    3  A    between atoms: C_7  and  N_8 
REMARK       I    between atoms: N_8  and  C_9 
REMARK    4  A    between atoms: C_9  and  C_10 
REMARK    5  A    between atoms: C_10  and  N_11 
REMARK    6  A    between atoms: C_14  and  C_15 
REMARK       I    between atoms: C_15  and  N_16 
REMARK    7  A    between atoms: N_16  and  C_17 
REMARK    8  A    between atoms: C_25  and  N_26 
ROOT
HETATM    1  N   UNL     1       8.195  -0.419  -0.697  1.00  0.00    -0.248 N 
HETATM    2  N   UNL     1       8.285   0.328   0.426  1.00  0.00     0.007 NA
HETATM    3  N   UNL     1       7.358  -0.107   1.267  1.00  0.00    -0.150 NA
HETATM    4  C   UNL     1       6.655  -1.123   0.651  1.00  0.00     0.187 A 
HETATM    5  C   UNL     1       7.146  -1.300  -0.632  1.00  0.00     0.151 A 
ENDROOT
BRANCH   1   6
HETATM    6  C   UNL     1       9.229  -0.313  -1.696  1.00  0.00     0.251 C 
BRANCH   6   7
HETATM    7  C   UNL     1       9.000   0.845  -2.636  1.00  0.00     0.241 C 
HETATM    8  N   UNL     1       9.002   2.082  -2.011  1.00  0.00    -0.326 N 
HETATM    9  H   UNL     1       8.900   2.084  -0.998  1.00  0.00     0.169 HD
HETATM   10  O   UNL     1       8.894   0.644  -3.844  1.00  0.00    -0.271 OA
BRANCH   8  11
HETATM   11  C   UNL     1       9.059   3.348  -2.629  1.00  0.00     0.034 A 
HETATM   12  C   UNL     1       9.315   3.538  -3.986  1.00  0.00     0.032 A 
HETATM   13  C   UNL     1       9.410   4.832  -4.512  1.00  0.00     0.039 A 
HETATM   14  C   UNL     1       9.242   5.952  -3.698  1.00  0.00     0.068 A 
HETATM   15  C   UNL     1       8.979   5.768  -2.343  1.00  0.00     0.039 A 
HETATM   16  C   UNL     1       8.894   4.473  -1.812  1.00  0.00     0.032 A 
BRANCH  14  17
HETATM   17  O   UNL     1       9.372   7.150  -4.341  1.00  0.00    -0.352 OA
BRANCH  17  18
HETATM   18  C   UNL     1       9.106   8.329  -3.584  1.00  0.00     0.171 C 
HETATM   19  C   UNL     1       9.296   9.525  -4.501  1.00  0.00     0.034 C 
ENDBRANCH  17  18
ENDBRANCH  14  17
ENDBRANCH   8  11
ENDBRANCH   6   7
ENDBRANCH   1   6
BRANCH   5  20
HETATM   20  N   UNL     1       6.804  -2.142  -1.636  1.00  0.00    -0.382 N 
HETATM   21  H   UNL     1       5.941  -2.685  -1.529  1.00  0.00     0.157 HD
HETATM   22  H   UNL     1       7.005  -1.940  -2.614  1.00  0.00     0.157 HD
ENDBRANCH   5  20
BRANCH   4  23
HETATM   23  C   UNL     1       5.586  -1.863   1.312  1.00  0.00     0.280 C 
HETATM   24  N   UNL     1       5.504  -1.568   2.661  1.00  0.00    -0.320 N 
HETATM   25  H   UNL     1       5.953  -0.698   2.927  1.00  0.00     0.169 HD
HETATM   26  O   UNL     1       4.832  -2.605   0.691  1.00  0.00    -0.265 OA
BRANCH  24  27
HETATM   27  C   UNL     1       4.677  -2.194   3.620  1.00  0.00     0.057 A 
HETATM   28  C   UNL     1       4.339  -3.559   3.654  1.00  0.00     0.060 A 
HETATM   29 CL   UNL     1       5.077  -4.759   2.649  1.00  0.00    -0.082 Cl
HETATM   30  C   UNL     1       3.492  -4.047   4.660  1.00  0.00     0.026 A 
HETATM   31  C   UNL     1       3.002  -3.198   5.651  1.00  0.00     0.002 A 
HETATM   32  C   UNL     1       3.375  -1.859   5.656  1.00  0.00     0.002 A 
HETATM   33  C   UNL     1       4.215  -1.364   4.655  1.00  0.00     0.031 A 
ENDBRANCH  24  27
ENDBRANCH   4  23
TORSDOF 8
