REMARK  9 active torsions:
REMARK  status: ('A' for Active; 'I' for Inactive)
REMARK    1  A    between atoms: C_3  and  N_4 
REMARK    2  A    between atoms: N_4  and  S_5 
REMARK    3  A    between atoms: S_5  and  C_6 
REMARK    4  A    between atoms: C_12  and  C_13 
REMARK       I    between atoms: C_13  and  N_14 
REMARK    5  A    between atoms: N_14  and  C_15 
REMARK    6  A    between atoms: C_15  and  C_16 
REMARK    7  A    between atoms: C_16  and  C_17 
REMARK    8  A    between atoms: C_17  and  O_18 
REMARK    9  A    between atoms: O_18  and  C_19 
ROOT
HETATM    1  C   UNL     1       4.314   4.123   0.992  1.00  0.00     0.081 A 
HETATM    2  C   UNL     1       4.566   5.398   1.505  1.00  0.00     0.043 A 
HETATM    3  C   UNL     1       5.381   5.525   2.633  1.00  0.00     0.043 A 
HETATM    4  C   UNL     1       5.972   4.398   3.230  1.00  0.00     0.046 A 
HETATM    5  N   UNL     1       6.768   4.555   4.369  1.00  0.00    -0.364 N 
HETATM    6  C   UNL     1       6.982   5.794   4.917  1.00  0.00     0.109 A 
HETATM    7  C   UNL     1       6.471   6.948   4.454  1.00  0.00     0.098 A 
HETATM    8  C   UNL     1       5.617   6.865   3.235  1.00  0.00     0.201 A 
HETATM    9  O   UNL     1       5.094   7.862   2.741  1.00  0.00    -0.286 OA
HETATM   10  C   UNL     1       5.720   3.132   2.692  1.00  0.00     0.032 A 
HETATM   11  C   UNL     1       4.894   2.991   1.572  1.00  0.00     0.027 A 
HETATM   12  H   UNL     1       7.246   3.755   4.768  1.00  0.00     0.165 HD
ENDROOT
BRANCH   1  13
HETATM   13  S   UNL     1       3.283   3.962  -0.448  1.00  0.00     0.263 S 
HETATM   14  O   UNL     1       3.522   2.656  -1.025  1.00  0.00    -0.200 OA
HETATM   15  O   UNL     1       3.457   5.168  -1.231  1.00  0.00    -0.200 OA
BRANCH  13  16
HETATM   16  N   UNL     1       1.730   4.032   0.190  1.00  0.00    -0.280 N 
HETATM   17  H   UNL     1       1.342   4.972   0.232  1.00  0.00     0.179 HD
BRANCH  16  18
HETATM   18  C   UNL     1       1.284   3.055   1.122  1.00  0.00     0.048 A 
HETATM   19  C   UNL     1       1.040   3.382   2.465  1.00  0.00    -0.035 A 
HETATM   20  C   UNL     1       1.273   4.750   3.042  1.00  0.00     0.050 C 
HETATM   21  C   UNL     1       0.616   2.364   3.338  1.00  0.00     0.009 A 
HETATM   22  C   UNL     1       0.413   1.062   2.880  1.00  0.00     0.001 A 
HETATM   23  C   UNL     1       0.645   0.753   1.544  1.00  0.00     0.002 A 
HETATM   24  C   UNL     1       1.084   1.746   0.670  1.00  0.00     0.030 A 
ENDBRANCH  16  18
ENDBRANCH  13  16
ENDBRANCH   1  13
BRANCH   7  25
HETATM   25  C   UNL     1       6.754   8.205   5.206  1.00  0.00     0.257 C 
HETATM   26  N   UNL     1       6.210   9.344   4.671  1.00  0.00    -0.357 N 
HETATM   27  H   UNL     1       5.682   9.267   3.800  1.00  0.00     0.162 HD
HETATM   28  O   UNL     1       7.406   8.200   6.247  1.00  0.00    -0.267 OA
BRANCH  26  29
HETATM   29  C   UNL     1       6.275  10.628   5.332  1.00  0.00     0.125 C 
BRANCH  29  30
HETATM   30  C   UNL     1       7.580  11.365   5.060  1.00  0.00     0.046 C 
BRANCH  30  31
HETATM   31  C   UNL     1       7.597  12.708   5.782  1.00  0.00     0.169 C 
BRANCH  31  32
HETATM   32  O   UNL     1       8.829  13.368   5.500  1.00  0.00    -0.387 OA
BRANCH  32  33
HETATM   33  C   UNL     1       8.906  14.694   6.033  1.00  0.00     0.113 C 
HETATM   34  C   UNL     1       9.108  14.675   7.546  1.00  0.00     0.039 C 
HETATM   35  C   UNL     1      10.086  15.381   5.355  1.00  0.00     0.039 C 
ENDBRANCH  32  33
ENDBRANCH  31  32
ENDBRANCH  30  31
ENDBRANCH  29  30
ENDBRANCH  26  29
ENDBRANCH   7  25
TORSDOF 9
