REMARK  7 active torsions:
REMARK  status: ('A' for Active; 'I' for Inactive)
REMARK    1  A    between atoms: N_3  and  C_4 
REMARK    2  A    between atoms: C_12  and  C_13 
REMARK       I    between atoms: C_13  and  N_14 
REMARK    3  A    between atoms: N_14  and  C_15 
REMARK    4  A    between atoms: C_15  and  C_16 
REMARK    5  A    between atoms: C_17  and  C_18 
REMARK    6  A    between atoms: C_18  and  O_19 
REMARK    7  A    between atoms: O_19  and  C_20 
ROOT
HETATM    1  C   UNL     1       2.090  -3.687  -1.451  1.00  0.00     0.255 C 
HETATM    2  N   UNL     1       1.506  -3.293  -0.272  1.00  0.00    -0.346 N 
HETATM    3  O   UNL     1       1.705  -3.299  -2.548  1.00  0.00    -0.268 OA
HETATM    4  H   UNL     1       1.651  -3.857   0.548  1.00  0.00     0.163 HD
ENDROOT
BRANCH   2   5
HETATM    5  C   UNL     1       0.418  -2.349  -0.252  1.00  0.00     0.217 C 
BRANCH   5   6
HETATM    6  C   UNL     1      -0.875  -3.034  -0.197  1.00  0.00    -0.085 C 
HETATM    7  C   UNL     1      -1.965  -3.541  -0.202  1.00  0.00    -0.078 C 
BRANCH   7   8
HETATM    8  C   UNL     1      -3.324  -4.099  -0.271  1.00  0.00     0.269 C 
BRANCH   8   9
HETATM    9  O   UNL     1      -3.803  -3.948  -1.609  1.00  0.00    -0.337 OA
BRANCH   9  10
HETATM   10  C   UNL     1      -5.112  -4.314  -1.728  1.00  0.00     0.103 A 
HETATM   11  C   UNL     1      -5.456  -5.440  -2.453  1.00  0.00     0.109 A 
HETATM   12  C   UNL     1      -6.781  -5.769  -2.686  1.00  0.00    -0.019 A 
HETATM   13  O   UNL     1      -4.564  -6.315  -3.015  1.00  0.00    -0.337 OA
HETATM   14  C   UNL     1      -6.858  -6.966  -3.553  1.00  0.00     0.079 C 
HETATM   15  C   UNL     1      -7.810  -4.982  -2.194  1.00  0.00     0.010 A 
HETATM   16  C   UNL     1      -5.371  -7.388  -3.576  1.00  0.00     0.065 C 
HETATM   17  C   UNL     1      -4.885  -7.626  -5.008  1.00  0.00     0.046 C 
HETATM   18  C   UNL     1      -5.135  -8.644  -2.729  1.00  0.00     0.046 C 
HETATM   19  C   UNL     1      -7.479  -3.840  -1.460  1.00  0.00     0.003 A 
HETATM   20  C   UNL     1      -6.135  -3.498  -1.238  1.00  0.00     0.040 A 
ENDBRANCH   9  10
ENDBRANCH   8   9
ENDBRANCH   7   8
ENDBRANCH   5   6
ENDBRANCH   2   5
BRANCH   1  21
HETATM   21  C   UNL     1       3.222  -4.593  -1.332  1.00  0.00     0.075 C 
HETATM   22  C   UNL     1       4.182  -4.742  -0.330  1.00  0.00     0.050 C 
HETATM   23  C   UNL     1       4.256  -4.171   1.041  1.00  0.00     0.071 C 
HETATM   24  N   UNL     1       5.178  -5.549  -0.891  1.00  0.00    -0.238 N 
HETATM   25  N   UNL     1       4.704  -6.202  -1.983  1.00  0.00    -0.179 NA
HETATM   26  C   UNL     1       3.606  -5.528  -2.314  1.00  0.00     0.158 C 
BRANCH  24  27
HETATM   27  C   UNL     1       6.552  -5.709  -0.533  1.00  0.00     0.058 A 
HETATM   28  C   UNL     1       7.263  -6.814  -1.029  1.00  0.00     0.031 A 
HETATM   29  C   UNL     1       8.619  -6.974  -0.734  1.00  0.00     0.002 A 
HETATM   30  C   UNL     1       9.282  -6.027   0.043  1.00  0.00     0.000 A 
HETATM   31  C   UNL     1       8.592  -4.914   0.518  1.00  0.00     0.002 A 
HETATM   32  C   UNL     1       7.234  -4.749   0.227  1.00  0.00     0.031 A 
ENDBRANCH  24  27
ENDBRANCH   1  21
TORSDOF 7
