REMARK  2 active torsions:
REMARK  status: ('A' for Active; 'I' for Inactive)
REMARK    1  A    between atoms: C_4  and  C_5 
REMARK       I    between atoms: N_12  and  C_13 
REMARK    2  A    between atoms: C_13  and  C_14 
ROOT
HETATM    1  C   UNL     1       2.811   0.209  -0.066  1.00  0.00     0.097 A 
HETATM    2  N   UNL     1       3.537   1.305  -0.364  1.00  0.00    -0.173 NA
HETATM    3  N   UNL     1       4.773   0.850  -0.617  1.00  0.00    -0.281 N 
HETATM    4  H   UNL     1       5.487   1.520  -0.884  1.00  0.00     0.189 HD
HETATM    5  C   UNL     1       4.868  -0.496  -0.505  1.00  0.00     0.039 A 
HETATM    6  C   UNL     1       3.630  -0.957  -0.122  1.00  0.00     0.015 A 
HETATM    7  C   UNL     1       3.324  -2.398   0.091  1.00  0.00     0.169 C 
HETATM    8  N   UNL     1       4.424  -3.249  -0.422  1.00  0.00    -0.343 N 
HETATM    9  C   UNL     1       4.293  -4.637  -0.546  1.00  0.00     0.254 C 
HETATM   10  O   UNL     1       5.248  -5.398  -0.689  1.00  0.00    -0.267 OA
HETATM   11  C   UNL     1       5.805  -2.747  -0.235  1.00  0.00     0.132 C 
HETATM   12  C   UNL     1       6.042  -1.338  -0.811  1.00  0.00     0.079 C 
ENDROOT
BRANCH   9  13
HETATM   13  C   UNL     1       2.957  -5.261  -0.446  1.00  0.00     0.035 A 
HETATM   14  C   UNL     1       2.754  -6.206   0.565  1.00  0.00     0.056 A 
HETATM   15  C   UNL     1       1.515  -6.829   0.685  1.00  0.00     0.103 A 
HETATM   16  C   UNL     1       0.492  -6.537  -0.225  1.00  0.00     0.102 A 
HETATM   17  O   UNL     1       1.377  -7.727   1.711  1.00  0.00    -0.346 OA
HETATM   18  O   UNL     1      -0.741  -7.135  -0.179  1.00  0.00    -0.346 OA
HETATM   19  C   UNL     1       0.700  -5.602  -1.240  1.00  0.00     0.040 A 
HETATM   20  C   UNL     1      -0.713  -8.322   0.622  1.00  0.00     0.202 C 
HETATM   21  C   UNL     1       0.005  -8.067   1.936  1.00  0.00     0.202 C 
HETATM   22  C   UNL     1       1.941  -4.973  -1.365  1.00  0.00     0.020 A 
ENDBRANCH   9  13
BRANCH   1  23
HETATM   23  C   UNL     1       1.375   0.317   0.204  1.00  0.00    -0.005 A 
HETATM   24  C   UNL     1       0.608   1.265  -0.492  1.00  0.00     0.014 A 
HETATM   25  C   UNL     1      -0.769   1.365  -0.282  1.00  0.00     0.001 A 
HETATM   26  C   UNL     1      -1.396   0.521   0.630  1.00  0.00     0.000 A 
HETATM   27  C   UNL     1      -0.645  -0.416   1.339  1.00  0.00     0.001 A 
HETATM   28  C   UNL     1       0.735  -0.515   1.131  1.00  0.00     0.014 A 
ENDBRANCH   1  23
TORSDOF 2
