REMARK  6 active torsions:
REMARK  status: ('A' for Active; 'I' for Inactive)
REMARK    1  A    between atoms: C_3  and  N_4 
REMARK       I    between atoms: N_4  and  C_5 
REMARK    2  A    between atoms: C_5  and  C_6 
REMARK    3  A    between atoms: C_6  and  N_7 
REMARK    4  A    between atoms: N_7  and  C_9 
REMARK    5  A    between atoms: C_9  and  C_10 
REMARK    6  A    between atoms: C_18  and  O_19 
ROOT
HETATM    1  N   UNL     1       0.990  -0.252  -0.958  1.00  0.00    -0.063 N 
HETATM    2  H   UNL     1       1.683  -0.082  -0.213  1.00  0.00     0.280 HD
HETATM    3  C   UNL     1       0.093   0.947  -0.991  1.00  0.00     0.270 C 
ENDROOT
BRANCH   1   4
HETATM    4  C   UNL     1       0.247  -1.512  -0.495  1.00  0.00     0.337 C 
BRANCH   4   5
HETATM    5  C   UNL     1       1.188  -2.581   0.068  1.00  0.00     0.248 C 
HETATM    6  N   UNL     1       0.547  -3.586   0.771  1.00  0.00    -0.325 N 
HETATM    7  H   UNL     1      -0.346  -3.352   1.190  1.00  0.00     0.169 HD
HETATM    8  O   UNL     1       2.401  -2.457  -0.087  1.00  0.00    -0.271 OA
BRANCH   6   9
HETATM    9  C   UNL     1       1.238  -4.650   1.411  1.00  0.00     0.046 A 
HETATM   10  C   UNL     1       0.894  -4.951   2.751  1.00  0.00    -0.035 A 
HETATM   11  C   UNL     1      -0.163  -4.196   3.513  1.00  0.00     0.050 C 
HETATM   12  C   UNL     1       1.574  -5.980   3.423  1.00  0.00     0.009 A 
HETATM   13  C   UNL     1       2.576  -6.703   2.788  1.00  0.00     0.001 A 
HETATM   14  C   UNL     1       2.887  -6.433   1.460  1.00  0.00     0.009 A 
HETATM   15  C   UNL     1       2.206  -5.432   0.744  1.00  0.00    -0.035 A 
HETATM   16  C   UNL     1       2.536  -5.306  -0.718  1.00  0.00     0.050 C 
ENDBRANCH   6   9
ENDBRANCH   4   5
ENDBRANCH   1   4
BRANCH   1  17
HETATM   17  C   UNL     1       1.865  -0.402  -2.199  1.00  0.00     0.276 C 
BRANCH  17  18
HETATM   18  C   UNL     1       1.233  -0.984  -3.427  1.00  0.00     0.009 A 
HETATM   19  C   UNL     1       0.611  -0.220  -4.405  1.00  0.00     0.134 A 
HETATM   20 CL   UNL     1       0.506   1.495  -4.326  1.00  0.00    -0.062 Cl
HETATM   21  N   UNL     1       0.034  -0.716  -5.514  1.00  0.00    -0.235 NA
HETATM   22  C   UNL     1       0.095  -2.039  -5.732  1.00  0.00     0.071 A 
HETATM   23  C   UNL     1       0.723  -2.914  -4.826  1.00  0.00    -0.006 A 
HETATM   24  C   UNL     1      -0.462  -2.571  -6.886  1.00  0.00     0.069 A 
HETATM   25  C   UNL     1       1.289  -2.364  -3.665  1.00  0.00     0.026 A 
HETATM   26  C   UNL     1       0.777  -4.290  -5.101  1.00  0.00     0.016 A 
HETATM   27  C   UNL     1       0.215  -4.800  -6.274  1.00  0.00     0.038 A 
HETATM   28  C   UNL     1      -0.404  -3.939  -7.175  1.00  0.00     0.070 A 
BRANCH  28  29
HETATM   29  O   UNL     1      -0.988  -4.296  -8.357  1.00  0.00    -0.356 OA
HETATM   30  C   UNL     1      -0.813  -5.641  -8.788  1.00  0.00     0.210 C 
ENDBRANCH  28  29
ENDBRANCH  17  18
ENDBRANCH   1  17
TORSDOF 6
