REMARK  6 active torsions:
REMARK  status: ('A' for Active; 'I' for Inactive)
REMARK    1  A    between atoms: O_2  and  C_3 
REMARK    2  A    between atoms: C_5  and  C_6 
REMARK    3  A    between atoms: C_12  and  C_13 
REMARK       I    between atoms: C_13  and  N_14 
REMARK    4  A    between atoms: N_14  and  C_15 
REMARK    5  A    between atoms: C_15  and  C_16 
REMARK    6  A    between atoms: C_23  and  C_24 
ROOT
HETATM    1  C   UNL     1       2.832   4.854  -1.556  1.00  0.00     0.118 C 
HETATM    2  N   UNL     1       3.911   5.821  -1.823  1.00  0.00    -0.365 N 
HETATM    3  C   UNL     1       3.601   7.106  -2.159  1.00  0.00     0.138 A 
HETATM    4  N   UNL     1       2.314   7.453  -2.506  1.00  0.00    -0.240 N 
HETATM    5  N   UNL     1       2.159   8.757  -2.769  1.00  0.00    -0.181 NA
HETATM    6  C   UNL     1       3.395   9.246  -2.641  1.00  0.00     0.160 A 
HETATM    7  C   UNL     1       4.343   8.270  -2.247  1.00  0.00     0.096 A 
HETATM    8  C   UNL     1       1.199   6.524  -2.553  1.00  0.00     0.221 C 
HETATM    9  C   UNL     1       1.728   5.077  -2.603  1.00  0.00     0.066 C 
HETATM   10  H   UNL     1       4.752   5.400  -2.223  1.00  0.00     0.161 HD
ENDROOT
BRANCH   7  11
HETATM   11  C   UNL     1       5.742   8.524  -1.954  1.00  0.00     0.257 C 
HETATM   12  N   UNL     1       6.418   7.479  -1.370  1.00  0.00    -0.352 N 
HETATM   13  H   UNL     1       5.863   6.695  -1.054  1.00  0.00     0.163 HD
HETATM   14  O   UNL     1       6.261   9.614  -2.174  1.00  0.00    -0.267 OA
BRANCH  12  15
HETATM   15  C   UNL     1       7.736   7.665  -0.816  1.00  0.00     0.161 C 
BRANCH  15  16
HETATM   16  C   UNL     1       8.516   6.378  -0.809  1.00  0.00    -0.041 A 
HETATM   17  C   UNL     1       9.516   6.156  -1.766  1.00  0.00     0.009 A 
HETATM   18  C   UNL     1      10.258   4.974  -1.758  1.00  0.00     0.001 A 
HETATM   19  C   UNL     1      10.000   3.997  -0.799  1.00  0.00     0.000 A 
HETATM   20  C   UNL     1       8.998   4.199   0.149  1.00  0.00     0.001 A 
HETATM   21  C   UNL     1       8.258   5.383   0.145  1.00  0.00     0.009 A 
ENDBRANCH  15  16
ENDBRANCH  12  15
ENDBRANCH   7  11
BRANCH   1  22
HETATM   22  C   UNL     1       2.360   4.921  -0.102  1.00  0.00    -0.033 A 
HETATM   23  C   UNL     1       3.134   5.554   0.894  1.00  0.00     0.046 A 
HETATM   24  C   UNL     1       2.710   5.613   2.224  1.00  0.00     0.068 A 
HETATM   25  C   UNL     1       1.505   5.011   2.582  1.00  0.00     0.037 A 
HETATM   26  C   UNL     1       0.736   4.353   1.626  1.00  0.00     0.003 A 
HETATM   27  C   UNL     1       1.165   4.298   0.298  1.00  0.00     0.009 A 
BRANCH  24  28
HETATM   28  O   UNL     1       3.381   6.212   3.254  1.00  0.00    -0.356 OA
HETATM   29  C   UNL     1       4.548   6.952   2.919  1.00  0.00     0.210 C 
ENDBRANCH  24  28
ENDBRANCH   1  22
BRANCH   8  30
HETATM   30  C   UNL     1       0.297   6.767  -3.745  1.00  0.00     0.409 C 
HETATM   31  F   UNL     1       0.958   6.679  -4.921  1.00  0.00    -0.169 F 
HETATM   32  F   UNL     1      -0.670   5.806  -3.779  1.00  0.00    -0.169 F 
HETATM   33  F   UNL     1      -0.355   7.946  -3.706  1.00  0.00    -0.169 F 
ENDBRANCH   8  30
TORSDOF 6
