REMARK  7 active torsions:
REMARK  status: ('A' for Active; 'I' for Inactive)
REMARK    1  A    between atoms: C_2  and  O_3 
REMARK    2  A    between atoms: O_3  and  C_4 
REMARK    3  A    between atoms: C_5  and  O_6 
REMARK    4  A    between atoms: C_7  and  C_8 
REMARK    5  A    between atoms: N_9  and  N_10 
REMARK       I    between atoms: N_10  and  C_11 
REMARK    6  A    between atoms: C_11  and  C_12 
REMARK    7  A    between atoms: C_16  and  C_17 
ROOT
HETATM    1  C   UNL     1       4.163  -7.383  -1.364  1.00  0.00     0.121 A 
HETATM    2  N   UNL     1       3.207  -8.324  -1.628  1.00  0.00    -0.272 N 
HETATM    3  H   UNL     1       3.363  -9.313  -1.801  1.00  0.00     0.189 HD
HETATM    4  N   UNL     1       1.960  -7.838  -1.696  1.00  0.00    -0.174 NA
HETATM    5  C   UNL     1       2.087  -6.529  -1.435  1.00  0.00     0.090 A 
HETATM    6  C   UNL     1       3.457  -6.208  -1.198  1.00  0.00     0.071 A 
ENDROOT
BRANCH   1   7
HETATM    7  C   UNL     1       5.562  -7.731  -1.339  1.00  0.00     0.289 C 
HETATM    8  N   UNL     1       6.423  -6.655  -1.189  1.00  0.00    -0.242 N 
HETATM    9  H   UNL     1       6.057  -5.715  -1.111  1.00  0.00     0.192 HD
HETATM   10  O   UNL     1       5.926  -8.896  -1.480  1.00  0.00    -0.264 OA
BRANCH   8  11
HETATM   11  N   UNL     1       7.767  -6.825  -1.357  1.00  0.00    -0.183 NA
HETATM   12  C   UNL     1       8.475  -5.741  -1.305  1.00  0.00     0.153 C 
BRANCH  12  13
HETATM   13  C   UNL     1       9.931  -5.755  -1.543  1.00  0.00     0.019 A 
HETATM   14  C   UNL     1      10.655  -4.562  -1.528  1.00  0.00     0.110 A 
HETATM   15  C   UNL     1      12.029  -4.551  -1.809  1.00  0.00     0.102 A 
HETATM   16  C   UNL     1      12.680  -5.755  -2.084  1.00  0.00     0.040 A 
HETATM   17  C   UNL     1      11.960  -6.954  -2.090  1.00  0.00     0.004 A 
HETATM   18  C   UNL     1      10.589  -6.956  -1.824  1.00  0.00     0.016 A 
BRANCH  14  19
HETATM   19  O   UNL     1      10.030  -3.371  -1.253  1.00  0.00    -0.357 OA
HETATM   20  H   UNL     1      10.740  -2.698  -1.288  1.00  0.00     0.218 HD
ENDBRANCH  14  19
BRANCH  15  21
HETATM   21  O   UNL     1      12.612  -3.309  -1.780  1.00  0.00    -0.349 OA
BRANCH  21  22
HETATM   22  C   UNL     1      13.942  -3.215  -2.295  1.00  0.00     0.171 C 
HETATM   23  C   UNL     1      14.328  -1.747  -2.320  1.00  0.00     0.034 C 
ENDBRANCH  21  22
ENDBRANCH  15  21
ENDBRANCH  12  13
ENDBRANCH   8  11
ENDBRANCH   1   7
BRANCH   5  24
HETATM   24  C   UNL     1       0.949  -5.600  -1.468  1.00  0.00     0.005 A 
HETATM   25  C   UNL     1      -0.352  -5.956  -0.999  1.00  0.00    -0.012 A 
HETATM   26  C   UNL     1      -1.321  -4.988  -1.122  1.00  0.00    -0.012 A 
HETATM   27  C   UNL     1      -0.800  -7.169  -0.413  1.00  0.00     0.013 A 
HETATM   28  C   UNL     1      -2.640  -5.146  -0.737  1.00  0.00    -0.046 A 
HETATM   29  C   UNL     1      -1.105  -3.729  -1.650  1.00  0.00    -0.046 A 
HETATM   30  C   UNL     1      -3.093  -6.330  -0.175  1.00  0.00     0.008 A 
HETATM   31  C   UNL     1      -3.418  -3.910  -1.023  1.00  0.00     0.044 A 
HETATM   32  C   UNL     1      -2.141  -7.345  -0.016  1.00  0.00     0.001 A 
HETATM   33  C   UNL     1      -2.366  -2.937  -1.639  1.00  0.00     0.044 A 
HETATM   34  C   UNL     1       0.143  -3.344  -2.109  1.00  0.00     0.009 A 
HETATM   35  C   UNL     1       1.164  -4.303  -2.011  1.00  0.00     0.015 A 
ENDBRANCH   5  24
TORSDOF 7
