REMARK  8 active torsions:
REMARK  status: ('A' for Active; 'I' for Inactive)
REMARK    1  A    between atoms: C_4  and  C_5 
REMARK    2  A    between atoms: C_5  and  N_6 
REMARK    3  A    between atoms: C_11  and  C_12 
REMARK       I    between atoms: C_12  and  N_13 
REMARK    4  A    between atoms: C_15  and  N_16 
REMARK       I    between atoms: N_16  and  C_17 
REMARK    5  A    between atoms: C_17  and  C_18 
REMARK    6  A    between atoms: C_18  and  C_19 
REMARK    7  A    between atoms: C_19  and  S_20 
REMARK    8  A    between atoms: S_20  and  C_21 
ROOT
HETATM    1  N   UNL     1       3.147  -1.037  -0.540  1.00  0.00    -0.063 N 
HETATM    2  H   UNL     1       3.260  -1.836   0.091  1.00  0.00     0.280 HD
HETATM    3  C   UNL     1       2.975  -1.635  -1.933  1.00  0.00     0.282 C 
HETATM    4  C   UNL     1       3.259  -0.627  -2.991  1.00  0.00     0.018 C 
HETATM    5  C   UNL     1       3.900   0.580  -2.800  1.00  0.00    -0.023 C 
HETATM    6  C   UNL     1       3.943   1.362  -4.018  1.00  0.00     0.073 C 
HETATM    7  C   UNL     1       3.528   0.595  -5.102  1.00  0.00     0.093 C 
HETATM    8  S   UNL     1       2.861  -0.894  -4.612  1.00  0.00    -0.074 SA
HETATM    9  C   UNL     1       4.411   0.981  -1.442  1.00  0.00     0.068 C 
HETATM   10  C   UNL     1       4.428  -0.211  -0.461  1.00  0.00     0.240 C 
ENDROOT
BRANCH   7  11
HETATM   11  N   UNL     1       3.663   0.905  -6.448  1.00  0.00    -0.320 N 
HETATM   12  C   UNL     1       3.208   0.163  -7.525  1.00  0.00     0.223 C 
HETATM   13  O   UNL     1       2.431  -0.785  -7.491  1.00  0.00    -0.273 OA
HETATM   14  H   UNL     1       4.189   1.749  -6.665  1.00  0.00     0.169 HD
BRANCH  12  15
HETATM   15  C   UNL     1       3.765   0.650  -8.851  1.00  0.00     0.113 C 
BRANCH  15  16
HETATM   16  C   UNL     1       3.005   1.849  -9.404  1.00  0.00     0.088 C 
BRANCH  16  17
HETATM   17  S   UNL     1       3.490   3.389  -8.541  1.00  0.00    -0.130 SA
BRANCH  17  18
HETATM   18  C   UNL     1       2.531   4.657  -9.359  1.00  0.00     0.000 A 
HETATM   19  C   UNL     1       1.692   4.445 -10.457  1.00  0.00     0.020 A 
HETATM   20  C   UNL     1       0.986   5.510 -11.031  1.00  0.00     0.025 A 
HETATM   21  C   UNL     1       1.114   6.793 -10.509  1.00  0.00     0.034 A 
HETATM   22 CL   UNL     1       0.245   8.097 -11.215  1.00  0.00    -0.084 Cl
HETATM   23  C   UNL     1       1.945   7.023  -9.418  1.00  0.00     0.025 A 
HETATM   24  C   UNL     1       2.650   5.959  -8.848  1.00  0.00     0.020 A 
ENDBRANCH  17  18
ENDBRANCH  16  17
ENDBRANCH  15  16
ENDBRANCH  12  15
ENDBRANCH   7  11
BRANCH   6  25
HETATM   25  C   UNL     1       4.421   2.742  -4.084  1.00  0.00     0.252 C 
HETATM   26  N   UNL     1       3.890   3.516  -5.075  1.00  0.00    -0.366 N 
HETATM   27  H   UNL     1       3.051   3.251  -5.575  1.00  0.00     0.159 HD
HETATM   28  H   UNL     1       4.101   4.506  -5.035  1.00  0.00     0.159 HD
HETATM   29  O   UNL     1       5.186   3.220  -3.255  1.00  0.00    -0.268 OA
ENDBRANCH   6  25
BRANCH   1  30
HETATM   30  C   UNL     1       1.944  -0.272  -0.033  1.00  0.00     0.273 C 
BRANCH  30  31
HETATM   31  C   UNL     1       0.663  -1.057   0.022  1.00  0.00    -0.033 A 
HETATM   32  C   UNL     1       0.564  -2.257   0.743  1.00  0.00     0.009 A 
HETATM   33  C   UNL     1      -0.643  -2.959   0.780  1.00  0.00     0.001 A 
HETATM   34  C   UNL     1      -1.763  -2.463   0.116  1.00  0.00     0.000 A 
HETATM   35  C   UNL     1      -1.681  -1.265  -0.588  1.00  0.00     0.001 A 
HETATM   36  C   UNL     1      -0.476  -0.566  -0.636  1.00  0.00     0.009 A 
ENDBRANCH  30  31
ENDBRANCH   1  30
TORSDOF 8
