REMARK  5 active torsions:
REMARK  status: ('A' for Active; 'I' for Inactive)
REMARK    1  A    between atoms: C_5  and  C_6 
REMARK    2  A    between atoms: C_6  and  C_7 
REMARK    3  A    between atoms: C_7  and  C_8 
REMARK       I    between atoms: C_8  and  N_9 
REMARK    4  A    between atoms: N_9  and  C_10 
REMARK    5  A    between atoms: C_12  and  C_13 
ROOT
HETATM    1  C   UNL     1       8.695  -1.178  -1.142  1.00  0.00     0.222 C 
HETATM    2  N   UNL     1       9.139   0.125  -1.263  1.00  0.00    -0.327 N 
HETATM    3  O   UNL     1       9.246  -2.174  -1.604  1.00  0.00    -0.273 OA
HETATM    4  H   UNL     1       8.513   0.858  -0.960  1.00  0.00     0.169 HD
ENDROOT
BRANCH   2   5
HETATM    5  C   UNL     1      10.351   0.568  -1.836  1.00  0.00     0.035 A 
HETATM    6  C   UNL     1      11.401  -0.283  -2.198  1.00  0.00     0.042 A 
HETATM    7  C   UNL     1      12.599   0.225  -2.731  1.00  0.00    -0.021 A 
HETATM    8  C   UNL     1      12.725   1.610  -2.904  1.00  0.00     0.012 A 
HETATM    9  C   UNL     1      11.685   2.467  -2.544  1.00  0.00     0.003 A 
HETATM   10  C   UNL     1      10.507   1.948  -2.007  1.00  0.00     0.029 A 
BRANCH   7  11
HETATM   11  C   UNL     1      13.706  -0.656  -3.080  1.00  0.00     0.010 A 
HETATM   12  C   UNL     1      15.088  -0.389  -3.242  1.00  0.00     0.152 A 
HETATM   13  N   UNL     1      15.795  -1.475  -3.569  1.00  0.00    -0.187 NA
HETATM   14  N   UNL     1      14.869  -2.445  -3.618  1.00  0.00    -0.289 N 
HETATM   15  H   UNL     1      15.168  -3.386  -3.850  1.00  0.00     0.188 HD
HETATM   16  C   UNL     1      13.607  -2.007  -3.337  1.00  0.00     0.123 A 
ENDBRANCH   7  11
ENDBRANCH   2   5
BRANCH   1  17
HETATM   17  C   UNL     1       7.452  -1.340  -0.278  1.00  0.00     0.108 C 
BRANCH  17  18
HETATM   18  C   UNL     1       6.258  -0.449  -0.614  1.00  0.00     0.047 C 
BRANCH  18  19
HETATM   19  C   UNL     1       5.611  -0.585  -1.973  1.00  0.00    -0.058 A 
HETATM   20  C   UNL     1       5.845  -1.656  -2.842  1.00  0.00     0.007 A 
HETATM   21  C   UNL     1       5.173  -1.742  -4.067  1.00  0.00     0.007 A 
HETATM   22  C   UNL     1       4.243  -0.768  -4.443  1.00  0.00    -0.062 A 
HETATM   23  C   UNL     1       3.511  -0.858  -5.748  1.00  0.00     0.048 C 
HETATM   24  C   UNL     1       4.003   0.303  -3.579  1.00  0.00     0.007 A 
HETATM   25  C   UNL     1       4.676   0.391  -2.358  1.00  0.00     0.007 A 
ENDBRANCH  18  19
ENDBRANCH  17  18
ENDBRANCH   1  17
TORSDOF 5
