REMARK  3 active torsions:
REMARK  status: ('A' for Active; 'I' for Inactive)
REMARK    1  A    between atoms: C_6  and  N_7 
REMARK       I    between atoms: N_7  and  C_8 
REMARK    2  A    between atoms: C_8  and  C_9 
REMARK    3  A    between atoms: C_20  and  O_21 
ROOT
HETATM    1  C   UNL     1       6.373   2.155  -0.249  1.00  0.00     0.153 A 
HETATM    2  N   UNL     1       7.016   3.296  -0.595  1.00  0.00    -0.168 NA
HETATM    3  N   UNL     1       6.132   4.276  -0.308  1.00  0.00    -0.276 N 
HETATM    4  H   UNL     1       6.403   5.237  -0.483  1.00  0.00     0.189 HD
HETATM    5  C   UNL     1       4.959   3.817   0.207  1.00  0.00     0.069 A 
HETATM    6  C   UNL     1       5.087   2.447   0.269  1.00  0.00     0.007 A 
HETATM    7  C   UNL     1       3.983   1.584   0.768  1.00  0.00     0.048 C 
HETATM    8  C   UNL     1       3.073   2.363   1.747  1.00  0.00     0.044 C 
HETATM    9  C   UNL     1       2.811   3.814   1.357  1.00  0.00    -0.043 A 
HETATM   10  C   UNL     1       3.780   4.549   0.635  1.00  0.00    -0.001 A 
HETATM   11  C   UNL     1       1.644   4.456   1.790  1.00  0.00     0.044 A 
HETATM   12  C   UNL     1       1.416   5.802   1.490  1.00  0.00     0.068 A 
HETATM   13  C   UNL     1       2.375   6.518   0.771  1.00  0.00     0.037 A 
HETATM   14  C   UNL     1       3.556   5.896   0.346  1.00  0.00     0.017 A 
ENDROOT
BRANCH   1  15
HETATM   15  C   UNL     1       6.998   0.829  -0.426  1.00  0.00     0.277 C 
HETATM   16  N   UNL     1       8.275   0.929  -0.946  1.00  0.00    -0.322 N 
HETATM   17  H   UNL     1       8.561   1.891  -1.117  1.00  0.00     0.169 HD
HETATM   18  O   UNL     1       6.412  -0.207  -0.131  1.00  0.00    -0.266 OA
BRANCH  16  19
HETATM   19  C   UNL     1       9.180  -0.103  -1.242  1.00  0.00     0.037 A 
HETATM   20  C   UNL     1       8.904  -1.457  -1.055  1.00  0.00     0.072 A 
HETATM   21  C   UNL     1       9.868  -2.413  -1.372  1.00  0.00     0.124 A 
HETATM   22  C   UNL     1      11.122  -2.053  -1.869  1.00  0.00    -0.023 A 
HETATM   23  F   UNL     1       9.574  -3.709  -1.191  1.00  0.00    -0.205 F 
HETATM   24  C   UNL     1      12.124  -3.107  -2.226  1.00  0.00     0.051 C 
HETATM   25  C   UNL     1      11.392  -0.697  -2.072  1.00  0.00     0.012 A 
HETATM   26  C   UNL     1      10.430   0.268  -1.756  1.00  0.00     0.030 A 
ENDBRANCH  16  19
ENDBRANCH   1  15
BRANCH  12  27
HETATM   27  O   UNL     1       0.230   6.295   1.960  1.00  0.00    -0.356 OA
HETATM   28  C   UNL     1      -0.118   7.618   1.571  1.00  0.00     0.210 C 
ENDBRANCH  12  27
TORSDOF 3
