REMARK  8 active torsions:
REMARK  status: ('A' for Active; 'I' for Inactive)
REMARK    1  A    between atoms: C_2  and  O_3 
REMARK    2  A    between atoms: O_3  and  C_4 
REMARK       I    between atoms: C_4  and  N_5 
REMARK    3  A    between atoms: C_8  and  N_9 
REMARK       I    between atoms: N_9  and  C_10 
REMARK    4  A    between atoms: C_10  and  C_11 
REMARK    5  A    between atoms: C_12  and  C_13 
REMARK    6  A    between atoms: N_18  and  C_19 
REMARK    7  A    between atoms: C_19  and  C_20 
REMARK    8  A    between atoms: C_20  and  O_21 
ROOT
HETATM    1  C   UNL     1       8.758  -1.601  -3.078  1.00  0.00     0.139 C 
HETATM    2  C   UNL     1       9.206  -0.268  -3.713  1.00  0.00     0.145 C 
HETATM    3  N   UNL     1       8.336   0.849  -3.321  1.00  0.00    -0.335 N 
HETATM    4  C   UNL     1       6.955   0.689  -3.438  1.00  0.00     0.255 C 
HETATM    5  O   UNL     1       6.156   1.613  -3.320  1.00  0.00    -0.267 OA
HETATM    6  C   UNL     1       6.458  -0.704  -3.673  1.00  0.00     0.039 A 
HETATM    7  C   UNL     1       7.304  -1.817  -3.479  1.00  0.00    -0.027 A 
HETATM    8  C   UNL     1       5.123  -0.896  -4.045  1.00  0.00     0.017 A 
HETATM    9  C   UNL     1       4.629  -2.187  -4.236  1.00  0.00     0.001 A 
HETATM   10  C   UNL     1       5.462  -3.289  -4.046  1.00  0.00     0.001 A 
HETATM   11  C   UNL     1       6.793  -3.110  -3.666  1.00  0.00     0.009 A 
ENDROOT
BRANCH   1  12
HETATM   12  C   UNL     1       8.909  -1.626  -1.551  1.00  0.00     0.229 C 
HETATM   13  N   UNL     1       9.186  -2.882  -1.035  1.00  0.00    -0.356 N 
HETATM   14  H   UNL     1       9.412  -3.595  -1.717  1.00  0.00     0.162 HD
HETATM   15  O   UNL     1       8.758  -0.633  -0.848  1.00  0.00    -0.273 OA
BRANCH  13  16
HETATM   16  C   UNL     1       9.707  -3.144   0.314  1.00  0.00     0.087 C 
HETATM   17  C   UNL     1       9.271  -2.207   1.448  1.00  0.00     0.045 C 
HETATM   18  C   UNL     1       7.795  -2.364   1.782  1.00  0.00     0.130 C 
HETATM   19  N   UNL     1       7.470  -3.761   2.070  1.00  0.00    -0.328 N 
HETATM   20  C   UNL     1       6.463  -4.111   2.959  1.00  0.00     0.362 C 
HETATM   21  C   UNL     1       7.897  -4.742   1.082  1.00  0.00     0.130 C 
HETATM   22  O   UNL     1       5.996  -5.241   3.049  1.00  0.00    -0.238 OA
HETATM   23  C   UNL     1       9.373  -4.588   0.718  1.00  0.00     0.045 C 
BRANCH  20  24
HETATM   24  O   UNL     1       6.061  -3.064   3.728  1.00  0.00    -0.304 OA
BRANCH  24  25
HETATM   25  C   UNL     1       5.037  -3.336   4.694  1.00  0.00     0.176 C 
HETATM   26  C   UNL     1       3.672  -3.117   4.073  1.00  0.00     0.034 C 
ENDBRANCH  24  25
ENDBRANCH  20  24
ENDBRANCH  13  16
ENDBRANCH   1  12
BRANCH   2  27
HETATM   27  C   UNL     1      10.692   0.041  -3.732  1.00  0.00     0.006 A 
HETATM   28  S   UNL     1      11.785  -0.503  -2.526  1.00  0.00    -0.104 SA
HETATM   29  C   UNL     1      13.121   0.235  -3.286  1.00  0.00     0.050 A 
HETATM   30  C   UNL     1      12.764   0.867  -4.454  1.00  0.00     0.008 A 
HETATM   31  C   UNL     1      11.370   0.747  -4.714  1.00  0.00     0.017 A 
ENDBRANCH   2  27
BRANCH   3  32
HETATM   32  C   UNL     1       8.823   1.991  -2.542  1.00  0.00     0.153 C 
BRANCH  32  33
HETATM   33  C   UNL     1       9.009   3.263  -3.366  1.00  0.00     0.187 C 
BRANCH  33  34
HETATM   34  O   UNL     1       9.612   4.261  -2.536  1.00  0.00    -0.394 OA
HETATM   35  C   UNL     1       9.806   5.482  -3.234  1.00  0.00     0.201 C 
ENDBRANCH  33  34
ENDBRANCH  32  33
ENDBRANCH   3  32
TORSDOF 8
