REMARK  7 active torsions:
REMARK  status: ('A' for Active; 'I' for Inactive)
REMARK    1  A    between atoms: C_6  and  N_7 
REMARK    2  A    between atoms: N_7  and  C_8 
REMARK    3  A    between atoms: C_13  and  C_14 
REMARK       I    between atoms: C_14  and  N_15 
REMARK    4  A    between atoms: N_15  and  C_16 
REMARK    5  A    between atoms: C_16  and  C_17 
REMARK    6  A    between atoms: C_17  and  N_18 
REMARK       I    between atoms: N_18  and  C_19 
REMARK    7  A    between atoms: C_19  and  C_20 
ROOT
HETATM    1  C   UNL     1      -3.380  -0.305  -1.486  1.00  0.00     0.255 C 
HETATM    2  N   UNL     1      -3.579   0.890  -0.830  1.00  0.00    -0.355 N 
HETATM    3  O   UNL     1      -2.790  -0.402  -2.558  1.00  0.00    -0.268 OA
HETATM    4  H   UNL     1      -3.971   0.902   0.103  1.00  0.00     0.162 HD
ENDROOT
BRANCH   1   5
HETATM    5  C   UNL     1      -3.926  -1.515  -0.827  1.00  0.00     0.077 A 
HETATM    6  C   UNL     1      -3.224  -2.733  -0.882  1.00  0.00     0.143 A 
HETATM    7  N   UNL     1      -3.739  -3.844  -0.299  1.00  0.00    -0.242 NA
HETATM    8  C   UNL     1      -4.945  -3.768   0.307  1.00  0.00     0.119 A 
HETATM    9  C   UNL     1      -5.697  -2.612   0.382  1.00  0.00     0.020 A 
HETATM   10  C   UNL     1      -5.178  -1.463  -0.198  1.00  0.00     0.022 A 
BRANCH   6  11
HETATM   11  N   UNL     1      -1.943  -2.773  -1.483  1.00  0.00    -0.340 N 
HETATM   12  H   UNL     1      -1.924  -2.147  -2.292  1.00  0.00     0.167 HD
BRANCH  11  13
HETATM   13  C   UNL     1      -0.984  -3.802  -1.558  1.00  0.00     0.036 A 
HETATM   14  C   UNL     1       0.052  -3.687  -2.496  1.00  0.00     0.071 A 
HETATM   15  C   UNL     1       1.056  -4.651  -2.569  1.00  0.00     0.118 A 
HETATM   16  C   UNL     1       1.072  -5.737  -1.707  1.00  0.00     0.042 A 
HETATM   17  F   UNL     1       2.027  -4.521  -3.483  1.00  0.00    -0.206 F 
HETATM   18  C   UNL     1       0.071  -5.854  -0.749  1.00  0.00     0.005 A 
HETATM   19  C   UNL     1      -0.940  -4.887  -0.671  1.00  0.00     0.029 A 
ENDBRANCH  11  13
ENDBRANCH   6  11
ENDBRANCH   1   5
BRANCH   2  20
HETATM   20  C   UNL     1      -3.103   2.148  -1.376  1.00  0.00     0.142 C 
BRANCH  20  21
HETATM   21  C   UNL     1      -4.023   2.686  -2.478  1.00  0.00     0.142 C 
BRANCH  21  22
HETATM   22  N   UNL     1      -3.572   3.951  -3.028  1.00  0.00    -0.355 N 
HETATM   23  C   UNL     1      -3.701   5.125  -2.316  1.00  0.00     0.251 C 
HETATM   24  O   UNL     1      -4.164   5.175  -1.183  1.00  0.00    -0.268 OA
HETATM   25  H   UNL     1      -3.336   3.972  -4.010  1.00  0.00     0.162 HD
BRANCH  23  26
HETATM   26  C   UNL     1      -3.273   6.375  -3.002  1.00  0.00     0.033 A 
HETATM   27  C   UNL     1      -3.861   7.582  -2.604  1.00  0.00     0.042 A 
HETATM   28  C   UNL     1      -3.490   8.784  -3.216  1.00  0.00     0.056 A 
HETATM   29 CL   UNL     1      -4.267  10.231  -2.683  1.00  0.00    -0.083 Cl
HETATM   30  C   UNL     1      -2.519   8.783  -4.224  1.00  0.00     0.055 A 
HETATM   31 CL   UNL     1      -2.012  10.226  -5.026  1.00  0.00    -0.083 Cl
HETATM   32  C   UNL     1      -1.919   7.580  -4.610  1.00  0.00     0.026 A 
HETATM   33  C   UNL     1      -2.289   6.378  -3.999  1.00  0.00     0.019 A 
ENDBRANCH  23  26
ENDBRANCH  21  22
ENDBRANCH  20  21
ENDBRANCH   2  20
TORSDOF 7
