REMARK  3 active torsions:
REMARK  status: ('A' for Active; 'I' for Inactive)
REMARK    1  A    between atoms: C_8  and  C_9 
REMARK    2  A    between atoms: C_16  and  O_17 
REMARK    3  A    between atoms: C_24  and  N_25 
ROOT
HETATM    1  C   UNL     1       0.083   2.348   1.983  1.00  0.00     0.073 C 
HETATM    2  C   UNL     1       1.235   1.433   1.796  1.00  0.00     0.062 A 
HETATM    3  N   UNL     1       1.255   0.232   2.399  1.00  0.00    -0.177 NA
HETATM    4  N   UNL     1       2.426  -0.316   2.014  1.00  0.00    -0.256 N 
HETATM    5  H   UNL     1       2.673  -1.236   2.359  1.00  0.00     0.191 HD
HETATM    6  C   UNL     1       3.135   0.492   1.186  1.00  0.00     0.175 A 
HETATM    7  C   UNL     1       2.396   1.633   1.013  1.00  0.00     0.034 A 
HETATM    8  C   UNL     1       2.919   2.740   0.160  1.00  0.00     0.106 A 
HETATM    9  C   UNL     1       4.310   2.387  -0.376  1.00  0.00     0.081 A 
HETATM   10  C   UNL     1       4.976   3.395  -1.132  1.00  0.00     0.100 C 
HETATM   11  N   UNL     1       5.528   4.210  -1.747  1.00  0.00    -0.191 NA
HETATM   12  C   UNL     1       4.926   1.200  -0.115  1.00  0.00     0.140 A 
HETATM   13  O   UNL     1       4.322   0.200   0.669  1.00  0.00    -0.279 OA
ENDROOT
BRANCH   8  14
HETATM   14  C   UNL     1       1.885   2.969  -0.948  1.00  0.00    -0.033 A 
HETATM   15  C   UNL     1       1.332   4.259  -1.222  1.00  0.00    -0.016 A 
HETATM   16  C   UNL     1       0.365   4.389  -2.261  1.00  0.00     0.008 A 
HETATM   17  C   UNL     1       1.694   5.441  -0.522  1.00  0.00     0.013 A 
HETATM   18  C   UNL     1      -0.189   5.663  -2.528  1.00  0.00     0.015 A 
HETATM   19  C   UNL     1      -0.028   3.256  -3.017  1.00  0.00     0.079 A 
HETATM   20  C   UNL     1       0.187   6.798  -1.816  1.00  0.00     0.001 A 
HETATM   21  C   UNL     1       1.132   6.687  -0.813  1.00  0.00     0.001 A 
HETATM   22  C   UNL     1       0.549   2.015  -2.764  1.00  0.00     0.038 A 
HETATM   23  C   UNL     1       1.495   1.877  -1.753  1.00  0.00     0.012 A 
BRANCH  19  24
HETATM   24  O   UNL     1      -0.972   3.469  -3.994  1.00  0.00    -0.355 OA
HETATM   25  C   UNL     1      -1.481   2.336  -4.685  1.00  0.00     0.210 C 
ENDBRANCH  19  24
ENDBRANCH   8  14
BRANCH  12  26
HETATM   26  N   UNL     1       6.177   0.837  -0.561  1.00  0.00    -0.282 NA
HETATM   27  H   UNL     1       6.502   1.313  -1.400  1.00  0.00     0.126 HD
HETATM   28  H   UNL     1       6.293  -0.172  -0.603  1.00  0.00     0.126 HD
ENDBRANCH  12  26
TORSDOF 3
