REMARK  6 active torsions:
REMARK  status: ('A' for Active; 'I' for Inactive)
REMARK    1  A    between atoms: C_4  and  C_5 
REMARK    2  A    between atoms: C_5  and  N_6 
REMARK    3  A    between atoms: C_5  and  C_10 
REMARK    4  A    between atoms: C_10  and  N_11 
REMARK       I    between atoms: N_11  and  C_12 
REMARK       I    between atoms: C_12  and  N_13 
REMARK    5  A    between atoms: N_13  and  C_14 
REMARK    6  A    between atoms: C_17  and  N_18 
ROOT
HETATM    1  N   UNL     1       8.302   1.929  -0.152  1.00  0.00    -0.340 N 
HETATM    2  C   UNL     1       9.365   1.053  -0.057  1.00  0.00     0.320 C 
HETATM    3  N   UNL     1      10.560   1.706  -0.216  1.00  0.00    -0.309 N 
HETATM    4  O   UNL     1       9.175  -0.137   0.158  1.00  0.00    -0.247 OA
HETATM    5  H   UNL     1       8.469   2.743  -0.731  1.00  0.00     0.164 HD
HETATM    6  H   UNL     1      10.530   2.713  -0.145  1.00  0.00     0.170 HD
ENDROOT
BRANCH   1   7
HETATM    7  C   UNL     1       6.943   1.403  -0.133  1.00  0.00     0.164 C 
BRANCH   7   8
HETATM    8  C   UNL     1       6.506   0.752   1.221  1.00  0.00     0.261 C 
BRANCH   8   9
HETATM    9  C   UNL     1       6.557   1.798   2.293  1.00  0.00     0.085 A 
HETATM   10  O   UNL     1       5.572   2.745   2.254  1.00  0.00    -0.318 OA
HETATM   11  C   UNL     1       5.809   3.605   3.284  1.00  0.00     0.049 A 
HETATM   12  C   UNL     1       4.884   4.750   3.421  1.00  0.00     0.076 C 
HETATM   13  C   UNL     1       6.913   3.194   4.001  1.00  0.00     0.035 A 
HETATM   14  C   UNL     1       7.397   2.028   3.361  1.00  0.00     0.037 A 
ENDBRANCH   8   9
BRANCH   8  15
HETATM   15  N   UNL     1       5.082   0.157   1.121  1.00  0.00    -0.067 N 
HETATM   16  H   UNL     1       4.461   0.966   0.986  1.00  0.00     0.280 HD
HETATM   17  C   UNL     1       4.897  -0.801  -0.020  1.00  0.00     0.270 C 
HETATM   18  C   UNL     1       4.654  -0.488   2.418  1.00  0.00     0.270 C 
ENDBRANCH   8  15
ENDBRANCH   7   8
ENDBRANCH   1   7
BRANCH   3  19
HETATM   19  C   UNL     1      11.840   1.137  -0.364  1.00  0.00     0.036 A 
HETATM   20  C   UNL     1      12.076  -0.230  -0.493  1.00  0.00     0.032 A 
HETATM   21  C   UNL     1      13.377  -0.718  -0.698  1.00  0.00     0.032 A 
HETATM   22  C   UNL     1      14.466   0.156  -0.772  1.00  0.00     0.040 A 
HETATM   23  C   UNL     1      14.225   1.531  -0.639  1.00  0.00     0.032 A 
HETATM   24  C   UNL     1      12.926   2.013  -0.434  1.00  0.00     0.032 A 
BRANCH  22  25
HETATM   25  N   UNL     1      15.794  -0.311  -1.026  1.00  0.00    -0.309 N 
HETATM   26  C   UNL     1      16.359  -1.572  -0.823  1.00  0.00     0.106 A 
HETATM   27  C   UNL     1      15.731  -2.711  -0.105  1.00  0.00     0.091 C 
HETATM   28  N   UNL     1      17.601  -1.619  -1.270  1.00  0.00    -0.246 NA
HETATM   29  C   UNL     1      17.889  -0.370  -1.725  1.00  0.00     0.136 A 
HETATM   30  C   UNL     1      16.810   0.459  -1.563  1.00  0.00     0.118 A 
ENDBRANCH  22  25
ENDBRANCH   3  19
TORSDOF 6
