REMARK  9 active torsions:
REMARK  status: ('A' for Active; 'I' for Inactive)
REMARK       I    between atoms: C_2  and  N_3 
REMARK    1  A    between atoms: N_3  and  C_4 
REMARK    2  A    between atoms: C_6  and  O_7 
REMARK    3  A    between atoms: O_7  and  C_8 
REMARK    4  A    between atoms: C_8  and  C_9 
REMARK    5  A    between atoms: C_9  and  C_10 
REMARK    6  A    between atoms: C_10  and  C_11 
REMARK    7  A    between atoms: C_11  and  N_12 
REMARK       I    between atoms: N_12  and  C_13 
REMARK    8  A    between atoms: C_13  and  C_14 
REMARK    9  A    between atoms: C_18  and  C_19 
ROOT
HETATM    1  C   UNL     1      -1.432  -6.389   6.209  1.00  0.00     0.217 C 
ENDROOT
BRANCH   1   2
HETATM    2  C   UNL     1      -0.631  -5.314   5.492  1.00  0.00    -0.085 C 
BRANCH   2   3
HETATM    3  C   UNL     1       0.055  -4.392   4.877  1.00  0.00    -0.078 C 
BRANCH   3   4
HETATM    4  C   UNL     1       0.855  -3.317   4.160  1.00  0.00     0.269 C 
BRANCH   4   5
HETATM    5  O   UNL     1       0.655  -2.055   4.789  1.00  0.00    -0.339 OA
BRANCH   5   6
HETATM    6  C   UNL     1       1.266  -0.985   4.185  1.00  0.00     0.072 A 
HETATM    7  C   UNL     1       2.046  -1.035   3.022  1.00  0.00     0.066 A 
HETATM    8  C   UNL     1       2.609   0.127   2.484  1.00  0.00     0.037 A 
HETATM    9  C   UNL     1       2.394   1.348   3.134  1.00  0.00     0.029 A 
HETATM   10  C   UNL     1       1.623   1.406   4.296  1.00  0.00     0.005 A 
HETATM   11  C   UNL     1       1.060   0.242   4.817  1.00  0.00     0.037 A 
BRANCH   8  12
HETATM   12  N   UNL     1       3.392   0.148   1.308  1.00  0.00    -0.327 N 
HETATM   13  C   UNL     1       3.708  -0.919   0.486  1.00  0.00     0.218 C 
HETATM   14  C   UNL     1       4.558  -0.513  -0.693  1.00  0.00     0.117 C 
HETATM   15  O   UNL     1       3.345  -2.084   0.618  1.00  0.00    -0.274 OA
HETATM   16  H   UNL     1       3.743   1.056   1.031  1.00  0.00     0.169 HD
ENDBRANCH   8  12
ENDBRANCH   5   6
ENDBRANCH   4   5
ENDBRANCH   3   4
ENDBRANCH   2   3
ENDBRANCH   1   2
BRANCH   1  17
HETATM   17  N   UNL     1      -2.507  -6.806   5.348  1.00  0.00    -0.345 N 
HETATM   18  C   UNL     1      -3.572  -7.521   5.830  1.00  0.00     0.270 C 
HETATM   19  O   UNL     1      -3.696  -7.806   7.017  1.00  0.00    -0.266 OA
HETATM   20  H   UNL     1      -2.390  -6.686   4.354  1.00  0.00     0.163 HD
BRANCH  18  21
HETATM   21  C   UNL     1      -4.535  -7.924   4.841  1.00  0.00     0.120 A 
HETATM   22  N   UNL     1      -5.642  -8.653   5.173  1.00  0.00    -0.272 N 
HETATM   23  H   UNL     1      -5.904  -8.970   6.102  1.00  0.00     0.189 HD
HETATM   24  N   UNL     1      -6.427  -8.969   4.133  1.00  0.00    -0.174 NA
HETATM   25  C   UNL     1      -5.830  -8.406   3.071  1.00  0.00     0.089 A 
HETATM   26  C   UNL     1      -4.639  -7.738   3.476  1.00  0.00     0.071 A 
BRANCH  25  27
HETATM   27  C   UNL     1      -6.386  -8.524   1.718  1.00  0.00    -0.006 A 
HETATM   28  C   UNL     1      -5.960  -7.683   0.679  1.00  0.00     0.014 A 
HETATM   29  C   UNL     1      -6.487  -7.815  -0.610  1.00  0.00     0.001 A 
HETATM   30  C   UNL     1      -7.447  -8.789  -0.876  1.00  0.00     0.000 A 
HETATM   31  C   UNL     1      -7.885  -9.628   0.145  1.00  0.00     0.001 A 
HETATM   32  C   UNL     1      -7.360  -9.495   1.433  1.00  0.00     0.014 A 
ENDBRANCH  25  27
ENDBRANCH  18  21
ENDBRANCH   1  17
TORSDOF 9
