REMARK  4 active torsions:
REMARK  status: ('A' for Active; 'I' for Inactive)
REMARK    1  A    between atoms: C_3  and  N_4 
REMARK       I    between atoms: N_4  and  C_5 
REMARK    2  A    between atoms: C_5  and  C_6 
REMARK    3  A    between atoms: C_7  and  C_8 
REMARK    4  A    between atoms: C_16  and  C_17 
ROOT
HETATM    1  C   UNL     1      -0.699  -1.204   0.126  1.00  0.00     0.003 A 
HETATM    2  C   UNL     1       0.688  -1.256  -0.014  1.00  0.00     0.029 A 
HETATM    3  C   UNL     1       1.445  -0.087   0.057  1.00  0.00     0.035 A 
HETATM    4  C   UNL     1       0.794   1.138   0.273  1.00  0.00     0.042 A 
HETATM    5  C   UNL     1      -0.606   1.211   0.377  1.00  0.00    -0.021 A 
HETATM    6  C   UNL     1      -1.342   0.020   0.316  1.00  0.00     0.012 A 
ENDROOT
BRANCH   3   7
HETATM    7  N   UNL     1       2.850  -0.070  -0.061  1.00  0.00    -0.327 N 
HETATM    8  C   UNL     1       3.642  -1.067  -0.599  1.00  0.00     0.227 C 
HETATM    9  O   UNL     1       3.257  -2.084  -1.158  1.00  0.00    -0.273 OA
HETATM   10  H   UNL     1       3.310   0.797   0.181  1.00  0.00     0.169 HD
BRANCH   8  11
HETATM   11  C   UNL     1       5.097  -0.738  -0.542  1.00  0.00     0.089 A 
HETATM   12  C   UNL     1       6.056  -1.446   0.403  1.00  0.00     0.057 A 
HETATM   13  C   UNL     1       6.130  -1.672  -1.093  1.00  0.00     0.027 A 
BRANCH  12  14
HETATM   14  C   UNL     1       5.639  -2.640   1.243  1.00  0.00     0.057 A 
HETATM   15  O   UNL     1       4.760  -3.604   0.854  1.00  0.00    -0.327 OA
HETATM   16  C   UNL     1       4.690  -4.515   1.855  1.00  0.00     0.142 A 
HETATM   17  C   UNL     1       5.516  -4.153   2.892  1.00  0.00     0.027 A 
HETATM   18  C   UNL     1       6.130  -2.938   2.498  1.00  0.00     0.035 A 
ENDBRANCH  12  14
ENDBRANCH   8  11
ENDBRANCH   3   7
BRANCH   5  19
HETATM   19  C   UNL     1      -1.266   2.502   0.522  1.00  0.00     0.010 A 
HETATM   20  C   UNL     1      -0.762   3.766   0.918  1.00  0.00     0.152 A 
HETATM   21  N   UNL     1      -1.687   4.730   0.888  1.00  0.00    -0.187 NA
HETATM   22  N   UNL     1      -2.790   4.091   0.469  1.00  0.00    -0.289 N 
HETATM   23  H   UNL     1      -3.644   4.628   0.357  1.00  0.00     0.188 HD
HETATM   24  C   UNL     1      -2.591   2.761   0.234  1.00  0.00     0.123 A 
ENDBRANCH   5  19
TORSDOF 4
