REMARK  5 active torsions:
REMARK  status: ('A' for Active; 'I' for Inactive)
REMARK    1  A    between atoms: C_2  and  C_3 
REMARK    2  A    between atoms: C_8  and  C_9 
REMARK       I    between atoms: C_9  and  N_10 
REMARK    3  A    between atoms: N_10  and  C_11 
REMARK    4  A    between atoms: C_11  and  C_12 
REMARK    5  A    between atoms: C_19  and  C_20 
ROOT
HETATM    1  C   UNL     1      -2.869  -0.029  -0.205  1.00  0.00     0.118 C 
HETATM    2  N   UNL     1      -3.361   1.014  -1.096  1.00  0.00    -0.366 N 
HETATM    3  C   UNL     1      -3.965   0.748  -2.272  1.00  0.00     0.123 A 
HETATM    4  N   UNL     1      -4.162  -0.531  -2.709  1.00  0.00    -0.240 N 
HETATM    5  N   UNL     1      -4.844  -0.616  -3.864  1.00  0.00    -0.165 NA
HETATM    6  C   UNL     1      -5.032   0.676  -4.217  1.00  0.00     0.148 A 
HETATM    7  C   UNL     1      -4.495   1.559  -3.239  1.00  0.00     0.088 A 
HETATM    8  C   UNL     1      -3.754  -1.711  -1.974  1.00  0.00     0.221 C 
HETATM    9  C   UNL     1      -3.571  -1.372  -0.483  1.00  0.00     0.066 C 
HETATM   10  H   UNL     1      -3.176   1.973  -0.803  1.00  0.00     0.161 HD
ENDROOT
BRANCH   6  11
HETATM   11  C   UNL     1      -5.730   1.066  -5.452  1.00  0.00     0.272 C 
HETATM   12  N   UNL     1      -6.095   0.000  -6.243  1.00  0.00    -0.353 N 
HETATM   13  H   UNL     1      -5.974  -0.921  -5.826  1.00  0.00     0.162 HD
HETATM   14  O   UNL     1      -5.971   2.236  -5.736  1.00  0.00    -0.266 OA
BRANCH  12  15
HETATM   15  C   UNL     1      -6.991   0.147  -7.370  1.00  0.00     0.155 C 
BRANCH  15  16
HETATM   16  C   UNL     1      -6.837  -1.000  -8.366  1.00  0.00     0.139 C 
HETATM   17  O   UNL     1      -7.206  -2.254  -7.755  1.00  0.00    -0.384 OA
HETATM   18  C   UNL     1      -7.918  -3.038  -8.726  1.00  0.00     0.168 C 
HETATM   19  C   UNL     1      -7.855  -2.287 -10.040  1.00  0.00     0.029 C 
HETATM   20  C   UNL     1      -7.736  -0.855  -9.582  1.00  0.00     0.035 C 
ENDBRANCH  15  16
ENDBRANCH  12  15
ENDBRANCH   6  11
BRANCH   8  21
HETATM   21  C   UNL     1      -2.534  -2.331  -2.617  1.00  0.00     0.409 C 
HETATM   22  F   UNL     1      -1.521  -1.466  -2.810  1.00  0.00    -0.169 F 
HETATM   23  F   UNL     1      -2.056  -3.333  -1.835  1.00  0.00    -0.169 F 
HETATM   24  F   UNL     1      -2.821  -2.891  -3.814  1.00  0.00    -0.169 F 
ENDBRANCH   8  21
BRANCH   1  25
HETATM   25  C   UNL     1      -1.350  -0.090  -0.165  1.00  0.00    -0.034 A 
HETATM   26  C   UNL     1      -0.533   0.537  -1.119  1.00  0.00     0.011 A 
HETATM   27  C   UNL     1       0.861   0.469  -1.032  1.00  0.00     0.026 A 
HETATM   28  C   UNL     1       1.470  -0.217   0.019  1.00  0.00     0.055 A 
HETATM   29  C   UNL     1       0.676  -0.839   0.985  1.00  0.00     0.056 A 
HETATM   30 CL   UNL     1       3.195  -0.253   0.068  1.00  0.00    -0.083 Cl
HETATM   31  C   UNL     1      -0.720  -0.775   0.891  1.00  0.00     0.034 A 
HETATM   32 CL   UNL     1       1.349  -1.696   2.327  1.00  0.00    -0.083 Cl
ENDBRANCH   1  25
TORSDOF 5
