REMARK  5 active torsions:
REMARK  status: ('A' for Active; 'I' for Inactive)
REMARK    1  A    between atoms: C_2  and  C_3 
REMARK    2  A    between atoms: N_4  and  C_6 
REMARK    3  A    between atoms: C_6  and  C_7 
REMARK    4  A    between atoms: N_14  and  C_16 
REMARK    5  A    between atoms: C_16  and  C_17 
ROOT
HETATM    1  C   UNL     1       3.324   3.131   1.754  1.00  0.00    -0.032 A 
HETATM    2  C   UNL     1       1.923   3.039   1.600  1.00  0.00     0.020 A 
HETATM    3  C   UNL     1       1.122   4.189   1.445  1.00  0.00     0.002 A 
HETATM    4  C   UNL     1       1.748   5.436   1.453  1.00  0.00     0.076 A 
HETATM    5  O   UNL     1       1.023   6.589   1.368  1.00  0.00    -0.349 OA
HETATM    6  C   UNL     1       0.481   6.785   0.056  1.00  0.00     0.203 C 
HETATM    7  C   UNL     1      -0.915   6.168  -0.061  1.00  0.00     0.262 C 
HETATM    8  N   UNL     1      -0.906   4.644  -0.027  1.00  0.00    -0.061 N 
HETATM    9  H   UNL     1      -1.900   4.387  -0.041  1.00  0.00     0.280 HD
HETATM   10  C   UNL     1      -0.373   4.094   1.282  1.00  0.00     0.276 C 
HETATM   11  C   UNL     1       3.127   5.550   1.609  1.00  0.00     0.038 A 
HETATM   12  C   UNL     1       3.915   4.404   1.731  1.00  0.00     0.011 A 
ENDROOT
BRANCH   1  13
HETATM   13  C   UNL     1       4.158   1.870   1.866  1.00  0.00     0.274 C 
BRANCH  13  14
HETATM   14  N   UNL     1       5.224   1.885   2.930  1.00  0.00    -0.053 N 
HETATM   15  C   UNL     1       6.290   0.757   2.769  1.00  0.00     0.279 C 
HETATM   16  C   UNL     1       7.412   0.910   3.820  1.00  0.00     0.248 C 
HETATM   17  N   UNL     1       7.040   1.349   5.066  1.00  0.00    -0.358 N 
HETATM   18  O   UNL     1       8.572   0.596   3.589  1.00  0.00    -0.271 OA
HETATM   19  C   UNL     1       5.882   2.191   5.312  1.00  0.00     0.150 C 
HETATM   20  H   UNL     1       7.826   1.419   5.712  1.00  0.00     0.162 HD
HETATM   21  C   UNL     1       4.705   1.946   4.358  1.00  0.00     0.256 C 
HETATM   22  H   UNL     1       5.770   2.742   2.789  1.00  0.00     0.281 HD
BRANCH  15  23
HETATM   23  C   UNL     1       5.644  -0.635   2.863  1.00  0.00     0.038 C 
HETATM   24  C   UNL     1       6.604  -1.752   2.467  1.00  0.00     0.007 C 
ENDBRANCH  15  23
ENDBRANCH  13  14
ENDBRANCH   1  13
BRANCH   8  25
HETATM   25  C   UNL     1      -0.300   3.967  -1.235  1.00  0.00     0.274 C 
BRANCH  25  26
HETATM   26  C   UNL     1      -0.975   4.297  -2.538  1.00  0.00    -0.029 A 
HETATM   27  C   UNL     1      -2.259   3.807  -2.824  1.00  0.00     0.054 A 
HETATM   28  C   UNL     1      -2.870   4.113  -4.041  1.00  0.00     0.155 A 
HETATM   29  F   UNL     1      -4.094   3.633  -4.287  1.00  0.00    -0.203 F 
HETATM   30  C   UNL     1      -2.219   4.900  -4.979  1.00  0.00     0.154 A 
HETATM   31  F   UNL     1      -2.807   5.191  -6.145  1.00  0.00    -0.203 F 
HETATM   32  C   UNL     1      -0.946   5.393  -4.714  1.00  0.00     0.046 A 
HETATM   33  C   UNL     1      -0.324   5.094  -3.498  1.00  0.00     0.012 A 
ENDBRANCH  25  26
ENDBRANCH   8  25
TORSDOF 5
