REMARK  6 active torsions:
REMARK  status: ('A' for Active; 'I' for Inactive)
REMARK    1  A    between atoms: O_2  and  C_3 
REMARK    2  A    between atoms: C_6  and  C_7 
REMARK    3  A    between atoms: C_13  and  C_14 
REMARK       I    between atoms: C_14  and  N_15 
REMARK    4  A    between atoms: N_15  and  C_16 
REMARK    5  A    between atoms: C_16  and  C_17 
REMARK    6  A    between atoms: C_24  and  C_25 
ROOT
HETATM    1  C   UNL     1       4.289   4.207  -3.737  1.00  0.00     0.118 C 
HETATM    2  N   UNL     1       3.543   3.879  -4.958  1.00  0.00    -0.365 N 
HETATM    3  C   UNL     1       3.249   4.831  -5.882  1.00  0.00     0.138 A 
HETATM    4  N   UNL     1       3.467   6.162  -5.601  1.00  0.00    -0.240 N 
HETATM    5  N   UNL     1       3.166   6.986  -6.614  1.00  0.00    -0.181 NA
HETATM    6  C   UNL     1       2.650   6.166  -7.532  1.00  0.00     0.160 A 
HETATM    7  C   UNL     1       2.685   4.803  -7.145  1.00  0.00     0.096 A 
HETATM    8  C   UNL     1       3.980   6.656  -4.336  1.00  0.00     0.221 C 
HETATM    9  C   UNL     1       3.798   5.580  -3.247  1.00  0.00     0.066 C 
HETATM   10  H   UNL     1       3.125   2.951  -4.980  1.00  0.00     0.161 HD
ENDROOT
BRANCH   7  11
HETATM   11  C   UNL     1       2.217   3.691  -7.948  1.00  0.00     0.257 C 
HETATM   12  N   UNL     1       2.755   2.469  -7.623  1.00  0.00    -0.352 N 
HETATM   13  H   UNL     1       3.508   2.442  -6.951  1.00  0.00     0.163 HD
HETATM   14  O   UNL     1       1.424   3.852  -8.868  1.00  0.00    -0.267 OA
BRANCH  12  15
HETATM   15  C   UNL     1       2.414   1.264  -8.341  1.00  0.00     0.161 C 
BRANCH  15  16
HETATM   16  C   UNL     1       3.623   0.543  -8.885  1.00  0.00    -0.041 A 
HETATM   17  C   UNL     1       3.637  -0.860  -8.918  1.00  0.00     0.009 A 
HETATM   18  C   UNL     1       4.716  -1.550  -9.473  1.00  0.00     0.001 A 
HETATM   19  C   UNL     1       5.793  -0.847 -10.007  1.00  0.00     0.000 A 
HETATM   20  C   UNL     1       5.787   0.546  -9.995  1.00  0.00     0.001 A 
HETATM   21  C   UNL     1       4.705   1.238  -9.446  1.00  0.00     0.009 A 
ENDBRANCH  15  16
ENDBRANCH  12  15
ENDBRANCH   7  11
BRANCH   1  22
HETATM   22  C   UNL     1       5.798   4.089  -3.946  1.00  0.00    -0.035 A 
HETATM   23  C   UNL     1       6.711   4.727  -3.088  1.00  0.00     0.012 A 
HETATM   24  C   UNL     1       8.096   4.609  -3.270  1.00  0.00     0.037 A 
HETATM   25  C   UNL     1       8.605   3.826  -4.303  1.00  0.00     0.068 A 
HETATM   26  C   UNL     1       7.716   3.153  -5.137  1.00  0.00     0.037 A 
HETATM   27  C   UNL     1       6.334   3.277  -4.960  1.00  0.00     0.012 A 
BRANCH  25  28
HETATM   28  O   UNL     1       9.926   3.627  -4.588  1.00  0.00    -0.356 OA
HETATM   29  C   UNL     1      10.867   4.389  -3.842  1.00  0.00     0.210 C 
ENDBRANCH  25  28
ENDBRANCH   1  22
BRANCH   8  30
HETATM   30  C   UNL     1       3.295   7.932  -3.892  1.00  0.00     0.409 C 
HETATM   31  F   UNL     1       1.956   7.787  -3.765  1.00  0.00    -0.169 F 
HETATM   32  F   UNL     1       3.759   8.284  -2.659  1.00  0.00    -0.169 F 
HETATM   33  F   UNL     1       3.539   8.989  -4.693  1.00  0.00    -0.169 F 
ENDBRANCH   8  30
TORSDOF 6
