REMARK  6 active torsions:
REMARK  status: ('A' for Active; 'I' for Inactive)
REMARK    1  A    between atoms: C_2  and  O_3 
REMARK    2  A    between atoms: O_3  and  C_4 
REMARK    3  A    between atoms: C_5  and  C_6 
REMARK    4  A    between atoms: N_7  and  N_8 
REMARK       I    between atoms: N_8  and  C_9 
REMARK    5  A    between atoms: C_9  and  C_10 
REMARK    6  A    between atoms: C_14  and  C_15 
ROOT
HETATM    1  C   UNL     1       5.580   7.526  -1.358  1.00  0.00     0.121 A 
HETATM    2  N   UNL     1       6.252   8.639  -1.783  1.00  0.00    -0.272 N 
HETATM    3  H   UNL     1       5.846   9.540  -2.020  1.00  0.00     0.189 HD
HETATM    4  N   UNL     1       7.577   8.469  -1.911  1.00  0.00    -0.174 NA
HETATM    5  C   UNL     1       7.786   7.188  -1.570  1.00  0.00     0.090 A 
HETATM    6  C   UNL     1       6.568   6.582  -1.156  1.00  0.00     0.071 A 
ENDROOT
BRANCH   1   7
HETATM    7  C   UNL     1       4.140   7.514  -1.235  1.00  0.00     0.289 C 
HETATM    8  N   UNL     1       3.620   6.278  -0.875  1.00  0.00    -0.242 N 
HETATM    9  H   UNL     1       4.270   5.523  -0.695  1.00  0.00     0.192 HD
HETATM   10  O   UNL     1       3.494   8.528  -1.469  1.00  0.00    -0.264 OA
BRANCH   8  11
HETATM   11  N   UNL     1       2.319   5.851  -0.849  1.00  0.00    -0.183 NA
HETATM   12  C   UNL     1       1.336   6.659  -1.089  1.00  0.00     0.153 C 
BRANCH  12  13
HETATM   13  C   UNL     1      -0.064   6.161  -1.115  1.00  0.00     0.016 A 
HETATM   14  C   UNL     1      -1.129   7.039  -1.383  1.00  0.00     0.080 A 
HETATM   15  C   UNL     1      -2.431   6.526  -1.429  1.00  0.00     0.037 A 
HETATM   16  C   UNL     1      -2.669   5.165  -1.206  1.00  0.00     0.003 A 
HETATM   17  C   UNL     1      -1.611   4.303  -0.934  1.00  0.00     0.001 A 
HETATM   18  C   UNL     1      -0.310   4.798  -0.889  1.00  0.00     0.016 A 
BRANCH  14  19
HETATM   19  O   UNL     1      -0.811   8.355  -1.592  1.00  0.00    -0.351 OA
BRANCH  19  20
HETATM   20  C   UNL     1      -1.880   9.284  -1.762  1.00  0.00     0.171 C 
HETATM   21  C   UNL     1      -1.277  10.671  -1.882  1.00  0.00     0.034 C 
ENDBRANCH  19  20
ENDBRANCH  14  19
ENDBRANCH  12  13
ENDBRANCH   8  11
ENDBRANCH   1   7
BRANCH   5  22
HETATM   22  C   UNL     1       9.118   6.584  -1.614  1.00  0.00     0.005 A 
HETATM   23  C   UNL     1       9.339   5.272  -2.133  1.00  0.00    -0.012 A 
HETATM   24  C   UNL     1      10.629   4.808  -2.052  1.00  0.00    -0.012 A 
HETATM   25  C   UNL     1       8.423   4.375  -2.746  1.00  0.00     0.013 A 
HETATM   26  C   UNL     1      11.040   3.561  -2.487  1.00  0.00    -0.046 A 
HETATM   27  C   UNL     1      11.689   5.533  -1.541  1.00  0.00    -0.046 A 
HETATM   28  C   UNL     1      10.152   2.664  -3.061  1.00  0.00     0.008 A 
HETATM   29  C   UNL     1      12.500   3.385  -2.254  1.00  0.00     0.044 A 
HETATM   30  C   UNL     1       8.827   3.100  -3.190  1.00  0.00     0.001 A 
HETATM   31  C   UNL     1      12.947   4.738  -1.620  1.00  0.00     0.044 A 
HETATM   32  C   UNL     1      11.518   6.821  -1.060  1.00  0.00     0.009 A 
HETATM   33  C   UNL     1      10.211   7.332  -1.105  1.00  0.00     0.015 A 
ENDBRANCH   5  22
TORSDOF 6
