REMARK  6 active torsions:
REMARK  status: ('A' for Active; 'I' for Inactive)
REMARK    1  A    between atoms: C_2  and  C_3 
REMARK    2  A    between atoms: C_2  and  C_9 
REMARK    3  A    between atoms: C_9  and  C_10 
REMARK    4  A    between atoms: C_10  and  C_11 
REMARK       I    between atoms: C_11  and  N_12 
REMARK    5  A    between atoms: N_12  and  C_13 
REMARK    6  A    between atoms: C_20  and  C_21 
REMARK       I    between atoms: C_21  and  N_22 
ROOT
HETATM    1  C   UNL     1       5.254  -3.384   4.213  1.00  0.00     0.035 A 
HETATM    2  C   UNL     1       5.810  -2.971   5.436  1.00  0.00     0.046 A 
HETATM    3  C   UNL     1       6.052  -3.918   6.453  1.00  0.00     0.030 A 
HETATM    4  C   UNL     1       5.730  -5.248   6.218  1.00  0.00     0.063 A 
HETATM    5  N   UNL     1       6.075  -5.913   7.361  1.00  0.00    -0.277 N 
HETATM    6  H   UNL     1       5.982  -6.906   7.544  1.00  0.00     0.189 HD
HETATM    7  N   UNL     1       6.593  -5.132   8.324  1.00  0.00    -0.168 NA
HETATM    8  C   UNL     1       6.583  -3.895   7.777  1.00  0.00     0.156 A 
HETATM    9  C   UNL     1       5.175  -5.694   5.018  1.00  0.00     0.034 A 
HETATM   10  C   UNL     1       4.944  -4.734   4.022  1.00  0.00     0.032 A 
ENDROOT
BRANCH   1  11
HETATM   11  N   UNL     1       5.052  -2.386   3.234  1.00  0.00    -0.327 N 
HETATM   12  C   UNL     1       4.490  -2.540   1.981  1.00  0.00     0.222 C 
HETATM   13  O   UNL     1       4.024  -3.573   1.510  1.00  0.00    -0.273 OA
HETATM   14  H   UNL     1       5.339  -1.450   3.496  1.00  0.00     0.169 HD
BRANCH  12  15
HETATM   15  C   UNL     1       4.492  -1.257   1.166  1.00  0.00     0.103 C 
BRANCH  15  16
HETATM   16  C   UNL     1       3.090  -0.915   0.654  1.00  0.00     0.018 C 
BRANCH  16  17
HETATM   17  C   UNL     1       2.106  -0.507   1.773  1.00  0.00     0.015 C 
HETATM   18  C   UNL     1       0.693  -0.332   1.204  1.00  0.00     0.015 C 
BRANCH  17  19
HETATM   19  C   UNL     1       2.543   0.751   2.508  1.00  0.00    -0.054 A 
HETATM   20  C   UNL     1       2.744   1.965   1.832  1.00  0.00     0.007 A 
HETATM   21  C   UNL     1       3.153   3.106   2.524  1.00  0.00     0.001 A 
HETATM   22  C   UNL     1       3.363   3.051   3.899  1.00  0.00     0.000 A 
HETATM   23  C   UNL     1       3.161   1.855   4.585  1.00  0.00     0.001 A 
HETATM   24  C   UNL     1       2.753   0.712   3.895  1.00  0.00     0.007 A 
ENDBRANCH  17  19
ENDBRANCH  16  17
ENDBRANCH  15  16
ENDBRANCH  12  15
ENDBRANCH   1  11
BRANCH   8  25
HETATM   25  C   UNL     1       7.076  -2.726   8.516  1.00  0.00     0.270 C 
HETATM   26  N   UNL     1       7.539  -3.013   9.771  1.00  0.00    -0.365 N 
HETATM   27  H   UNL     1       7.511  -3.974  10.090  1.00  0.00     0.159 HD
HETATM   28  H   UNL     1       7.900  -2.275  10.355  1.00  0.00     0.159 HD
HETATM   29  O   UNL     1       7.086  -1.581   8.076  1.00  0.00    -0.266 OA
ENDBRANCH   8  25
TORSDOF 6
