REMARK  4 active torsions:
REMARK  status: ('A' for Active; 'I' for Inactive)
REMARK    1  A    between atoms: C_5  and  C_6 
REMARK    2  A    between atoms: C_6  and  N_7 
REMARK    3  A    between atoms: C_6  and  C_18 
REMARK    4  A    between atoms: N_7  and  C_8 
ROOT
HETATM    1  C   UNL     1       1.363   2.621  -0.030  1.00  0.00     0.290 C 
ENDROOT
BRANCH   1   2
HETATM    2  C   UNL     1       0.225   1.628   0.215  1.00  0.00     0.021 A 
HETATM    3  C   UNL     1      -0.211   1.299   1.513  1.00  0.00     0.055 A 
HETATM    4  C   UNL     1      -1.289   0.436   1.713  1.00  0.00     0.117 A 
HETATM    5  C   UNL     1      -1.994  -0.095   0.644  1.00  0.00     0.045 A 
HETATM    6  F   UNL     1      -1.654   0.125   2.963  1.00  0.00    -0.206 F 
HETATM    7  C   UNL     1      -1.622   0.257  -0.648  1.00  0.00     0.046 A 
HETATM    8  C   UNL     1      -0.538   1.116  -0.852  1.00  0.00     0.125 A 
HETATM    9  F   UNL     1      -0.248   1.439  -2.120  1.00  0.00    -0.205 F 
ENDBRANCH   1   2
BRANCH   1  10
HETATM   10  N   UNL     1       2.107   2.452  -1.300  1.00  0.00     0.101 NA
HETATM   11  H   UNL     1       2.496   3.368  -1.530  1.00  0.00     0.317 HD
BRANCH  10  12
HETATM   12  C   UNL     1       3.150   1.429  -1.405  1.00  0.00     0.225 C 
HETATM   13  C   UNL     1       2.620  -0.015  -1.298  1.00  0.00     0.069 C 
HETATM   14  C   UNL     1       3.746  -0.999  -1.552  1.00  0.00     0.190 C 
HETATM   15  N   UNL     1       4.294  -0.752  -2.930  1.00  0.00    -0.067 N 
HETATM   16  C   UNL     1       3.374  -2.464  -1.640  1.00  0.00     0.035 C 
HETATM   17  H   UNL     1       3.504  -0.779  -3.593  1.00  0.00     0.280 HD
HETATM   18  C   UNL     1       4.926   0.594  -3.054  1.00  0.00     0.237 C 
HETATM   19  C   UNL     1       5.148  -1.951  -3.247  1.00  0.00     0.235 C 
HETATM   20  C   UNL     1       3.857   1.645  -2.767  1.00  0.00     0.063 C 
HETATM   21  C   UNL     1       4.563  -3.070  -2.384  1.00  0.00     0.030 C 
ENDBRANCH  10  12
ENDBRANCH   1  10
BRANCH   1  22
HETATM   22  C   UNL     1       2.321   2.923   1.124  1.00  0.00    -0.018 A 
HETATM   23  C   UNL     1       2.670   4.255   1.397  1.00  0.00     0.029 A 
HETATM   24  C   UNL     1       3.582   4.520   2.407  1.00  0.00     0.116 A 
HETATM   25  N   UNL     1       4.171   3.563   3.150  1.00  0.00    -0.273 NA
HETATM   26  C   UNL     1       3.825   2.288   2.890  1.00  0.00     0.116 A 
HETATM   27  C   UNL     1       2.928   1.923   1.897  1.00  0.00     0.029 A 
ENDBRANCH   1  22
TORSDOF 4
