REMARK  8 active torsions:
REMARK  status: ('A' for Active; 'I' for Inactive)
REMARK    1  A    between atoms: C_5  and  O_6 
REMARK    2  A    between atoms: O_6  and  C_7 
REMARK    3  A    between atoms: C_7  and  C_8 
REMARK    4  A    between atoms: C_8  and  C_9 
REMARK    5  A    between atoms: C_9  and  C_10 
REMARK    6  A    between atoms: C_10  and  N_11 
REMARK       I    between atoms: N_11  and  C_12 
REMARK    7  A    between atoms: C_12  and  C_13 
REMARK    8  A    between atoms: C_17  and  C_18 
ROOT
HETATM    1  N   UNL     1      12.311   1.422  -1.835  1.00  0.00    -0.345 N 
HETATM    2  C   UNL     1      13.670   1.408  -2.024  1.00  0.00     0.270 C 
HETATM    3  O   UNL     1      14.337   0.381  -1.948  1.00  0.00    -0.266 OA
HETATM    4  H   UNL     1      11.787   2.268  -1.991  1.00  0.00     0.163 HD
ENDROOT
BRANCH   2   5
HETATM    5  C   UNL     1      14.259   2.684  -2.322  1.00  0.00     0.120 A 
HETATM    6  N   UNL     1      15.602   2.824  -2.533  1.00  0.00    -0.272 N 
HETATM    7  H   UNL     1      16.300   2.087  -2.511  1.00  0.00     0.189 HD
HETATM    8  N   UNL     1      15.993   4.083  -2.781  1.00  0.00    -0.174 NA
HETATM    9  C   UNL     1      14.861   4.804  -2.746  1.00  0.00     0.089 A 
HETATM   10  C   UNL     1      13.751   3.961  -2.458  1.00  0.00     0.071 A 
BRANCH   9  11
HETATM   11  C   UNL     1      14.860   6.253  -2.972  1.00  0.00    -0.003 A 
HETATM   12  C   UNL     1      13.672   6.927  -3.299  1.00  0.00     0.053 A 
HETATM   13  C   UNL     1      13.727   8.293  -3.489  1.00  0.00     0.106 A 
HETATM   14  C   UNL     1      14.900   8.999  -3.368  1.00  0.00     0.105 A 
HETATM   15  O   UNL     1      12.672   9.090  -3.808  1.00  0.00    -0.323 OA
HETATM   16  O   UNL     1      14.732  10.329  -3.594  1.00  0.00    -0.323 OA
HETATM   17  C   UNL     1      16.087   8.378  -3.054  1.00  0.00     0.040 A 
HETATM   18  C   UNL     1      13.318  10.379  -3.877  1.00  0.00     0.352 A 
HETATM   19  C   UNL     1      16.062   6.992  -2.857  1.00  0.00     0.017 A 
ENDBRANCH   9  11
ENDBRANCH   2   5
BRANCH   1  20
HETATM   20  C   UNL     1      11.588   0.205  -1.579  1.00  0.00     0.217 C 
BRANCH  20  21
HETATM   21  C   UNL     1      10.192   0.516  -1.267  1.00  0.00    -0.085 C 
BRANCH  21  22
HETATM   22  C   UNL     1       8.945   0.772  -0.985  1.00  0.00    -0.078 C 
BRANCH  22  23
HETATM   23  C   UNL     1       7.492   1.070  -0.655  1.00  0.00     0.269 C 
BRANCH  23  24
HETATM   24  O   UNL     1       6.795  -0.163  -0.499  1.00  0.00    -0.338 OA
BRANCH  24  25
HETATM   25  C   UNL     1       5.457  -0.077  -0.243  1.00  0.00     0.087 A 
HETATM   26  C   UNL     1       4.701   1.079  -0.100  1.00  0.00     0.153 A 
HETATM   27  N   UNL     1       3.368   1.094   0.149  1.00  0.00    -0.263 NA
HETATM   28  C   UNL     1       2.744  -0.101   0.264  1.00  0.00     0.030 A 
HETATM   29  C   UNL     1       1.269  -0.085   0.536  1.00  0.00     0.070 C 
HETATM   30  C   UNL     1       3.420  -1.310   0.141  1.00  0.00     0.029 A 
HETATM   31  C   UNL     1       4.790  -1.291  -0.115  1.00  0.00     0.040 A 
ENDBRANCH  24  25
ENDBRANCH  23  24
ENDBRANCH  22  23
ENDBRANCH  21  22
ENDBRANCH  20  21
ENDBRANCH   1  20
TORSDOF 8
