REMARK  5 active torsions:
REMARK  status: ('A' for Active; 'I' for Inactive)
REMARK    1  A    between atoms: C_8  and  C_9 
REMARK    2  A    between atoms: C_9  and  N_10 
REMARK       I    between atoms: N_10  and  C_11 
REMARK       I    between atoms: C_11  and  N_12 
REMARK    3  A    between atoms: N_12  and  C_13 
REMARK    4  A    between atoms: C_15  and  N_16 
REMARK       I    between atoms: N_16  and  C_17 
REMARK    5  A    between atoms: C_17  and  C_18 
ROOT
HETATM    1  C   UNL     1       2.799  -4.865  -0.410  1.00  0.00     0.038 A 
HETATM    2  C   UNL     1       3.661  -3.779  -0.273  1.00  0.00     0.059 A 
HETATM    3  C   UNL     1       5.018  -3.950   0.019  1.00  0.00     0.036 A 
HETATM    4  C   UNL     1       5.508  -5.226   0.281  1.00  0.00     0.029 A 
HETATM    5  C   UNL     1       4.653  -6.325   0.178  1.00  0.00     0.004 A 
HETATM    6  C   UNL     1       3.310  -6.146  -0.174  1.00  0.00     0.029 A 
ENDROOT
BRANCH   1   7
HETATM    7  N   UNL     1       1.425  -4.748  -0.704  1.00  0.00    -0.309 N 
HETATM    8  C   UNL     1       0.645  -3.673  -1.017  1.00  0.00     0.320 C 
HETATM    9  N   UNL     1       1.259  -2.560  -1.482  1.00  0.00    -0.338 N 
HETATM   10  O   UNL     1      -0.571  -3.757  -0.868  1.00  0.00    -0.247 OA
HETATM   11  H   UNL     1       2.153  -2.662  -1.941  1.00  0.00     0.164 HD
HETATM   12  H   UNL     1       0.859  -5.571  -0.537  1.00  0.00     0.170 HD
BRANCH   9  13
HETATM   13  C   UNL     1       0.616  -1.271  -1.570  1.00  0.00     0.167 C 
BRANCH  13  14
HETATM   14  C   UNL     1       1.297  -0.354  -0.607  1.00  0.00     0.009 A 
HETATM   15  C   UNL     1       1.259  -0.394   0.778  1.00  0.00     0.034 A 
HETATM   16  C   UNL     1       0.584  -1.316   1.721  1.00  0.00     0.070 C 
HETATM   17  N   UNL     1       2.038   0.642   1.208  1.00  0.00    -0.282 N 
HETATM   18  H   UNL     1       2.238   0.918   2.163  1.00  0.00     0.189 HD
HETATM   19  N   UNL     1       2.586   1.354   0.216  1.00  0.00    -0.179 NA
HETATM   20  C   UNL     1       2.141   0.758  -0.897  1.00  0.00     0.060 A 
HETATM   21  C   UNL     1       2.551   1.276  -2.226  1.00  0.00     0.073 C 
ENDBRANCH  13  14
ENDBRANCH   9  13
ENDBRANCH   1   7
BRANCH   3  22
HETATM   22  N   UNL     1       5.873  -2.833   0.112  1.00  0.00    -0.327 N 
HETATM   23  C   UNL     1       5.691  -1.674  -0.630  1.00  0.00     0.226 C 
HETATM   24  O   UNL     1       4.963  -1.594  -1.619  1.00  0.00    -0.273 OA
HETATM   25  H   UNL     1       6.771  -2.973   0.554  1.00  0.00     0.169 HD
BRANCH  23  26
HETATM   26  C   UNL     1       6.380  -0.437  -0.071  1.00  0.00     0.078 C 
HETATM   27  C   UNL     1       7.640  -0.636   0.761  1.00  0.00     0.014 C 
HETATM   28  C   UNL     1       8.225   0.766   0.821  1.00  0.00     0.001 C 
HETATM   29  C   UNL     1       7.942   1.370  -0.551  1.00  0.00     0.001 C 
HETATM   30  C   UNL     1       6.858   0.498  -1.184  1.00  0.00     0.014 C 
ENDBRANCH  23  26
ENDBRANCH   3  22
TORSDOF 5
