REMARK  6 active torsions:
REMARK  status: ('A' for Active; 'I' for Inactive)
REMARK    1  A    between atoms: C_2  and  C_3 
REMARK    2  A    between atoms: C_8  and  C_9 
REMARK    3  A    between atoms: C_9  and  N_10 
REMARK    4  A    between atoms: C_12  and  C_13 
REMARK    5  A    between atoms: C_13  and  N_14 
REMARK       I    between atoms: N_14  and  C_15 
REMARK    6  A    between atoms: C_15  and  C_16 
ROOT
HETATM    1  N   UNL     1       3.319  -2.572   0.517  1.00  0.00    -0.061 N 
HETATM    2  H   UNL     1       2.353  -2.406   0.818  1.00  0.00     0.280 HD
HETATM    3  C   UNL     1       3.665  -3.928   1.148  1.00  0.00     0.206 C 
HETATM    4  C   UNL     1       3.482  -3.781   2.669  1.00  0.00     0.035 C 
HETATM    5  C   UNL     1       4.303  -2.638   3.255  1.00  0.00     0.004 C 
HETATM    6  C   UNL     1       3.987  -1.324   2.553  1.00  0.00     0.028 C 
HETATM    7  C   UNL     1       4.139  -1.422   1.042  1.00  0.00     0.236 C 
ENDROOT
BRANCH   1   8
HETATM    8  C   UNL     1       3.232  -2.558  -0.998  1.00  0.00     0.277 C 
BRANCH   8   9
HETATM    9  C   UNL     1       2.248  -3.513  -1.564  1.00  0.00     0.012 A 
HETATM   10  C   UNL     1       0.839  -3.368  -1.800  1.00  0.00     0.071 A 
HETATM   11  N   UNL     1       0.338  -4.493  -2.328  1.00  0.00    -0.178 NA
HETATM   12  N   UNL     1       1.370  -5.329  -2.448  1.00  0.00    -0.288 N 
HETATM   13  H   UNL     1       1.204  -6.254  -2.837  1.00  0.00     0.188 HD
HETATM   14  C   UNL     1       2.540  -4.786  -2.018  1.00  0.00     0.120 A 
BRANCH  10  15
HETATM   15  C   UNL     1      -0.108  -2.182  -1.581  1.00  0.00    -0.004 C 
HETATM   16  C   UNL     1      -1.594  -2.613  -1.684  1.00  0.00     0.021 C 
HETATM   17  C   UNL     1       0.144  -1.107  -2.656  1.00  0.00     0.021 C 
HETATM   18  C   UNL     1       0.070  -1.552  -0.188  1.00  0.00     0.021 C 
ENDBRANCH  10  15
ENDBRANCH   8   9
ENDBRANCH   1   8
BRANCH   3  19
HETATM   19  C   UNL     1       5.080  -4.438   0.747  1.00  0.00     0.156 C 
BRANCH  19  20
HETATM   20  N   UNL     1       5.463  -5.679   1.395  1.00  0.00    -0.355 N 
HETATM   21  C   UNL     1       4.737  -6.836   1.194  1.00  0.00     0.251 C 
HETATM   22  O   UNL     1       3.771  -6.875   0.440  1.00  0.00    -0.268 OA
HETATM   23  H   UNL     1       6.178  -5.667   2.115  1.00  0.00     0.162 HD
BRANCH  21  24
HETATM   24  C   UNL     1       5.121  -8.006   2.024  1.00  0.00     0.032 A 
HETATM   25  C   UNL     1       4.106  -8.846   2.498  1.00  0.00     0.017 A 
HETATM   26  C   UNL     1       4.423  -9.924   3.324  1.00  0.00     0.001 A 
HETATM   27  C   UNL     1       5.753 -10.174   3.665  1.00  0.00     0.000 A 
HETATM   28  C   UNL     1       6.769  -9.352   3.175  1.00  0.00     0.001 A 
HETATM   29  C   UNL     1       6.457  -8.267   2.353  1.00  0.00     0.017 A 
ENDBRANCH  21  24
ENDBRANCH  19  20
ENDBRANCH   3  19
TORSDOF 6
