REMARK  6 active torsions:
REMARK  status: ('A' for Active; 'I' for Inactive)
REMARK    1  A    between atoms: O_1  and  C_2 
REMARK    2  A    between atoms: C_2  and  CA_3 
REMARK    3  A    between atoms: CA_3  and  N_4 
REMARK    4  A    between atoms: CA_3  and  C_20 
REMARK       I    between atoms: N_4  and  C_5 
REMARK       I    between atoms: C_5  and  N_7 
REMARK    5  A    between atoms: N_7  and  C_8 
REMARK    6  A    between atoms: C_11  and  C_14 
ROOT
HETATM    1  N   UNL     1       2.156   2.526   0.139  1.00  0.00    -0.332 N 
HETATM    2  C   UNL     1       0.824   2.705   0.293  1.00  0.00     0.322 C 
HETATM    3  O   UNL     1      -0.111   2.008  -0.045  1.00  0.00    -0.247 OA
HETATM    4  N   UNL     1       0.576   3.932   0.916  1.00  0.00    -0.289 N 
HETATM    5  H   UNL     1       2.826   3.178   0.516  1.00  0.00     0.165 HD
HETATM    6  H   UNL     1       1.279   4.620   1.113  1.00  0.00     0.172 HD
ENDROOT
BRANCH   1   7
HETATM    7  CA  UNL     1       2.707   1.319  -0.472  1.00  0.00     0.143 C 
BRANCH   7   8
HETATM    8  C   UNL     1       2.746   0.122   0.511  1.00  0.00     0.194 C 
BRANCH   8   9
HETATM    9  O   UNL     1       1.435  -0.200   0.971  1.00  0.00    -0.398 OA
HETATM   10  H   UNL     1       1.482  -1.092   1.364  1.00  0.00     0.209 HD
ENDBRANCH   8   9
ENDBRANCH   7   8
BRANCH   7  11
HETATM   11  C   UNL     1       4.077   1.659  -1.034  1.00  0.00    -0.033 A 
HETATM   12  C   UNL     1       4.222   1.915  -2.406  1.00  0.00     0.009 A 
HETATM   13  C   UNL     1       5.460   2.284  -2.936  1.00  0.00     0.001 A 
HETATM   14  C   UNL     1       6.569   2.408  -2.102  1.00  0.00     0.000 A 
HETATM   15  C   UNL     1       6.442   2.166  -0.738  1.00  0.00     0.001 A 
HETATM   16  C   UNL     1       5.204   1.799  -0.204  1.00  0.00     0.009 A 
ENDBRANCH   7  11
ENDBRANCH   1   7
BRANCH   4  17
HETATM   17  C   UNL     1      -0.647   4.288   1.270  1.00  0.00     0.153 A 
HETATM   18  N   UNL     1      -1.743   3.529   1.216  1.00  0.00    -0.335 N 
HETATM   19  H   UNL     1      -1.658   2.591   0.818  1.00  0.00     0.168 HD
HETATM   20  C   UNL     1      -2.878   4.120   1.747  1.00  0.00     0.051 A 
HETATM   21  C   UNL     1      -2.626   5.416   2.148  1.00  0.00     0.083 A 
HETATM   22  S   UNL     1      -0.975   5.854   1.915  1.00  0.00    -0.063 SA
BRANCH  20  23
HETATM   23  C   UNL     1      -4.166   3.435   1.872  1.00  0.00    -0.006 A 
HETATM   24  C   UNL     1      -5.243   4.014   2.557  1.00  0.00     0.033 A 
HETATM   25  C   UNL     1      -6.427   3.302   2.672  1.00  0.00     0.117 A 
HETATM   26  N   UNL     1      -6.607   2.071   2.161  1.00  0.00    -0.273 NA
HETATM   27  C   UNL     1      -5.570   1.523   1.503  1.00  0.00     0.117 A 
HETATM   28  C   UNL     1      -4.347   2.156   1.332  1.00  0.00     0.033 A 
ENDBRANCH  20  23
ENDBRANCH   4  17
TORSDOF 6
