REMARK  8 active torsions:
REMARK  status: ('A' for Active; 'I' for Inactive)
REMARK    1  A    between atoms: C_2  and  N_3 
REMARK    2  A    between atoms: N_3  and  C_5 
REMARK    3  A    between atoms: N_3  and  C_30 
REMARK    4  A    between atoms: C_5  and  C_6 
REMARK    5  A    between atoms: C_6  and  N_7 
REMARK       I    between atoms: N_7  and  C_8 
REMARK    6  A    between atoms: C_8  and  C_9 
REMARK    7  A    between atoms: C_9  and  O_10 
REMARK    8  A    between atoms: N_11  and  C_12 
ROOT
HETATM    1  C   UNL     1      -2.042  -1.092  -2.752  1.00  0.00     0.256 C 
HETATM    2  N   UNL     1      -2.275   0.177  -2.053  1.00  0.00    -0.254 N 
HETATM    3  C   UNL     1      -1.331   0.573  -1.107  1.00  0.00     0.330 C 
HETATM    4  O   UNL     1      -1.112   1.720  -0.726  1.00  0.00    -0.246 OA
HETATM    5  N   UNL     1      -0.628  -0.440  -0.494  1.00  0.00    -0.308 N 
HETATM    6  C   UNL     1      -0.867  -1.800  -0.688  1.00  0.00     0.048 A 
HETATM    7  C   UNL     1      -1.609  -2.185  -1.804  1.00  0.00     0.034 A 
HETATM    8  C   UNL     1      -0.338  -2.742   0.190  1.00  0.00     0.030 A 
HETATM    9  C   UNL     1      -0.574  -4.097  -0.038  1.00  0.00     0.002 A 
HETATM   10  C   UNL     1      -1.322  -4.500  -1.144  1.00  0.00     0.001 A 
HETATM   11  C   UNL     1      -1.833  -3.550  -2.030  1.00  0.00     0.015 A 
HETATM   12  H   UNL     1      -0.094  -0.133   0.312  1.00  0.00     0.170 HD
ENDROOT
BRANCH   1  13
HETATM   13  C   UNL     1      -0.933  -0.816  -3.867  1.00  0.00     0.279 C 
HETATM   14  N   UNL     1       0.399  -0.789  -3.484  1.00  0.00    -0.355 N 
HETATM   15  H   UNL     1       0.631  -1.099  -2.545  1.00  0.00     0.162 HD
HETATM   16  O   UNL     1      -1.234  -0.564  -5.039  1.00  0.00    -0.268 OA
BRANCH  14  17
HETATM   17  C   UNL     1       1.461  -0.722  -4.468  1.00  0.00     0.150 C 
BRANCH  17  18
HETATM   18  C   UNL     1       1.570   0.647  -5.164  1.00  0.00     0.254 C 
BRANCH  18  19
HETATM   19  N   UNL     1       2.693   0.721  -6.199  1.00  0.00    -0.070 N 
HETATM   20  H   UNL     1       2.662   1.688  -6.552  1.00  0.00     0.279 HD
BRANCH  19  21
HETATM   21  C   UNL     1       2.476  -0.159  -7.422  1.00  0.00     0.230 C 
HETATM   22  C   UNL     1       1.233   0.244  -8.191  1.00  0.00     0.034 C 
ENDBRANCH  19  21
BRANCH  19  23
HETATM   23  C   UNL     1       4.095   0.531  -5.648  1.00  0.00     0.230 C 
HETATM   24  C   UNL     1       4.428   1.566  -4.590  1.00  0.00     0.034 C 
ENDBRANCH  19  23
ENDBRANCH  18  19
ENDBRANCH  17  18
ENDBRANCH  14  17
ENDBRANCH   1  13
BRANCH   1  25
HETATM   25  O   UNL     1      -3.193  -1.547  -3.464  1.00  0.00    -0.359 OA
HETATM   26  H   UNL     1      -3.286  -0.933  -4.218  1.00  0.00     0.213 HD
ENDBRANCH   1  25
BRANCH   2  27
HETATM   27  C   UNL     1      -3.354   1.049  -2.406  1.00  0.00     0.043 A 
HETATM   28  C   UNL     1      -4.667   0.557  -2.460  1.00  0.00     0.037 A 
HETATM   29  C   UNL     1      -5.768   1.391  -2.729  1.00  0.00    -0.054 A 
HETATM   30  C   UNL     1      -7.151   0.799  -2.744  1.00  0.00     0.049 C 
HETATM   31  C   UNL     1      -5.551   2.761  -2.952  1.00  0.00    -0.056 A 
HETATM   32  C   UNL     1      -6.692   3.712  -3.194  1.00  0.00     0.049 C 
HETATM   33  C   UNL     1      -4.245   3.262  -2.872  1.00  0.00     0.009 A 
HETATM   34  C   UNL     1      -3.163   2.418  -2.597  1.00  0.00     0.030 A 
ENDBRANCH   2  27
TORSDOF 8
