REMARK  5 active torsions:
REMARK  status: ('A' for Active; 'I' for Inactive)
REMARK    1  A    between atoms: C_2  and  C_3 
REMARK    2  A    between atoms: C_3  and  N_4 
REMARK       I    between atoms: N_4  and  C_5 
REMARK    3  A    between atoms: C_5  and  C_6 
REMARK    4  A    between atoms: C_7  and  O_8 
REMARK    5  A    between atoms: O_8  and  C_9 
ROOT
HETATM    1  C   UNL     1       3.651   1.376  -2.574  1.00  0.00     0.121 C 
HETATM    2  C   UNL     1       4.702   0.844  -1.655  1.00  0.00     0.091 C 
HETATM    3  N   UNL     1       5.493   0.406  -0.925  1.00  0.00    -0.195 NA
HETATM    4  C   UNL     1       3.613   2.907  -2.383  1.00  0.00     0.055 C 
ENDROOT
BRANCH   1   5
HETATM    5  C   UNL     1       3.991   0.986  -4.057  1.00  0.00     0.020 C 
HETATM    6  C   UNL     1       4.019  -0.535  -4.283  1.00  0.00     0.013 C 
HETATM    7  C   UNL     1       5.306   1.592  -4.574  1.00  0.00     0.013 C 
ENDBRANCH   1   5
BRANCH   1   8
HETATM    8  N   UNL     1       2.353   0.793  -2.158  1.00  0.00    -0.335 N 
HETATM    9  C   UNL     1       1.138   1.090  -2.729  1.00  0.00     0.257 C 
HETATM   10  O   UNL     1       1.019   1.898  -3.645  1.00  0.00    -0.267 OA
HETATM   11  H   UNL     1       2.382   0.110  -1.408  1.00  0.00     0.164 HD
BRANCH   9  12
HETATM   12  C   UNL     1      -0.072   0.374  -2.232  1.00  0.00     0.085 A 
HETATM   13  C   UNL     1      -0.143  -0.374  -1.057  1.00  0.00     0.185 A 
HETATM   14  N   UNL     1      -1.260  -1.043  -0.662  1.00  0.00    -0.236 NA
HETATM   15  C   UNL     1      -2.357  -0.940  -1.440  1.00  0.00     0.119 A 
HETATM   16  C   UNL     1      -2.397  -0.204  -2.608  1.00  0.00     0.020 A 
HETATM   17  C   UNL     1      -1.238   0.459  -3.006  1.00  0.00     0.023 A 
BRANCH  13  18
HETATM   18  O   UNL     1       0.999  -0.484  -0.271  1.00  0.00    -0.291 OA
BRANCH  18  19
HETATM   19  C   UNL     1       0.852  -0.886   1.035  1.00  0.00     0.078 A 
HETATM   20  C   UNL     1       1.657  -1.940   1.471  1.00  0.00     0.039 A 
HETATM   21  C   UNL     1       1.594  -2.358   2.802  1.00  0.00     0.026 A 
HETATM   22  C   UNL     1       0.738  -1.709   3.692  1.00  0.00     0.034 A 
HETATM   23 CL   UNL     1       0.656  -2.228   5.330  1.00  0.00    -0.084 Cl
HETATM   24  C   UNL     1      -0.047  -0.638   3.265  1.00  0.00     0.026 A 
HETATM   25  C   UNL     1       0.018  -0.216   1.935  1.00  0.00     0.039 A 
ENDBRANCH  18  19
ENDBRANCH  13  18
ENDBRANCH   9  12
ENDBRANCH   1   8
TORSDOF 5
