REMARK  7 active torsions:
REMARK  status: ('A' for Active; 'I' for Inactive)
REMARK    1  A    between atoms: O_2  and  C_3 
REMARK    2  A    between atoms: C_6  and  C_7 
REMARK    3  A    between atoms: C_7  and  N_8 
REMARK    4  A    between atoms: C_7  and  C_25 
REMARK    5  A    between atoms: N_8  and  C_11 
REMARK    6  A    between atoms: C_11  and  C_12 
REMARK       I    between atoms: C_12  and  N_13 
REMARK    7  A    between atoms: N_13  and  C_14 
ROOT
HETATM    1  N   UNL     1       5.111   4.252  -4.072  1.00  0.00    -0.055 N 
HETATM    2  H   UNL     1       4.800   4.748  -3.220  1.00  0.00     0.278 HD
HETATM    3  H   UNL     1       6.004   3.833  -3.795  1.00  0.00     0.278 HD
ENDROOT
BRANCH   1   4
HETATM    4  C   UNL     1       4.115   3.195  -4.420  1.00  0.00     0.252 C 
BRANCH   4   5
HETATM    5  C   UNL     1       3.778   2.305  -3.235  1.00  0.00    -0.023 A 
HETATM    6  C   UNL     1       2.434   1.972  -2.983  1.00  0.00     0.012 A 
HETATM    7  C   UNL     1       2.082   1.131  -1.920  1.00  0.00     0.037 A 
HETATM    8  C   UNL     1       3.067   0.599  -1.093  1.00  0.00     0.068 A 
HETATM    9  C   UNL     1       4.402   0.926  -1.331  1.00  0.00     0.037 A 
HETATM   10  C   UNL     1       4.760   1.764  -2.391  1.00  0.00     0.012 A 
BRANCH   8  11
HETATM   11  O   UNL     1       2.864  -0.238  -0.033  1.00  0.00    -0.356 OA
HETATM   12  C   UNL     1       1.545  -0.739   0.155  1.00  0.00     0.210 C 
ENDBRANCH   8  11
ENDBRANCH   4   5
BRANCH   4  13
HETATM   13  C   UNL     1       4.509   2.417  -5.664  1.00  0.00    -0.023 A 
HETATM   14  C   UNL     1       3.628   2.367  -6.760  1.00  0.00     0.009 A 
HETATM   15  C   UNL     1       3.975   1.678  -7.923  1.00  0.00     0.001 A 
HETATM   16  C   UNL     1       5.202   1.027  -8.008  1.00  0.00     0.000 A 
HETATM   17  C   UNL     1       6.082   1.057  -6.930  1.00  0.00     0.001 A 
HETATM   18  C   UNL     1       5.739   1.743  -5.763  1.00  0.00     0.009 A 
ENDBRANCH   4  13
ENDBRANCH   1   4
BRANCH   1  19
HETATM   19  C   UNL     1       5.369   5.297  -5.128  1.00  0.00     0.336 C 
BRANCH  19  20
HETATM   20  C   UNL     1       6.092   6.491  -4.504  1.00  0.00     0.248 C 
HETATM   21  N   UNL     1       6.629   7.373  -5.418  1.00  0.00    -0.326 N 
HETATM   22  H   UNL     1       6.542   7.162  -6.407  1.00  0.00     0.169 HD
HETATM   23  O   UNL     1       6.134   6.557  -3.276  1.00  0.00    -0.271 OA
BRANCH  21  24
HETATM   24  C   UNL     1       7.325   8.572  -5.134  1.00  0.00     0.037 A 
HETATM   25  C   UNL     1       7.528   9.064  -3.838  1.00  0.00     0.061 A 
HETATM   26  C   UNL     1       8.219  10.250  -3.718  1.00  0.00     0.065 A 
HETATM   27  C   UNL     1       8.707  10.948  -4.819  1.00  0.00     0.063 A 
HETATM   28  N   UNL     1       8.559  10.966  -2.575  1.00  0.00    -0.306 N 
HETATM   29  N   UNL     1       9.347  12.090  -4.356  1.00  0.00    -0.307 N 
HETATM   30  C   UNL     1       8.529  10.498  -6.102  1.00  0.00     0.034 A 
HETATM   31  C   UNL     1       9.263  12.118  -2.957  1.00  0.00     0.325 A 
HETATM   32  H   UNL     1       9.804  12.806  -4.899  1.00  0.00     0.170 HD
HETATM   33  O   UNL     1       9.712  12.973  -2.216  1.00  0.00    -0.247 OA
HETATM   34  C   UNL     1       7.826   9.294  -6.252  1.00  0.00     0.032 A 
HETATM   35  H   UNL     1       8.353  10.736  -1.616  1.00  0.00     0.170 HD
ENDBRANCH  21  24
ENDBRANCH  19  20
ENDBRANCH   1  19
TORSDOF 7
