REMARK  4 active torsions:
REMARK  status: ('A' for Active; 'I' for Inactive)
REMARK    1  A    between atoms: C_3  and  C_4 
REMARK    2  A    between atoms: C_14  and  N_15 
REMARK       I    between atoms: N_15  and  C_16 
REMARK    3  A    between atoms: C_16  and  C_17 
REMARK    4  A    between atoms: C_20  and  N_21 
ROOT
HETATM    1  N   UNL     1       2.838  -0.087   0.249  1.00  0.00    -0.322 N 
HETATM    2  C   UNL     1       3.451  -0.916  -0.671  1.00  0.00     0.256 C 
HETATM    3  O   UNL     1       2.899  -1.740  -1.390  1.00  0.00    -0.267 OA
HETATM    4  H   UNL     1       3.438   0.411   0.897  1.00  0.00     0.169 HD
ENDROOT
BRANCH   1   5
HETATM    5  C   UNL     1       1.445   0.138   0.396  1.00  0.00     0.049 A 
HETATM    6  C   UNL     1       0.960   0.758   1.570  1.00  0.00     0.037 A 
HETATM    7  C   UNL     1      -0.396   1.113   1.659  1.00  0.00     0.017 A 
HETATM    8  C   UNL     1      -1.278   0.820   0.620  1.00  0.00     0.001 A 
HETATM    9  C   UNL     1      -0.811   0.169  -0.517  1.00  0.00     0.002 A 
HETATM   10  C   UNL     1       0.541  -0.167  -0.630  1.00  0.00     0.030 A 
BRANCH   6  11
HETATM   11  C   UNL     1       1.800   0.983   2.747  1.00  0.00     0.141 A 
HETATM   12  N   UNL     1       1.915   2.099   3.439  1.00  0.00    -0.228 NA
HETATM   13  C   UNL     1       2.790   1.820   4.461  1.00  0.00     0.086 A 
HETATM   14  C   UNL     1       3.213   0.498   4.404  1.00  0.00     0.062 A 
HETATM   15  C   UNL     1       3.272   2.650   5.483  1.00  0.00     0.034 A 
HETATM   16  N   UNL     1       2.547  -0.020   3.326  1.00  0.00    -0.338 N 
HETATM   17  C   UNL     1       4.112  -0.062   5.315  1.00  0.00     0.032 A 
HETATM   18  H   UNL     1       2.583  -0.976   3.003  1.00  0.00     0.167 HD
HETATM   19  C   UNL     1       4.587   0.783   6.324  1.00  0.00     0.002 A 
HETATM   20  C   UNL     1       4.175   2.116   6.411  1.00  0.00     0.002 A 
ENDBRANCH   6  11
ENDBRANCH   1   5
BRANCH   2  21
HETATM   21  C   UNL     1       4.935  -0.823  -0.702  1.00  0.00     0.032 A 
HETATM   22  C   UNL     1       5.599   0.397  -0.580  1.00  0.00     0.019 A 
HETATM   23  C   UNL     1       7.001   0.443  -0.633  1.00  0.00     0.031 A 
HETATM   24  C   UNL     1       7.781  -0.716  -0.807  1.00  0.00     0.045 A 
HETATM   25  C   UNL     1       7.082  -1.929  -0.934  1.00  0.00     0.031 A 
HETATM   26  C   UNL     1       5.680  -1.985  -0.891  1.00  0.00     0.019 A 
BRANCH  24  27
HETATM   27  N   UNL     1       9.214  -0.658  -0.869  1.00  0.00    -0.252 N 
HETATM   28  C   UNL     1       9.967   0.465  -0.593  1.00  0.00     0.231 C 
HETATM   29  O   UNL     1       9.616   1.555  -0.161  1.00  0.00    -0.273 OA
HETATM   30  C   UNL     1      11.402   0.189  -0.926  1.00  0.00     0.113 C 
HETATM   31  C   UNL     1      11.464  -1.308  -1.043  1.00  0.00     0.113 C 
HETATM   32  C   UNL     1      10.032  -1.718  -1.205  1.00  0.00     0.231 C 
HETATM   33  O   UNL     1       9.738  -2.851  -1.565  1.00  0.00    -0.273 OA
ENDBRANCH  24  27
ENDBRANCH   2  21
TORSDOF 4
