REMARK  4 active torsions:
REMARK  status: ('A' for Active; 'I' for Inactive)
REMARK    1  A    between atoms: C_3  and  N_4 
REMARK       I    between atoms: N_4  and  C_5 
REMARK    2  A    between atoms: C_5  and  C_6 
REMARK    3  A    between atoms: C_7  and  C_8 
REMARK    4  A    between atoms: C_16  and  C_17 
ROOT
HETATM    1  C   UNL     1       6.613  -3.601   0.135  1.00  0.00     0.003 A 
HETATM    2  C   UNL     1       5.362  -3.077   0.466  1.00  0.00     0.029 A 
HETATM    3  C   UNL     1       5.051  -2.778   1.793  1.00  0.00     0.035 A 
HETATM    4  C   UNL     1       6.012  -3.018   2.786  1.00  0.00     0.042 A 
HETATM    5  C   UNL     1       7.275  -3.544   2.468  1.00  0.00    -0.021 A 
HETATM    6  C   UNL     1       7.564  -3.832   1.129  1.00  0.00     0.012 A 
ENDROOT
BRANCH   3   7
HETATM    7  N   UNL     1       3.803  -2.271   2.210  1.00  0.00    -0.327 N 
HETATM    8  C   UNL     1       2.763  -1.840   1.419  1.00  0.00     0.227 C 
HETATM    9  O   UNL     1       2.782  -1.723   0.200  1.00  0.00    -0.273 OA
HETATM   10  H   UNL     1       3.697  -2.110   3.206  1.00  0.00     0.169 HD
BRANCH   8  11
HETATM   11  C   UNL     1       1.479  -1.516   2.109  1.00  0.00     0.089 A 
HETATM   12  C   UNL     1       1.319  -0.533   3.250  1.00  0.00     0.057 A 
HETATM   13  C   UNL     1       1.072  -2.017   3.457  1.00  0.00     0.027 A 
BRANCH  12  14
HETATM   14  C   UNL     1       2.479   0.068   4.021  1.00  0.00     0.057 A 
HETATM   15  O   UNL     1       3.609  -0.597   4.394  1.00  0.00    -0.327 OA
HETATM   16  C   UNL     1       4.379   0.283   5.085  1.00  0.00     0.142 A 
HETATM   17  C   UNL     1       3.753   1.503   5.174  1.00  0.00     0.027 A 
HETATM   18  C   UNL     1       2.522   1.364   4.490  1.00  0.00     0.035 A 
ENDBRANCH  12  14
ENDBRANCH   8  11
ENDBRANCH   3   7
BRANCH   5  19
HETATM   19  C   UNL     1       8.258  -3.772   3.515  1.00  0.00     0.010 A 
HETATM   20  C   UNL     1       8.432  -3.147   4.773  1.00  0.00     0.152 A 
HETATM   21  N   UNL     1       9.456  -3.650   5.467  1.00  0.00    -0.187 NA
HETATM   22  N   UNL     1       9.946  -4.601   4.656  1.00  0.00    -0.289 N 
HETATM   23  H   UNL     1      10.747  -5.137   4.971  1.00  0.00     0.188 HD
HETATM   24  C   UNL     1       9.263  -4.715   3.479  1.00  0.00     0.123 A 
ENDBRANCH   5  19
TORSDOF 4
