REMARK  8 active torsions:
REMARK  status: ('A' for Active; 'I' for Inactive)
REMARK    1  A    between atoms: C_2  and  C_3 
REMARK    2  A    between atoms: C_4  and  O_5 
REMARK    3  A    between atoms: N_10  and  N_11 
REMARK       I    between atoms: N_11  and  C_12 
REMARK    4  A    between atoms: C_12  and  C_13 
REMARK    5  A    between atoms: C_13  and  N_14 
REMARK       I    between atoms: N_14  and  C_15 
REMARK    6  A    between atoms: C_15  and  C_16 
REMARK    7  A    between atoms: C_16  and  N_17 
REMARK       I    between atoms: N_17  and  C_18 
REMARK    8  A    between atoms: C_18  and  C_19 
ROOT
HETATM    1  C   UNL     1       4.451   3.343  -1.582  1.00  0.00     0.227 C 
ENDROOT
BRANCH   1   2
HETATM    2  C   UNL     1       2.949   3.323  -1.292  1.00  0.00     0.255 C 
HETATM    3  N   UNL     1       2.405   2.057  -1.150  1.00  0.00    -0.246 N 
HETATM    4  H   UNL     1       3.021   1.250  -1.089  1.00  0.00     0.192 HD
HETATM    5  O   UNL     1       2.286   4.361  -1.310  1.00  0.00    -0.270 OA
BRANCH   3   6
HETATM    6  N   UNL     1       1.064   1.937  -0.946  1.00  0.00    -0.176 NA
HETATM    7  C   UNL     1       0.514   0.758  -0.939  1.00  0.00     0.064 C 
HETATM    8  C   UNL     1       1.269  -0.520  -1.213  1.00  0.00     0.073 C 
BRANCH   7   9
HETATM    9  C   UNL     1      -0.955   0.677  -0.661  1.00  0.00     0.023 A 
HETATM   10  C   UNL     1      -1.791   1.774  -0.920  1.00  0.00     0.077 A 
HETATM   11  C   UNL     1      -3.165   1.689  -0.693  1.00  0.00     0.037 A 
HETATM   12  C   UNL     1      -3.717   0.515  -0.183  1.00  0.00     0.003 A 
HETATM   13  C   UNL     1      -2.894  -0.571   0.107  1.00  0.00     0.001 A 
HETATM   14  C   UNL     1      -1.518  -0.492  -0.128  1.00  0.00     0.016 A 
BRANCH  10  15
HETATM   15  O   UNL     1      -1.337   2.971  -1.404  1.00  0.00    -0.360 OA
HETATM   16  H   UNL     1      -0.355   2.985  -1.318  1.00  0.00     0.217 HD
ENDBRANCH  10  15
ENDBRANCH   7   9
ENDBRANCH   3   6
ENDBRANCH   1   2
BRANCH   1  17
HETATM   17  N   UNL     1       5.180   2.101  -1.375  1.00  0.00    -0.351 N 
HETATM   18  C   UNL     1       5.891   1.859  -0.220  1.00  0.00     0.235 C 
HETATM   19  O   UNL     1       5.825   2.572   0.777  1.00  0.00    -0.272 OA
HETATM   20  H   UNL     1       5.105   1.352  -2.060  1.00  0.00     0.163 HD
BRANCH  18  21
HETATM   21  C   UNL     1       6.723   0.577  -0.261  1.00  0.00     0.225 C 
BRANCH  21  22
HETATM   22  N   UNL     1       6.023  -0.531   0.351  1.00  0.00    -0.348 N 
HETATM   23  C   UNL     1       5.039  -1.218  -0.311  1.00  0.00     0.253 C 
HETATM   24  O   UNL     1       4.630  -0.829  -1.406  1.00  0.00    -0.268 OA
HETATM   25  H   UNL     1       6.270  -0.775   1.304  1.00  0.00     0.163 HD
BRANCH  23  26
HETATM   26  C   UNL     1       4.452  -2.443   0.328  1.00  0.00     0.053 A 
HETATM   27  C   UNL     1       4.736  -2.940   1.611  1.00  0.00     0.049 A 
HETATM   28 CL   UNL     1       5.866  -2.230   2.712  1.00  0.00    -0.083 Cl
HETATM   29  C   UNL     1       4.084  -4.092   2.082  1.00  0.00     0.025 A 
HETATM   30  C   UNL     1       3.150  -4.759   1.293  1.00  0.00     0.002 A 
HETATM   31  C   UNL     1       2.868  -4.288   0.017  1.00  0.00     0.001 A 
HETATM   32  C   UNL     1       3.519  -3.149  -0.461  1.00  0.00     0.019 A 
ENDBRANCH  23  26
ENDBRANCH  21  22
ENDBRANCH  18  21
ENDBRANCH   1  17
TORSDOF 8
