REMARK  5 active torsions:
REMARK  status: ('A' for Active; 'I' for Inactive)
REMARK    1  A    between atoms: C_8  and  C_9 
REMARK    2  A    between atoms: N_10  and  N_11 
REMARK       I    between atoms: N_11  and  C_12 
REMARK    3  A    between atoms: C_12  and  C_13 
REMARK    4  A    between atoms: C_13  and  N_14 
REMARK    5  A    between atoms: N_14  and  C_15 
ROOT
HETATM    1  N   UNL     1      -1.550  -5.016  -0.190  1.00  0.00    -0.246 N 
HETATM    2  C   UNL     1      -0.680  -6.105  -0.240  1.00  0.00     0.250 C 
HETATM    3  O   UNL     1       0.548  -6.041  -0.242  1.00  0.00    -0.270 OA
HETATM    4  H   UNL     1      -2.521  -5.187   0.055  1.00  0.00     0.192 HD
ENDROOT
BRANCH   1   5
HETATM    5  N   UNL     1      -1.178  -3.699  -0.053  1.00  0.00    -0.184 NA
HETATM    6  C   UNL     1      -0.052  -3.320  -0.572  1.00  0.00     0.152 C 
BRANCH   6   7
HETATM    7  C   UNL     1       0.384  -1.945  -0.418  1.00  0.00     0.011 A 
HETATM    8  C   UNL     1       1.576  -1.358  -0.954  1.00  0.00     0.004 A 
HETATM    9  C   UNL     1       2.647  -1.843  -1.735  1.00  0.00     0.014 A 
HETATM   10  C   UNL     1       1.591  -0.016  -0.569  1.00  0.00     0.043 A 
HETATM   11  C   UNL     1       3.682  -0.976  -2.103  1.00  0.00     0.001 A 
HETATM   12  C   UNL     1       3.665   0.358  -1.705  1.00  0.00     0.002 A 
HETATM   13  C   UNL     1       2.619   0.864  -0.929  1.00  0.00     0.030 A 
HETATM   14  N   UNL     1       0.458   0.203   0.179  1.00  0.00    -0.364 N 
HETATM   15  H   UNL     1       0.209   1.089   0.596  1.00  0.00     0.165 HD
HETATM   16  C   UNL     1      -0.276  -0.948   0.276  1.00  0.00     0.102 A 
ENDBRANCH   6   7
ENDBRANCH   1   5
BRANCH   2  17
HETATM   17  C   UNL     1      -1.416  -7.442  -0.360  1.00  0.00     0.197 C 
BRANCH  17  18
HETATM   18  N   UNL     1      -2.145  -7.776   0.871  1.00  0.00    -0.283 NA
HETATM   19  H   UNL     1      -2.646  -6.994   1.292  1.00  0.00     0.128 HD
BRANCH  18  20
HETATM   20  C   UNL     1      -2.970  -8.919   0.823  1.00  0.00     0.030 A 
HETATM   21  C   UNL     1      -4.243  -8.920   1.432  1.00  0.00     0.055 A 
HETATM   22 CL   UNL     1      -4.858  -7.482   2.176  1.00  0.00    -0.082 Cl
HETATM   23  C   UNL     1      -5.054 -10.058   1.423  1.00  0.00     0.026 A 
HETATM   24  C   UNL     1      -4.601 -11.229   0.821  1.00  0.00     0.002 A 
HETATM   25  C   UNL     1      -3.337 -11.260   0.236  1.00  0.00     0.002 A 
HETATM   26  C   UNL     1      -2.529 -10.118   0.244  1.00  0.00     0.025 A 
ENDBRANCH  18  20
ENDBRANCH  17  18
ENDBRANCH   2  17
TORSDOF 5
