REMARK  6 active torsions:
REMARK  status: ('A' for Active; 'I' for Inactive)
REMARK    1  A    between atoms: C_3  and  N_4 
REMARK       I    between atoms: N_4  and  C_5 
REMARK       I    between atoms: C_5  and  N_6 
REMARK    2  A    between atoms: N_6  and  C_7 
REMARK    3  A    between atoms: C_7  and  C_8 
REMARK    4  A    between atoms: C_8  and  C_9 
REMARK    5  A    between atoms: C_21  and  O_22 
REMARK    6  A    between atoms: O_22  and  C_23 
ROOT
HETATM    1  N   UNL     1       2.617   2.376  -0.503  1.00  0.00    -0.308 N 
HETATM    2  C   UNL     1       3.219   3.408   0.151  1.00  0.00     0.322 C 
HETATM    3  N   UNL     1       4.420   3.900  -0.317  1.00  0.00    -0.338 N 
HETATM    4  C   UNL     1       4.864   3.779  -1.703  1.00  0.00     0.154 C 
HETATM    5  O   UNL     1       2.620   3.928   1.094  1.00  0.00    -0.247 OA
HETATM    6  H   UNL     1       1.624   2.341  -0.307  1.00  0.00     0.170 HD
ENDROOT
BRANCH   1   7
HETATM    7  C   UNL     1       3.171   1.176  -1.000  1.00  0.00     0.042 A 
HETATM    8  C   UNL     1       2.367   0.337  -1.800  1.00  0.00    -0.033 A 
HETATM    9  C   UNL     1       0.958   0.711  -2.179  1.00  0.00     0.050 C 
HETATM   10  C   UNL     1       2.889  -0.885  -2.259  1.00  0.00     0.045 A 
HETATM   11  C   UNL     1       4.197  -1.256  -1.948  1.00  0.00     0.075 A 
HETATM   12  C   UNL     1       4.975  -0.446  -1.128  1.00  0.00     0.039 A 
HETATM   13  C   UNL     1       4.466   0.767  -0.660  1.00  0.00     0.033 A 
BRANCH  11  14
HETATM   14  O   UNL     1       4.735  -2.448  -2.342  1.00  0.00    -0.290 OA
BRANCH  14  15
HETATM   15  C   UNL     1       4.808  -2.558  -3.758  1.00  0.00     0.505 C 
HETATM   16  F   UNL     1       5.646  -1.605  -4.238  1.00  0.00    -0.184 F 
HETATM   17  F   UNL     1       5.381  -3.756  -4.040  1.00  0.00    -0.184 F 
ENDBRANCH  14  15
ENDBRANCH  11  14
ENDBRANCH   1   7
BRANCH   3  18
HETATM   18  C   UNL     1       5.078   4.950   0.466  1.00  0.00     0.132 C 
BRANCH  18  19
HETATM   19  C   UNL     1       4.364   6.309   0.367  1.00  0.00     0.062 C 
BRANCH  19  20
HETATM   20  C   UNL     1       5.314   7.462   0.324  1.00  0.00    -0.007 A 
HETATM   21  C   UNL     1       5.595   8.315  -0.782  1.00  0.00     0.059 A 
HETATM   22  C   UNL     1       5.009   8.283  -2.145  1.00  0.00     0.073 C 
HETATM   23  N   UNL     1       6.500   9.249  -0.471  1.00  0.00    -0.179 NA
HETATM   24  N   UNL     1       6.786   9.014   0.816  1.00  0.00    -0.282 N 
HETATM   25  H   UNL     1       7.457   9.621   1.275  1.00  0.00     0.189 HD
HETATM   26  C   UNL     1       6.106   7.954   1.346  1.00  0.00     0.032 A 
HETATM   27  C   UNL     1       6.279   7.530   2.754  1.00  0.00     0.070 C 
ENDBRANCH  19  20
ENDBRANCH  18  19
ENDBRANCH   3  18
TORSDOF 6
