REMARK  6 active torsions:
REMARK  status: ('A' for Active; 'I' for Inactive)
REMARK    1  A    between atoms: C_4  and  C_5 
REMARK    2  A    between atoms: C_5  and  C_6 
REMARK    3  A    between atoms: C_7  and  N_8 
REMARK       I    between atoms: N_8  and  C_9 
REMARK    4  A    between atoms: C_9  and  C_10 
REMARK    5  A    between atoms: C_15  and  C_16 
REMARK       I    between atoms: C_16  and  N_17 
REMARK    6  A    between atoms: N_17  and  C_18 
ROOT
HETATM    1  N   UNL     1       1.656   2.876   0.457  1.00  0.00    -0.321 N 
HETATM    2  C   UNL     1       1.346   4.049   1.109  1.00  0.00     0.277 C 
HETATM    3  O   UNL     1       1.716   5.171   0.794  1.00  0.00    -0.266 OA
HETATM    4  H   UNL     1       1.027   2.113   0.707  1.00  0.00     0.169 HD
ENDROOT
BRANCH   2   5
HETATM    5  C   UNL     1       0.444   3.816   2.239  1.00  0.00     0.158 A 
HETATM    6  N   UNL     1      -0.227   2.600   2.366  1.00  0.00    -0.236 NA
HETATM    7  C   UNL     1      -0.933   2.703   3.466  1.00  0.00     0.208 A 
HETATM    8  N   UNL     1      -0.742   3.910   4.064  1.00  0.00    -0.344 N 
HETATM    9  H   UNL     1      -1.152   4.231   4.933  1.00  0.00     0.167 HD
HETATM   10  C   UNL     1       0.146   4.652   3.309  1.00  0.00     0.136 A 
BRANCH  10  11
HETATM   11  C   UNL     1       0.574   5.963   3.762  1.00  0.00     0.275 C 
HETATM   12  N   UNL     1       1.351   6.691   2.891  1.00  0.00    -0.322 N 
HETATM   13  H   UNL     1       1.493   6.307   1.958  1.00  0.00     0.169 HD
HETATM   14  O   UNL     1       0.217   6.350   4.871  1.00  0.00    -0.266 OA
BRANCH  12  15
HETATM   15  C   UNL     1       2.005   7.918   3.120  1.00  0.00     0.035 A 
HETATM   16  C   UNL     1       2.057   8.564   4.355  1.00  0.00     0.029 A 
HETATM   17  C   UNL     1       2.773   9.757   4.499  1.00  0.00     0.002 A 
HETATM   18  C   UNL     1       3.440  10.314   3.410  1.00  0.00     0.000 A 
HETATM   19  C   UNL     1       3.389   9.681   2.172  1.00  0.00     0.002 A 
HETATM   20  C   UNL     1       2.676   8.489   2.029  1.00  0.00     0.029 A 
ENDBRANCH  12  15
ENDBRANCH  10  11
ENDBRANCH   2   5
BRANCH   1  21
HETATM   21  C   UNL     1       2.540   2.692  -0.625  1.00  0.00     0.049 A 
HETATM   22  C   UNL     1       3.665   3.480  -0.943  1.00  0.00     0.043 A 
HETATM   23  C   UNL     1       4.402   3.215  -2.112  1.00  0.00     0.041 A 
HETATM   24  C   UNL     1       4.063   2.143  -2.930  1.00  0.00     0.035 A 
HETATM   25  C   UNL     1       2.997   1.318  -2.592  1.00  0.00     0.026 A 
HETATM   26 CL   UNL     1       4.984   1.815  -4.344  1.00  0.00    -0.084 Cl
HETATM   27  C   UNL     1       2.246   1.588  -1.445  1.00  0.00     0.032 A 
BRANCH  22  28
HETATM   28  C   UNL     1       4.257   4.539  -0.087  1.00  0.00     0.194 C 
HETATM   29  O   UNL     1       4.553   5.611  -0.612  1.00  0.00    -0.287 OA
BRANCH  28  30
HETATM   30  C   UNL     1       4.594   4.299   1.346  1.00  0.00     0.015 A 
HETATM   31  C   UNL     1       4.813   5.414   2.166  1.00  0.00     0.015 A 
HETATM   32  C   UNL     1       5.103   5.253   3.521  1.00  0.00     0.001 A 
HETATM   33  C   UNL     1       5.198   3.974   4.062  1.00  0.00     0.000 A 
HETATM   34  C   UNL     1       5.011   2.857   3.249  1.00  0.00     0.001 A 
HETATM   35  C   UNL     1       4.715   3.015   1.892  1.00  0.00     0.015 A 
ENDBRANCH  28  30
ENDBRANCH  22  28
ENDBRANCH   1  21
TORSDOF 6
