REMARK  3 active torsions:
REMARK  status: ('A' for Active; 'I' for Inactive)
REMARK       I    between atoms: C_2  and  N_3 
REMARK    1  A    between atoms: N_3  and  C_4 
REMARK    2  A    between atoms: C_6  and  N_7 
REMARK       I    between atoms: N_7  and  C_8 
REMARK    3  A    between atoms: C_8  and  C_9 
ROOT
HETATM    1  C   UNL     1       2.586   0.865  -2.308  1.00  0.00     0.036 A 
HETATM    2  C   UNL     1       2.169  -0.288  -2.985  1.00  0.00     0.059 A 
HETATM    3  C   UNL     1       1.709  -0.213  -4.307  1.00  0.00     0.037 A 
HETATM    4  C   UNL     1       1.667   1.030  -4.948  1.00  0.00     0.029 A 
HETATM    5  C   UNL     1       2.060   2.185  -4.277  1.00  0.00     0.004 A 
HETATM    6  C   UNL     1       2.515   2.102  -2.962  1.00  0.00     0.029 A 
ENDROOT
BRANCH   3   7
HETATM    7  N   UNL     1       1.297  -1.327  -5.061  1.00  0.00    -0.322 N 
HETATM    8  C   UNL     1       1.146  -2.637  -4.648  1.00  0.00     0.274 C 
HETATM    9  O   UNL     1       1.262  -3.079  -3.513  1.00  0.00    -0.266 OA
HETATM   10  H   UNL     1       1.076  -1.178  -6.043  1.00  0.00     0.169 HD
BRANCH   8  11
HETATM   11  C   UNL     1       0.782  -3.563  -5.770  1.00  0.00     0.126 A 
HETATM   12  N   UNL     1       0.668  -2.993  -7.006  1.00  0.00    -0.255 NA
HETATM   13  C   UNL     1       0.366  -3.823  -8.028  1.00  0.00     0.119 A 
HETATM   14  C   UNL     1       0.168  -5.183  -7.877  1.00  0.00     0.043 A 
HETATM   15  C   UNL     1       0.286  -5.721  -6.601  1.00  0.00     0.037 A 
HETATM   16 CL   UNL     1       0.046  -7.409  -6.366  1.00  0.00    -0.084 Cl
HETATM   17  C   UNL     1       0.598  -4.913  -5.519  1.00  0.00     0.061 A 
ENDBRANCH   8  11
ENDBRANCH   3   7
BRANCH   1  18
HETATM   18  N   UNL     1       3.084   0.876  -0.987  1.00  0.00    -0.327 N 
HETATM   19  C   UNL     1       3.351  -0.210  -0.174  1.00  0.00     0.218 C 
HETATM   20  C   UNL     1       3.867   0.198   1.185  1.00  0.00     0.117 C 
HETATM   21  O   UNL     1       3.250  -1.395  -0.463  1.00  0.00    -0.274 OA
HETATM   22  H   UNL     1       3.314   1.787  -0.613  1.00  0.00     0.169 HD
ENDBRANCH   1  18
TORSDOF 3
