REMARK  6 active torsions:
REMARK  status: ('A' for Active; 'I' for Inactive)
REMARK    1  A    between atoms: C_4  and  O_5 
REMARK    2  A    between atoms: O_5  and  C_6 
REMARK    3  A    between atoms: C_7  and  N_8 
REMARK       I    between atoms: N_8  and  C_9 
REMARK       I    between atoms: C_9  and  N_10 
REMARK    4  A    between atoms: N_10  and  C_11 
REMARK    5  A    between atoms: C_11  and  C_12 
REMARK    6  A    between atoms: C_12  and  C_13 
ROOT
HETATM    1  C   UNL     1       3.819  -1.446   0.499  1.00  0.00     0.106 C 
HETATM    2  C   UNL     1       3.181  -2.376  -0.330  1.00  0.00     0.109 C 
HETATM    3  C   UNL     1       3.773  -3.633  -0.486  1.00  0.00     0.145 C 
HETATM    4  F   UNL     1       3.154  -4.575  -1.215  1.00  0.00    -0.204 F 
HETATM    5  C   UNL     1       5.021  -3.924   0.061  1.00  0.00     0.045 C 
HETATM    6  C   UNL     1       5.694  -2.953   0.800  1.00  0.00     0.006 C 
HETATM    7  C   UNL     1       5.092  -1.714   1.022  1.00  0.00     0.040 C 
ENDROOT
BRANCH   2   8
HETATM    8  N   UNL     1       1.949  -2.147  -0.979  1.00  0.00    -0.304 N 
HETATM    9  C   UNL     1       1.603  -1.107  -1.797  1.00  0.00     0.320 C 
HETATM   10  N   UNL     1       2.544  -0.151  -2.034  1.00  0.00    -0.342 N 
HETATM   11  O   UNL     1       0.536  -1.156  -2.408  1.00  0.00    -0.247 OA
HETATM   12  H   UNL     1       3.147   0.104  -1.261  1.00  0.00     0.164 HD
HETATM   13  H   UNL     1       1.422  -2.973  -1.241  1.00  0.00     0.171 HD
BRANCH  10  14
HETATM   14  C   UNL     1       2.370   0.864  -3.059  1.00  0.00     0.132 C 
BRANCH  14  15
HETATM   15  C   UNL     1       1.728   2.147  -2.537  1.00  0.00     0.102 C 
BRANCH  15  16
HETATM   16  C   UNL     1       2.696   3.002  -1.797  1.00  0.00     0.148 A 
HETATM   17  N   UNL     1       2.788   4.325  -1.990  1.00  0.00    -0.158 NA
HETATM   18  N   UNL     1       3.774   4.656  -1.142  1.00  0.00    -0.270 N 
HETATM   19  H   UNL     1       4.065   5.624  -1.071  1.00  0.00     0.190 HD
HETATM   20  C   UNL     1       4.242   3.565  -0.483  1.00  0.00     0.227 A 
HETATM   21  N   UNL     1       3.581   2.501  -0.873  1.00  0.00    -0.226 NA
ENDBRANCH  15  16
ENDBRANCH  14  15
ENDBRANCH  10  14
ENDBRANCH   2   8
BRANCH   1  22
HETATM   22  O   UNL     1       3.181  -0.265   0.808  1.00  0.00    -0.309 OA
BRANCH  22  23
HETATM   23  C   UNL     1       2.905  -0.006   2.137  1.00  0.00     0.076 A 
HETATM   24  C   UNL     1       2.707   1.337   2.464  1.00  0.00     0.037 A 
HETATM   25  C   UNL     1       2.431   1.712   3.780  1.00  0.00     0.003 A 
HETATM   26  C   UNL     1       2.341   0.741   4.776  1.00  0.00     0.000 A 
HETATM   27  C   UNL     1       2.506  -0.604   4.452  1.00  0.00     0.003 A 
HETATM   28  C   UNL     1       2.776  -0.980   3.133  1.00  0.00     0.037 A 
ENDBRANCH  22  23
ENDBRANCH   1  22
TORSDOF 6
