REMARK  2 active torsions:
REMARK  status: ('A' for Active; 'I' for Inactive)
REMARK    1  A    between atoms: C_2  and  N_3 
REMARK    2  A    between atoms: N_3  and  C_4 
ROOT
HETATM    1  C   UNL     1       3.648  -3.032  -0.089  1.00  0.00     0.143 A 
HETATM    2  N   UNL     1       2.625  -3.921  -0.132  1.00  0.00    -0.223 NA
HETATM    3  C   UNL     1       2.886  -5.236  -0.104  1.00  0.00     0.236 A 
HETATM    4  N   UNL     1       4.078  -5.828  -0.032  1.00  0.00    -0.234 NA
HETATM    5  C   UNL     1       5.082  -4.938   0.014  1.00  0.00     0.114 A 
HETATM    6  C   UNL     1       4.963  -3.547  -0.013  1.00  0.00     0.053 A 
HETATM    7  S   UNL     1       6.711  -5.482   0.117  1.00  0.00    -0.073 SA
HETATM    8  C   UNL     1       7.256  -3.905   0.134  1.00  0.00    -0.008 A 
HETATM    9  C   UNL     1       6.264  -2.966   0.056  1.00  0.00    -0.028 A 
HETATM   10  C   UNL     1       6.839  -1.596   0.092  1.00  0.00     0.041 C 
HETATM   11  C   UNL     1       8.361  -1.858  -0.136  1.00  0.00     0.010 C 
HETATM   12  C   UNL     1       8.624  -3.348   0.232  1.00  0.00     0.047 C 
ENDROOT
BRANCH   1  13
HETATM   13  N   UNL     1       3.405  -1.652  -0.158  1.00  0.00    -0.340 N 
HETATM   14  H   UNL     1       4.241  -1.097  -0.255  1.00  0.00     0.167 HD
BRANCH  13  15
HETATM   15  C   UNL     1       2.217  -0.901  -0.123  1.00  0.00     0.036 A 
HETATM   16  C   UNL     1       0.986  -1.418   0.298  1.00  0.00     0.032 A 
HETATM   17  C   UNL     1      -0.176  -0.637   0.282  1.00  0.00     0.042 A 
HETATM   18  C   UNL     1      -0.124   0.675  -0.172  1.00  0.00     0.102 A 
HETATM   19  C   UNL     1       1.085   1.198  -0.634  1.00  0.00     0.104 A 
HETATM   20  O   UNL     1      -1.295   1.387  -0.150  1.00  0.00    -0.346 OA
HETATM   21  C   UNL     1       2.245   0.422  -0.595  1.00  0.00     0.069 A 
HETATM   22  O   UNL     1       1.209   2.468  -1.141  1.00  0.00    -0.346 OA
HETATM   23  C   UNL     1      -0.072   3.019  -1.469  1.00  0.00     0.202 C 
HETATM   24  C   UNL     1      -1.060   2.787  -0.338  1.00  0.00     0.202 C 
ENDBRANCH  13  15
ENDBRANCH   1  13
TORSDOF 2
