REMARK  5 active torsions:
REMARK  status: ('A' for Active; 'I' for Inactive)
REMARK    1  A    between atoms: C_4  and  N_5 
REMARK    2  A    between atoms: N_5  and  N_6 
REMARK       I    between atoms: N_6  and  C_7 
REMARK    3  A    between atoms: C_7  and  C_8 
REMARK    4  A    between atoms: C_12  and  C_13 
REMARK    5  A    between atoms: C_13  and  C_14 
ROOT
HETATM    1  C   UNL     1       5.873   0.273  -0.774  1.00  0.00     0.102 A 
HETATM    2  N   UNL     1       5.283   1.516  -0.711  1.00  0.00    -0.360 N 
HETATM    3  H   UNL     1       4.280   1.657  -0.669  1.00  0.00     0.165 HD
HETATM    4  C   UNL     1       6.239   2.498  -0.698  1.00  0.00     0.104 A 
HETATM    5  C   UNL     1       7.483   1.898  -0.773  1.00  0.00     0.033 A 
HETATM    6  C   UNL     1       7.238   0.493  -0.845  1.00  0.00     0.052 A 
ENDROOT
BRANCH   1   7
HETATM    7  C   UNL     1       5.088  -0.943  -0.763  1.00  0.00     0.282 C 
HETATM    8  N   UNL     1       5.822  -2.116  -0.723  1.00  0.00    -0.281 N 
HETATM    9  H   UNL     1       6.808  -2.117  -0.487  1.00  0.00     0.184 HD
HETATM   10  O   UNL     1       3.858  -0.936  -0.769  1.00  0.00    -0.265 OA
BRANCH   8  11
HETATM   11  N   UNL     1       5.136  -3.315  -0.439  1.00  0.00    -0.203 NA
HETATM   12  H   UNL     1       4.122  -3.163  -0.541  1.00  0.00     0.153 HD
BRANCH  11  13
HETATM   13  C   UNL     1       5.515  -4.392  -1.283  1.00  0.00     0.027 A 
HETATM   14  C   UNL     1       5.254  -5.695  -0.838  1.00  0.00     0.025 A 
HETATM   15  C   UNL     1       5.552  -6.801  -1.637  1.00  0.00     0.002 A 
HETATM   16  C   UNL     1       6.091  -6.615  -2.907  1.00  0.00     0.000 A 
HETATM   17  C   UNL     1       6.322  -5.325  -3.380  1.00  0.00     0.002 A 
HETATM   18  C   UNL     1       6.026  -4.220  -2.577  1.00  0.00     0.025 A 
ENDBRANCH  11  13
ENDBRANCH   8  11
ENDBRANCH   1   7
BRANCH   5  19
HETATM   19  C   UNL     1       8.797   2.536  -0.786  1.00  0.00     0.195 C 
HETATM   20  O   UNL     1       9.830   1.910  -0.999  1.00  0.00    -0.287 OA
BRANCH  19  21
HETATM   21  C   UNL     1       8.898   3.968  -0.451  1.00  0.00     0.037 A 
HETATM   22  C   UNL     1       9.327   4.907  -1.395  1.00  0.00     0.049 A 
HETATM   23 CL   UNL     1       9.656   4.485  -3.035  1.00  0.00    -0.083 Cl
HETATM   24  C   UNL     1       9.470   6.247  -1.023  1.00  0.00     0.048 A 
HETATM   25  C   UNL     1       9.187   6.637   0.286  1.00  0.00     0.035 A 
HETATM   26 CL   UNL     1       9.367   8.286   0.742  1.00  0.00    -0.084 Cl
HETATM   27  C   UNL     1       8.760   5.704   1.231  1.00  0.00     0.025 A 
HETATM   28  C   UNL     1       8.619   4.365   0.866  1.00  0.00     0.019 A 
ENDBRANCH  19  21
ENDBRANCH   5  19
TORSDOF 5
