REMARK  6 active torsions:
REMARK  status: ('A' for Active; 'I' for Inactive)
REMARK    1  A    between atoms: C_2  and  C_3 
REMARK    2  A    between atoms: C_5  and  N_6 
REMARK       I    between atoms: N_6  and  C_7 
REMARK    3  A    between atoms: C_7  and  C_8 
REMARK    4  A    between atoms: N_11  and  C_12 
REMARK    5  A    between atoms: C_18  and  C_19 
REMARK    6  A    between atoms: C_28  and  O_29 
ROOT
HETATM    1  C   UNL     1       1.643   3.676   1.242  1.00  0.00     0.081 C 
HETATM    2  C   UNL     1       0.139   3.377   1.099  1.00  0.00     0.034 C 
HETATM    3  C   UNL     1      -0.235   2.732  -0.240  1.00  0.00     0.125 C 
HETATM    4  N   UNL     1       0.592   1.546  -0.507  1.00  0.00    -0.364 N 
HETATM    5  C   UNL     1       2.038   1.831  -0.448  1.00  0.00     0.125 C 
HETATM    6  C   UNL     1       2.419   2.400   0.910  1.00  0.00     0.034 C 
ENDROOT
BRANCH   1   7
HETATM    7  C   UNL     1       2.061   4.866   0.382  1.00  0.00     0.226 C 
HETATM    8  N   UNL     1       3.315   5.390   0.381  1.00  0.00    -0.324 N 
HETATM    9  H   UNL     1       3.414   6.039  -0.394  1.00  0.00     0.169 HD
HETATM   10  O   UNL     1       1.251   5.396  -0.389  1.00  0.00    -0.273 OA
BRANCH   8  11
HETATM   11  C   UNL     1       4.507   5.180   1.102  1.00  0.00     0.068 A 
HETATM   12  C   UNL     1       4.641   4.416   2.262  1.00  0.00     0.040 A 
HETATM   13  C   UNL     1       5.902   4.150   2.846  1.00  0.00    -0.048 A 
HETATM   14  C   UNL     1       7.035   4.713   2.231  1.00  0.00     0.011 A 
HETATM   15  C   UNL     1       6.915   5.542   1.117  1.00  0.00     0.039 A 
HETATM   16  C   UNL     1       5.659   5.782   0.581  1.00  0.00     0.092 A 
BRANCH  13  17
HETATM   17  C   UNL     1       6.037   3.196   4.051  1.00  0.00    -0.024 C 
HETATM   18  C   UNL     1       6.211   1.765   3.505  1.00  0.00     0.019 C 
HETATM   19  C   UNL     1       4.798   3.218   4.977  1.00  0.00     0.019 C 
HETATM   20  C   UNL     1       7.254   3.536   4.942  1.00  0.00     0.019 C 
ENDBRANCH  13  17
BRANCH  16  21
HETATM   21  O   UNL     1       5.577   6.620  -0.499  1.00  0.00    -0.358 OA
HETATM   22  H   UNL     1       5.135   7.425  -0.175  1.00  0.00     0.218 HD
ENDBRANCH  16  21
ENDBRANCH   8  11
ENDBRANCH   1   7
BRANCH   4  23
HETATM   23  C   UNL     1       0.167   0.504  -1.343  1.00  0.00     0.146 A 
HETATM   24  N   UNL     1       1.094  -0.266  -1.869  1.00  0.00    -0.146 NA
HETATM   25  N   UNL     1       0.654  -1.267  -2.669  1.00  0.00    -0.188 N 
HETATM   26  C   UNL     1      -0.648  -1.564  -2.994  1.00  0.00     0.175 A 
HETATM   27  C   UNL     1       1.412  -2.197  -3.324  1.00  0.00     0.258 A 
HETATM   28  C   UNL     1      -1.649  -0.758  -2.428  1.00  0.00     0.058 A 
HETATM   29  N   UNL     1      -0.680  -2.601  -3.801  1.00  0.00    -0.128 NA
HETATM   30  C   UNL     1      -1.295   0.249  -1.619  1.00  0.00     0.056 A 
HETATM   31  N   UNL     1       0.620  -3.003  -4.012  1.00  0.00    -0.123 NA
BRANCH  27  32
HETATM   32  C   UNL     1       2.876  -2.202  -3.202  1.00  0.00     0.454 C 
HETATM   33  F   UNL     1       3.294  -2.367  -1.918  1.00  0.00    -0.163 F 
HETATM   34  F   UNL     1       3.453  -3.208  -3.915  1.00  0.00    -0.163 F 
HETATM   35  F   UNL     1       3.443  -1.050  -3.654  1.00  0.00    -0.163 F 
ENDBRANCH  27  32
ENDBRANCH   4  23
TORSDOF 6
