REMARK  4 active torsions:
REMARK  status: ('A' for Active; 'I' for Inactive)
REMARK    1  A    between atoms: C_6  and  C_7 
REMARK       I    between atoms: C_7  and  N_8 
REMARK    2  A    between atoms: N_8  and  C_9 
REMARK    3  A    between atoms: C_16  and  C_17 
REMARK       I    between atoms: C_17  and  N_18 
REMARK    4  A    between atoms: C_25  and  O_26 
ROOT
HETATM    1  C   UNL     1       2.834   2.465  -0.095  1.00  0.00     0.259 C 
HETATM    2  N   UNL     1       3.866   3.343  -0.368  1.00  0.00    -0.323 N 
HETATM    3  O   UNL     1       1.667   2.778   0.103  1.00  0.00    -0.267 OA
HETATM    4  H   UNL     1       4.761   2.929  -0.582  1.00  0.00     0.169 HD
ENDROOT
BRANCH   2   5
HETATM    5  C   UNL     1       3.801   4.751  -0.470  1.00  0.00     0.036 A 
HETATM    6  C   UNL     1       2.614   5.489  -0.365  1.00  0.00     0.046 A 
HETATM    7  C   UNL     1       2.650   6.894  -0.510  1.00  0.00     0.030 A 
HETATM    8  C   UNL     1       3.872   7.515  -0.731  1.00  0.00     0.063 A 
HETATM    9  C   UNL     1       1.692   7.954  -0.506  1.00  0.00     0.156 A 
HETATM   10  N   UNL     1       3.591   8.850  -0.818  1.00  0.00    -0.277 N 
HETATM   11  C   UNL     1       5.075   6.814  -0.829  1.00  0.00     0.034 A 
HETATM   12  H   UNL     1       4.247   9.607  -0.971  1.00  0.00     0.189 HD
HETATM   13  N   UNL     1       2.289   9.153  -0.695  1.00  0.00    -0.168 NA
HETATM   14  C   UNL     1       5.011   5.420  -0.703  1.00  0.00     0.032 A 
BRANCH   9  15
HETATM   15  C   UNL     1       0.236   7.846  -0.342  1.00  0.00     0.270 C 
HETATM   16  N   UNL     1      -0.425   9.043  -0.408  1.00  0.00    -0.365 N 
HETATM   17  H   UNL     1       0.113   9.886  -0.573  1.00  0.00     0.159 HD
HETATM   18  H   UNL     1      -1.429   9.063  -0.331  1.00  0.00     0.159 HD
HETATM   19  O   UNL     1      -0.372   6.795  -0.170  1.00  0.00    -0.266 OA
ENDBRANCH   9  15
ENDBRANCH   2   5
BRANCH   1  20
HETATM   20  C   UNL     1       3.235   1.060  -0.099  1.00  0.00     0.074 A 
HETATM   21  C   UNL     1       2.367   0.025  -0.426  1.00  0.00     0.066 A 
HETATM   22  C   UNL     1       0.940  -0.014  -0.818  1.00  0.00     0.078 C 
HETATM   23  O   UNL     1       3.005  -1.174  -0.383  1.00  0.00    -0.314 OA
HETATM   24  C   UNL     1       4.282  -0.935   0.005  1.00  0.00     0.087 A 
HETATM   25  C   UNL     1       4.486   0.424   0.216  1.00  0.00     0.019 A 
HETATM   26  C   UNL     1       5.254  -1.916   0.180  1.00  0.00     0.041 A 
HETATM   27  C   UNL     1       5.762   0.833   0.675  1.00  0.00     0.052 A 
HETATM   28  C   UNL     1       6.772  -0.127   0.849  1.00  0.00     0.069 A 
HETATM   29  C   UNL     1       6.511  -1.479   0.603  1.00  0.00     0.039 A 
BRANCH  28  30
HETATM   30  O   UNL     1       8.051   0.129   1.266  1.00  0.00    -0.356 OA
HETATM   31  C   UNL     1       8.428   1.492   1.410  1.00  0.00     0.210 C 
ENDBRANCH  28  30
ENDBRANCH   1  20
TORSDOF 4
