REMARK  5 active torsions:
REMARK  status: ('A' for Active; 'I' for Inactive)
REMARK    1  A    between atoms: C_9  and  N_10 
REMARK       I    between atoms: N_10  and  C_11 
REMARK    2  A    between atoms: C_11  and  C_12 
REMARK    3  A    between atoms: C_12  and  N_13 
REMARK    4  A    between atoms: C_12  and  C_17 
REMARK    5  A    between atoms: C_17  and  C_18 
ROOT
HETATM    1  N   UNL     1      -5.734  -0.068  -2.450  1.00  0.00    -0.325 N 
HETATM    2  C   UNL     1      -5.848   0.986  -1.566  1.00  0.00     0.253 C 
HETATM    3  O   UNL     1      -6.459   2.041  -1.736  1.00  0.00    -0.271 OA
HETATM    4  H   UNL     1      -5.216  -0.893  -2.167  1.00  0.00     0.169 HD
ENDROOT
BRANCH   2   5
HETATM    5  C   UNL     1      -5.133   0.785  -0.224  1.00  0.00     0.280 C 
BRANCH   5   6
HETATM    6  N   UNL     1      -5.619   1.832   0.753  1.00  0.00    -0.066 N 
HETATM    7  H   UNL     1      -4.986   1.846   1.580  1.00  0.00     0.275 HD
HETATM    8  H   UNL     1      -5.605   2.760   0.308  1.00  0.00     0.275 HD
HETATM    9  H   UNL     1      -6.580   1.660   1.062  1.00  0.00     0.275 HD
ENDBRANCH   5   6
BRANCH   5  10
HETATM   10  C   UNL     1      -3.613   0.898  -0.399  1.00  0.00     0.103 C 
BRANCH  10  11
HETATM   11  C   UNL     1      -2.883   0.765   0.894  1.00  0.00     0.053 A 
HETATM   12  N   UNL     1      -3.461   1.219   2.063  1.00  0.00    -0.247 NA
HETATM   13  C   UNL     1      -2.570   0.983   3.003  1.00  0.00     0.207 A 
HETATM   14  N   UNL     1      -1.445   0.395   2.495  1.00  0.00    -0.359 N 
HETATM   15  H   UNL     1      -0.622   0.127   3.023  1.00  0.00     0.166 HD
HETATM   16  C   UNL     1      -1.634   0.248   1.146  1.00  0.00     0.116 A 
ENDBRANCH  10  11
ENDBRANCH   5  10
ENDBRANCH   2   5
BRANCH   1  17
HETATM   17  C   UNL     1      -6.303  -0.158  -3.742  1.00  0.00     0.035 A 
HETATM   18  C   UNL     1      -7.076   0.843  -4.328  1.00  0.00     0.030 A 
HETATM   19  C   UNL     1      -7.611   0.667  -5.609  1.00  0.00     0.014 A 
HETATM   20  C   UNL     1      -7.383  -0.511  -6.332  1.00  0.00    -0.026 A 
HETATM   21  C   UNL     1      -7.918  -0.698  -7.617  1.00  0.00     0.012 A 
HETATM   22  C   UNL     1      -6.598  -1.530  -5.752  1.00  0.00    -0.024 A 
HETATM   23  C   UNL     1      -7.680  -1.878  -8.322  1.00  0.00     0.001 A 
HETATM   24  C   UNL     1      -6.904  -2.884  -7.753  1.00  0.00     0.001 A 
HETATM   25  C   UNL     1      -6.366  -2.712  -6.476  1.00  0.00     0.012 A 
HETATM   26  C   UNL     1      -6.068  -1.339  -4.462  1.00  0.00     0.042 A 
ENDBRANCH   1  17
TORSDOF 5
