REMARK  5 active torsions:
REMARK  status: ('A' for Active; 'I' for Inactive)
REMARK    1  A    between atoms: C_8  and  C_9 
REMARK    2  A    between atoms: C_9  and  C_10 
REMARK       I    between atoms: C_10  and  N_11 
REMARK    3  A    between atoms: N_11  and  N_12 
REMARK       I    between atoms: N_12  and  C_13 
REMARK    4  A    between atoms: C_13  and  C_14 
REMARK    5  A    between atoms: C_16  and  C_17 
ROOT
HETATM    1  C   UNL     1      -1.391  -3.699   0.031  1.00  0.00     0.240 C 
HETATM    2  N   UNL     1      -0.151  -4.224  -0.291  1.00  0.00    -0.267 N 
HETATM    3  O   UNL     1      -1.618  -2.490   0.057  1.00  0.00    -0.272 OA
HETATM    4  H   UNL     1       0.110  -5.168  -0.008  1.00  0.00     0.190 HD
ENDROOT
BRANCH   2   5
HETATM    5  N   UNL     1       0.901  -3.348  -0.555  1.00  0.00    -0.263 N 
HETATM    6  C   UNL     1       2.162  -3.674  -0.103  1.00  0.00     0.270 C 
HETATM    7  O   UNL     1       2.405  -4.650   0.599  1.00  0.00    -0.266 OA
HETATM    8  H   UNL     1       0.657  -2.420  -0.897  1.00  0.00     0.190 HD
BRANCH   6   9
HETATM    9  C   UNL     1       3.244  -2.769  -0.553  1.00  0.00     0.034 A 
HETATM   10  C   UNL     1       3.309  -2.378  -1.898  1.00  0.00     0.029 A 
HETATM   11  C   UNL     1       4.373  -1.593  -2.358  1.00  0.00    -0.023 A 
HETATM   12  C   UNL     1       5.353  -1.183  -1.441  1.00  0.00     0.012 A 
HETATM   13  C   UNL     1       5.287  -1.577  -0.099  1.00  0.00     0.002 A 
HETATM   14  C   UNL     1       4.241  -2.384   0.344  1.00  0.00     0.017 A 
BRANCH  11  15
HETATM   15  C   UNL     1       4.456  -1.245  -3.768  1.00  0.00    -0.002 A 
HETATM   16  C   UNL     1       5.636  -1.073  -4.465  1.00  0.00     0.153 A 
HETATM   17  O   UNL     1       5.392  -0.798  -5.773  1.00  0.00    -0.334 OA
HETATM   18  C   UNL     1       4.045  -0.799  -5.930  1.00  0.00     0.142 A 
HETATM   19  C   UNL     1       3.423  -1.071  -4.734  1.00  0.00     0.038 A 
ENDBRANCH  11  15
ENDBRANCH   6   9
ENDBRANCH   2   5
BRANCH   1  20
HETATM   20  C   UNL     1      -2.456  -4.759   0.210  1.00  0.00     0.145 C 
BRANCH  20  21
HETATM   21  C   UNL     1      -2.804  -5.138   1.614  1.00  0.00    -0.021 A 
HETATM   22  C   UNL     1      -1.962  -5.297   2.770  1.00  0.00    -0.001 A 
HETATM   23  C   UNL     1      -0.593  -5.097   3.049  1.00  0.00     0.014 A 
HETATM   24  C   UNL     1      -2.765  -5.793   3.802  1.00  0.00     0.042 A 
HETATM   25  C   UNL     1      -0.083  -5.405   4.318  1.00  0.00     0.001 A 
HETATM   26  C   UNL     1      -0.912  -5.911   5.314  1.00  0.00     0.002 A 
HETATM   27  C   UNL     1      -2.272  -6.111   5.074  1.00  0.00     0.030 A 
HETATM   28  N   UNL     1      -4.045  -5.893   3.315  1.00  0.00    -0.365 N 
HETATM   29  H   UNL     1      -4.836  -6.225   3.849  1.00  0.00     0.165 HD
HETATM   30  C   UNL     1      -4.080  -5.510   2.005  1.00  0.00     0.097 A 
ENDBRANCH  20  21
ENDBRANCH   1  20
TORSDOF 5
