REMARK  4 active torsions:
REMARK  status: ('A' for Active; 'I' for Inactive)
REMARK    1  A    between atoms: C_3  and  N_4 
REMARK       I    between atoms: N_4  and  C_5 
REMARK    2  A    between atoms: C_5  and  C_6 
REMARK    3  A    between atoms: C_7  and  C_8 
REMARK    4  A    between atoms: C_15  and  C_16 
ROOT
HETATM    1  C   UNL     1      -0.765   1.313  -0.002  1.00  0.00     0.003 A 
HETATM    2  C   UNL     1       0.632   1.303   0.010  1.00  0.00     0.029 A 
HETATM    3  C   UNL     1       1.330   0.108  -0.159  1.00  0.00     0.035 A 
HETATM    4  C   UNL     1       0.605  -1.082  -0.339  1.00  0.00     0.042 A 
HETATM    5  C   UNL     1      -0.799  -1.085  -0.357  1.00  0.00    -0.021 A 
HETATM    6  C   UNL     1      -1.476   0.127  -0.185  1.00  0.00     0.012 A 
ENDROOT
BRANCH   3   7
HETATM    7  N   UNL     1       2.739   0.011  -0.166  1.00  0.00    -0.324 N 
HETATM    8  C   UNL     1       3.650   1.039  -0.027  1.00  0.00     0.245 C 
HETATM    9  O   UNL     1       3.408   2.228   0.134  1.00  0.00    -0.268 OA
HETATM   10  H   UNL     1       3.110  -0.920  -0.300  1.00  0.00     0.169 HD
BRANCH   8  11
HETATM   11  C   UNL     1       5.053   0.548  -0.100  1.00  0.00     0.077 C 
HETATM   12  C   UNL     1       6.065   1.425  -0.042  1.00  0.00     0.042 C 
BRANCH  12  13
HETATM   13  C   UNL     1       7.415   0.985  -0.117  1.00  0.00     0.075 A 
HETATM   14  O   UNL     1       7.794  -0.335  -0.234  1.00  0.00    -0.323 OA
HETATM   15  C   UNL     1       9.147  -0.390  -0.280  1.00  0.00     0.142 A 
HETATM   16  C   UNL     1       9.680   0.870  -0.196  1.00  0.00     0.027 A 
HETATM   17  C   UNL     1       8.576   1.749  -0.091  1.00  0.00     0.039 A 
ENDBRANCH  12  13
ENDBRANCH   8  11
ENDBRANCH   3   7
BRANCH   5  18
HETATM   18  C   UNL     1      -1.524  -2.331  -0.545  1.00  0.00     0.010 A 
HETATM   19  C   UNL     1      -1.175  -3.663  -0.221  1.00  0.00     0.152 A 
HETATM   20  N   UNL     1      -2.113  -4.546  -0.576  1.00  0.00    -0.187 NA
HETATM   21  N   UNL     1      -3.068  -3.783  -1.128  1.00  0.00    -0.289 N 
HETATM   22  H   UNL     1      -3.903  -4.238  -1.484  1.00  0.00     0.188 HD
HETATM   23  C   UNL     1      -2.764  -2.452  -1.136  1.00  0.00     0.123 A 
ENDBRANCH   5  18
TORSDOF 4
