REMARK  4 active torsions:
REMARK  status: ('A' for Active; 'I' for Inactive)
REMARK    1  A    between atoms: C_7  and  C_8 
REMARK       I    between atoms: C_8  and  N_9 
REMARK    2  A    between atoms: N_9  and  N_10 
REMARK       I    between atoms: N_10  and  C_11 
REMARK    3  A    between atoms: C_11  and  C_12 
REMARK    4  A    between atoms: C_12  and  C_13 
ROOT
HETATM    1  C   UNL     1       1.635  -3.819  -0.260  1.00  0.00     0.273 C 
HETATM    2  N   UNL     1       1.165  -2.595  -0.702  1.00  0.00    -0.263 N 
HETATM    3  O   UNL     1       1.350  -4.267   0.849  1.00  0.00    -0.266 OA
HETATM    4  H   UNL     1       1.109  -2.441  -1.708  1.00  0.00     0.190 HD
ENDROOT
BRANCH   2   5
HETATM    5  N   UNL     1       0.134  -1.979   0.045  1.00  0.00    -0.267 N 
HETATM    6  C   UNL     1      -0.999  -1.622  -0.655  1.00  0.00     0.240 C 
HETATM    7  O   UNL     1      -1.037  -1.679  -1.888  1.00  0.00    -0.272 OA
HETATM    8  H   UNL     1       0.074  -2.269   1.023  1.00  0.00     0.190 HD
BRANCH   6   9
HETATM    9  C   UNL     1      -2.175  -1.081   0.137  1.00  0.00     0.144 C 
BRANCH   9  10
HETATM   10  C   UNL     1      -2.095  -1.184   1.647  1.00  0.00    -0.038 A 
HETATM   11  C   UNL     1      -2.470  -2.359   2.357  1.00  0.00    -0.019 A 
HETATM   12  C   UNL     1      -2.384  -2.354   3.773  1.00  0.00    -0.025 A 
HETATM   13  C   UNL     1      -2.929  -3.544   1.736  1.00  0.00     0.013 A 
HETATM   14  C   UNL     1      -2.765  -3.489   4.508  1.00  0.00     0.012 A 
HETATM   15  C   UNL     1      -1.916  -1.214   4.443  1.00  0.00     0.012 A 
HETATM   16  C   UNL     1      -3.224  -4.637   3.866  1.00  0.00     0.001 A 
HETATM   17  C   UNL     1      -3.301  -4.666   2.481  1.00  0.00     0.001 A 
HETATM   18  C   UNL     1      -1.530  -0.079   3.738  1.00  0.00     0.001 A 
HETATM   19  C   UNL     1      -1.618  -0.063   2.352  1.00  0.00     0.008 A 
ENDBRANCH   9  10
ENDBRANCH   6   9
ENDBRANCH   2   5
BRANCH   1  20
HETATM   20  C   UNL     1       2.435  -4.551  -1.242  1.00  0.00     0.068 A 
HETATM   21  C   UNL     1       3.295  -4.023  -2.203  1.00  0.00     0.022 A 
HETATM   22  C   UNL     1       3.717  -2.629  -2.505  1.00  0.00     0.069 C 
HETATM   23  N   UNL     1       3.811  -5.076  -2.922  1.00  0.00    -0.358 N 
HETATM   24  H   UNL     1       4.465  -4.993  -3.688  1.00  0.00     0.166 HD
HETATM   25  C   UNL     1       3.339  -6.273  -2.442  1.00  0.00     0.043 A 
HETATM   26  C   UNL     1       2.488  -5.980  -1.378  1.00  0.00     0.008 A 
HETATM   27  C   UNL     1       3.605  -7.580  -2.867  1.00  0.00     0.030 A 
HETATM   28  C   UNL     1       1.869  -7.054  -0.704  1.00  0.00     0.015 A 
HETATM   29  C   UNL     1       2.121  -8.368  -1.114  1.00  0.00     0.001 A 
HETATM   30  C   UNL     1       2.977  -8.624  -2.182  1.00  0.00     0.002 A 
ENDBRANCH   1  20
TORSDOF 4
