REMARK  7 active torsions:
REMARK  status: ('A' for Active; 'I' for Inactive)
REMARK    1  A    between atoms: C_4  and  C_5 
REMARK    2  A    between atoms: C_9  and  C_10 
REMARK    3  A    between atoms: C_10  and  C_11 
REMARK    4  A    between atoms: C_11  and  C_12 
REMARK    5  A    between atoms: C_12  and  O_13 
REMARK    6  A    between atoms: C_18  and  C_19 
REMARK       I    between atoms: C_19  and  N_20 
REMARK    7  A    between atoms: N_20  and  C_21 
ROOT
HETATM    1  C   UNL     1       5.971   2.551  -0.711  1.00  0.00     0.202 A 
HETATM    2  N   UNL     1       5.798   3.570  -1.754  1.00  0.00    -0.083 N 
HETATM    3  C   UNL     1       5.682   4.906  -1.503  1.00  0.00     0.726 A 
HETATM    4  N   UNL     1       5.448   5.547  -2.618  1.00  0.00    -0.046 NA
HETATM    5  C   UNL     1       5.375   4.536  -3.543  1.00  0.00     0.166 A 
HETATM    6  N   UNL     1       5.571   3.298  -3.061  1.00  0.00    -0.140 NA
HETATM    7  N   UNL     1       5.779   5.344  -0.239  1.00  0.00    -0.192 N 
HETATM    8  C   UNL     1       5.926   4.507   0.862  1.00  0.00     0.037 A 
HETATM    9  C   UNL     1       5.916   5.215   2.198  1.00  0.00     0.070 C 
HETATM   10  C   UNL     1       6.030   3.157   0.696  1.00  0.00     0.062 A 
HETATM   11  H   UNL     1       5.675   6.340  -0.063  1.00  0.00     0.184 HD
ENDROOT
BRANCH  10  12
HETATM   12  C   UNL     1       6.241   2.260   1.892  1.00  0.00     0.256 C 
HETATM   13  N   UNL     1       5.963   0.918   1.710  1.00  0.00    -0.323 N 
HETATM   14  H   UNL     1       5.960   0.564   0.766  1.00  0.00     0.169 HD
HETATM   15  O   UNL     1       6.734   2.721   2.919  1.00  0.00    -0.267 OA
BRANCH  13  16
HETATM   16  C   UNL     1       6.226  -0.079   2.683  1.00  0.00     0.041 A 
HETATM   17  C   UNL     1       5.878   0.016   4.041  1.00  0.00    -0.035 A 
HETATM   18  C   UNL     1       5.075   1.143   4.629  1.00  0.00     0.050 C 
HETATM   19  C   UNL     1       6.266  -1.021   4.912  1.00  0.00     0.009 A 
HETATM   20  C   UNL     1       6.935  -2.150   4.439  1.00  0.00     0.001 A 
HETATM   21  C   UNL     1       7.216  -2.268   3.084  1.00  0.00     0.002 A 
HETATM   22  C   UNL     1       6.853  -1.244   2.209  1.00  0.00     0.030 A 
ENDBRANCH  13  16
ENDBRANCH  10  12
BRANCH   1  23
HETATM   23  C   UNL     1       7.133   1.624  -1.075  1.00  0.00    -0.028 A 
HETATM   24  C   UNL     1       8.429   1.794  -0.557  1.00  0.00     0.016 A 
HETATM   25  C   UNL     1       9.447   0.875  -0.846  1.00  0.00    -0.061 A 
HETATM   26  C   UNL     1      10.799   1.012  -0.208  1.00  0.00     0.048 C 
HETATM   27  C   UNL     1       9.172  -0.215  -1.678  1.00  0.00     0.007 A 
HETATM   28  C   UNL     1       7.905  -0.375  -2.233  1.00  0.00     0.001 A 
HETATM   29  C   UNL     1       6.894   0.535  -1.934  1.00  0.00     0.010 A 
ENDBRANCH   1  23
BRANCH   5  30
HETATM   30  C   UNL     1       5.144   4.797  -4.986  1.00  0.00     0.085 C 
BRANCH  30  31
HETATM   31  C   UNL     1       6.374   5.365  -5.694  1.00  0.00     0.034 C 
BRANCH  31  32
HETATM   32  C   UNL     1       7.637   4.524  -5.535  1.00  0.00     0.164 C 
BRANCH  32  33
HETATM   33  O   UNL     1       7.388   3.161  -5.847  1.00  0.00    -0.401 OA
HETATM   34  H   UNL     1       6.974   2.765  -5.055  1.00  0.00     0.209 HD
ENDBRANCH  32  33
ENDBRANCH  31  32
ENDBRANCH  30  31
ENDBRANCH   5  30
TORSDOF 7
