REMARK  6 active torsions:
REMARK  status: ('A' for Active; 'I' for Inactive)
REMARK    1  A    between atoms: O_2  and  C_3 
REMARK    2  A    between atoms: C_6  and  C_7 
REMARK    3  A    between atoms: N_9  and  C_10 
REMARK    4  A    between atoms: C_17  and  C_18 
REMARK       I    between atoms: C_18  and  N_19 
REMARK    5  A    between atoms: N_19  and  N_20 
REMARK       I    between atoms: N_20  and  C_21 
REMARK    6  A    between atoms: C_21  and  C_22 
ROOT
HETATM    1  C   UNL     1       4.281   4.918  -2.201  1.00  0.00     0.105 A 
HETATM    2  N   UNL     1       3.879   6.167  -1.893  1.00  0.00    -0.166 NA
HETATM    3  N   UNL     1       4.550   7.006  -2.705  1.00  0.00    -0.244 N 
HETATM    4  C   UNL     1       5.386   6.317  -3.542  1.00  0.00     0.138 A 
HETATM    5  C   UNL     1       5.252   4.969  -3.251  1.00  0.00     0.082 A 
ENDROOT
BRANCH   5   6
HETATM    6  C   UNL     1       6.001   3.925  -3.926  1.00  0.00     0.274 C 
HETATM    7  N   UNL     1       6.092   4.113  -5.291  1.00  0.00    -0.263 N 
HETATM    8  H   UNL     1       5.597   4.854  -5.785  1.00  0.00     0.190 HD
HETATM    9  O   UNL     1       6.517   2.968  -3.358  1.00  0.00    -0.266 OA
BRANCH   7  10
HETATM   10  N   UNL     1       6.729   3.154  -6.084  1.00  0.00    -0.262 N 
HETATM   11  C   UNL     1       6.805   3.376  -7.443  1.00  0.00     0.286 C 
HETATM   12  O   UNL     1       6.307   4.377  -7.959  1.00  0.00    -0.264 OA
HETATM   13  H   UNL     1       7.166   2.369  -5.610  1.00  0.00     0.190 HD
BRANCH  11  14
HETATM   14  C   UNL     1       7.504   2.371  -8.209  1.00  0.00     0.102 A 
HETATM   15  N   UNL     1       7.688   2.509  -9.570  1.00  0.00    -0.361 N 
HETATM   16  H   UNL     1       7.354   3.303 -10.104  1.00  0.00     0.165 HD
HETATM   17  C   UNL     1       8.376   1.436 -10.069  1.00  0.00     0.088 A 
HETATM   18  C   UNL     1       8.639   0.583  -9.024  1.00  0.00     0.019 A 
HETATM   19  C   UNL     1       8.092   1.166  -7.854  1.00  0.00     0.036 A 
ENDBRANCH  11  14
ENDBRANCH   7  10
ENDBRANCH   5   6
BRANCH   1  20
HETATM   20  C   UNL     1       3.652   3.783  -1.490  1.00  0.00    -0.004 A 
HETATM   21  C   UNL     1       2.789   4.037  -0.406  1.00  0.00     0.016 A 
HETATM   22  C   UNL     1       2.125   3.006   0.273  1.00  0.00     0.037 A 
HETATM   23  C   UNL     1       2.314   1.684  -0.115  1.00  0.00     0.068 A 
HETATM   24  C   UNL     1       3.180   1.412  -1.172  1.00  0.00     0.037 A 
HETATM   25  C   UNL     1       3.829   2.447  -1.862  1.00  0.00     0.016 A 
BRANCH  23  26
HETATM   26  O   UNL     1       1.727   0.587   0.451  1.00  0.00    -0.356 OA
HETATM   27  C   UNL     1       0.638   0.834   1.331  1.00  0.00     0.210 C 
ENDBRANCH  23  26
ENDBRANCH   1  20
BRANCH   3  28
HETATM   28  C   UNL     1       4.338   8.412  -2.642  1.00  0.00     0.058 A 
HETATM   29  C   UNL     1       3.425   8.930  -1.711  1.00  0.00     0.031 A 
HETATM   30  C   UNL     1       3.194  10.306  -1.640  1.00  0.00     0.002 A 
HETATM   31  C   UNL     1       3.871  11.173  -2.495  1.00  0.00     0.000 A 
HETATM   32  C   UNL     1       4.781  10.667  -3.421  1.00  0.00     0.002 A 
HETATM   33  C   UNL     1       5.018   9.291  -3.498  1.00  0.00     0.031 A 
ENDBRANCH   3  28
TORSDOF 6
