REMARK  6 active torsions:
REMARK  status: ('A' for Active; 'I' for Inactive)
REMARK    1  A    between atoms: C_4  and  C_5 
REMARK    2  A    between atoms: C_5  and  N_6 
REMARK    3  A    between atoms: C_7  and  N_8 
REMARK    4  A    between atoms: N_8  and  N_9 
REMARK       I    between atoms: N_9  and  C_10 
REMARK    5  A    between atoms: C_10  and  C_11 
REMARK    6  A    between atoms: C_19  and  C_20 
ROOT
HETATM    1  N   UNL     1       5.972   3.076   0.130  1.00  0.00    -0.168 NA
HETATM    2  C   UNL     1       6.450   2.172  -0.806  1.00  0.00     0.250 C 
HETATM    3  O   UNL     1       5.653   1.506  -1.463  1.00  0.00    -0.272 OA
HETATM    4  H   UNL     1       4.959   3.008   0.216  1.00  0.00     0.156 HD
ENDROOT
BRANCH   2   5
HETATM    5  C   UNL     1       7.917   1.926  -0.917  1.00  0.00     0.042 A 
HETATM    6  C   UNL     1       8.419   0.600  -0.840  1.00  0.00     0.008 A 
HETATM    7  C   UNL     1       9.812   0.450  -0.984  1.00  0.00     0.068 A 
HETATM    8  C   UNL     1       7.639  -0.568  -0.624  1.00  0.00     0.015 A 
HETATM    9  C   UNL     1      10.368  -0.821  -0.932  1.00  0.00     0.032 A 
HETATM   10  N   UNL     1      10.646   1.485  -1.164  1.00  0.00    -0.248 NA
HETATM   11  C   UNL     1       9.590  -1.963  -0.733  1.00  0.00     0.002 A 
HETATM   12  C   UNL     1       8.220  -1.835  -0.575  1.00  0.00     0.001 A 
HETATM   13  C   UNL     1      10.151   2.742  -1.211  1.00  0.00     0.069 A 
HETATM   14  C   UNL     1       8.791   2.993  -1.129  1.00  0.00     0.050 A 
BRANCH  13  15
HETATM   15  C   UNL     1      11.155   3.812  -1.344  1.00  0.00    -0.005 A 
HETATM   16  C   UNL     1      12.294   3.632  -2.141  1.00  0.00     0.033 A 
HETATM   17  C   UNL     1      13.227   4.652  -2.232  1.00  0.00     0.117 A 
HETATM   18  N   UNL     1      13.115   5.832  -1.589  1.00  0.00    -0.273 NA
HETATM   19  C   UNL     1      12.028   5.988  -0.807  1.00  0.00     0.117 A 
HETATM   20  C   UNL     1      11.038   5.028  -0.658  1.00  0.00     0.033 A 
ENDBRANCH  13  15
ENDBRANCH   2   5
BRANCH   1  21
HETATM   21  N   UNL     1       6.421   4.412   0.102  1.00  0.00    -0.291 N 
HETATM   22  H   UNL     1       5.947   4.998  -0.574  1.00  0.00     0.183 HD
BRANCH  21  23
HETATM   23  C   UNL     1       7.092   4.974   1.158  1.00  0.00     0.182 C 
HETATM   24  N   UNL     1       7.420   6.290   1.046  1.00  0.00    -0.362 N 
HETATM   25  H   UNL     1       7.925   6.644   1.852  1.00  0.00     0.162 HD
HETATM   26  S   UNL     1       7.606   4.168   2.529  1.00  0.00    -0.040 SA
BRANCH  24  27
HETATM   27  C   UNL     1       7.060   7.278   0.041  1.00  0.00     0.160 C 
BRANCH  27  28
HETATM   28  C   UNL     1       8.261   8.067  -0.406  1.00  0.00    -0.041 A 
HETATM   29  C   UNL     1       8.811   7.866  -1.681  1.00  0.00     0.009 A 
HETATM   30  C   UNL     1       9.919   8.605  -2.100  1.00  0.00     0.001 A 
HETATM   31  C   UNL     1      10.495   9.544  -1.247  1.00  0.00     0.000 A 
HETATM   32  C   UNL     1       9.964   9.747   0.025  1.00  0.00     0.001 A 
HETATM   33  C   UNL     1       8.852   9.014   0.444  1.00  0.00     0.009 A 
ENDBRANCH  27  28
ENDBRANCH  24  27
ENDBRANCH  21  23
ENDBRANCH   1  21
TORSDOF 6
