REMARK  3 active torsions:
REMARK  status: ('A' for Active; 'I' for Inactive)
REMARK    1  A    between atoms: C_6  and  N_7 
REMARK       I    between atoms: N_7  and  C_8 
REMARK    2  A    between atoms: C_8  and  C_9 
REMARK    3  A    between atoms: C_9  and  C_10 
ROOT
HETATM    1  N   UNL     1       6.608  -0.146   0.231  1.00  0.00    -0.325 N 
HETATM    2  C   UNL     1       7.087  -1.052  -0.696  1.00  0.00     0.228 C 
HETATM    3  O   UNL     1       8.222  -1.075  -1.163  1.00  0.00    -0.273 OA
HETATM    4  H   UNL     1       5.870  -0.519   0.834  1.00  0.00     0.169 HD
ENDROOT
BRANCH   2   5
HETATM    5  C   UNL     1       6.049  -2.058  -1.154  1.00  0.00     0.165 C 
BRANCH   5   6
HETATM    6  C   UNL     1       5.373  -2.827  -0.033  1.00  0.00     0.074 A 
HETATM    7  N   UNL     1       4.705  -2.108   0.823  1.00  0.00    -0.175 NA
HETATM    8  N   UNL     1       4.046  -2.735   1.829  1.00  0.00    -0.243 N 
HETATM    9  C   UNL     1       3.964  -4.092   2.018  1.00  0.00     0.272 A 
HETATM   10  H   UNL     1       3.538  -2.147   2.484  1.00  0.00     0.192 HD
HETATM   11  O   UNL     1       3.315  -4.587   2.932  1.00  0.00    -0.266 OA
HETATM   12  C   UNL     1       4.708  -4.924   1.059  1.00  0.00     0.046 A 
HETATM   13  C   UNL     1       5.440  -4.311   0.040  1.00  0.00     0.006 A 
HETATM   14  C   UNL     1       4.678  -6.319   1.186  1.00  0.00     0.018 A 
HETATM   15  C   UNL     1       6.169  -5.113  -0.846  1.00  0.00     0.014 A 
HETATM   16  C   UNL     1       6.139  -6.508  -0.720  1.00  0.00     0.001 A 
HETATM   17  C   UNL     1       5.392  -7.110   0.290  1.00  0.00     0.001 A 
ENDBRANCH   5   6
ENDBRANCH   2   5
BRANCH   1  18
HETATM   18  C   UNL     1       7.317   0.956   0.773  1.00  0.00     0.062 A 
HETATM   19  C   UNL     1       7.164   1.213   2.152  1.00  0.00     0.061 A 
HETATM   20  C   UNL     1       7.829   2.273   2.774  1.00  0.00     0.033 A 
HETATM   21 CL   UNL     1       6.174   0.198   3.151  1.00  0.00    -0.082 Cl
HETATM   22  C   UNL     1       8.641   3.125   2.026  1.00  0.00    -0.060 A 
HETATM   23  C   UNL     1       9.392   4.242   2.687  1.00  0.00     0.048 C 
HETATM   24  C   UNL     1       8.775   2.894   0.652  1.00  0.00     0.016 A 
HETATM   25  C   UNL     1       8.095   1.840   0.003  1.00  0.00    -0.033 A 
HETATM   26  C   UNL     1       8.216   1.776  -1.495  1.00  0.00     0.050 C 
ENDBRANCH   1  18
TORSDOF 3
