REMARK  4 active torsions:
REMARK  status: ('A' for Active; 'I' for Inactive)
REMARK    1  A    between atoms: C_2  and  C_3 
REMARK    2  A    between atoms: C_3  and  N_4 
REMARK    3  A    between atoms: C_3  and  C_17 
REMARK       I    between atoms: N_4  and  C_5 
REMARK    4  A    between atoms: C_5  and  C_6 
ROOT
HETATM    1  N   UNL     1       2.519  -2.622   0.829  1.00  0.00    -0.345 N 
HETATM    2  C   UNL     1       2.684  -3.267  -0.382  1.00  0.00     0.252 C 
HETATM    3  O   UNL     1       3.551  -2.927  -1.182  1.00  0.00    -0.268 OA
HETATM    4  H   UNL     1       1.626  -2.774   1.285  1.00  0.00     0.163 HD
ENDROOT
BRANCH   1   5
HETATM    5  C   UNL     1       3.186  -1.347   1.125  1.00  0.00     0.152 C 
BRANCH   5   6
HETATM    6  C   UNL     1       2.625  -0.728   2.414  1.00  0.00     0.028 C 
HETATM    7  C   UNL     1       2.807  -1.601   3.650  1.00  0.00     0.007 C 
ENDBRANCH   5   6
BRANCH   5   8
HETATM    8  C   UNL     1       4.720  -1.446   1.083  1.00  0.00     0.104 A 
HETATM    9  N   UNL     1       5.467  -2.017   0.125  1.00  0.00    -0.347 N 
HETATM   10  H   UNL     1       5.020  -2.474  -0.683  1.00  0.00     0.167 HD
HETATM   11  C   UNL     1       6.820  -1.915   0.368  1.00  0.00     0.022 A 
HETATM   12  C   UNL     1       7.848  -2.470  -0.525  1.00  0.00     0.069 C 
HETATM   13  C   UNL     1       6.905  -1.218   1.546  1.00  0.00     0.114 A 
HETATM   14  N   UNL     1       5.616  -0.941   1.951  1.00  0.00    -0.352 N 
HETATM   15  H   UNL     1       5.376  -0.420   2.790  1.00  0.00     0.166 HD
ENDBRANCH   5   8
ENDBRANCH   1   5
BRANCH   2  16
HETATM   16  C   UNL     1       1.752  -4.388  -0.695  1.00  0.00     0.033 A 
HETATM   17  C   UNL     1       1.561  -4.714  -2.052  1.00  0.00     0.031 A 
HETATM   18  C   UNL     1       0.681  -5.760  -2.382  1.00  0.00     0.001 A 
HETATM   19  C   UNL     1       0.039  -6.437  -1.354  1.00  0.00     0.086 A 
HETATM   20  C   UNL     1       0.229  -6.367  -3.584  1.00  0.00     0.046 A 
HETATM   21  O   UNL     1      -0.770  -7.407  -1.857  1.00  0.00    -0.315 OA
HETATM   22  C   UNL     1       0.215  -6.155  -0.002  1.00  0.00     0.039 A 
HETATM   23  C   UNL     1      -0.653  -7.362  -3.215  1.00  0.00     0.050 A 
HETATM   24  C   UNL     1      -1.455  -8.338  -3.981  1.00  0.00     0.077 C 
HETATM   25  C   UNL     1       1.097  -5.113   0.314  1.00  0.00     0.020 A 
ENDBRANCH   2  16
TORSDOF 4
