REMARK  7 active torsions:
REMARK  status: ('A' for Active; 'I' for Inactive)
REMARK    1  A    between atoms: C_2  and  C_3 
REMARK    2  A    between atoms: C_2  and  C_9 
REMARK    3  A    between atoms: C_9  and  C_10 
REMARK       I    between atoms: C_10  and  N_11 
REMARK    4  A    between atoms: N_11  and  N_12 
REMARK       I    between atoms: N_12  and  C_13 
REMARK    5  A    between atoms: C_13  and  C_14 
REMARK    6  A    between atoms: C_18  and  C_19 
REMARK    7  A    between atoms: C_22  and  O_23 
ROOT
HETATM    1  N   UNL     1       4.809   0.760  -0.181  1.00  0.00    -0.262 N 
HETATM    2  C   UNL     1       5.496   1.936  -0.386  1.00  0.00     0.288 C 
HETATM    3  O   UNL     1       6.660   1.951  -0.783  1.00  0.00    -0.264 OA
HETATM    4  H   UNL     1       3.861   0.712   0.185  1.00  0.00     0.190 HD
ENDROOT
BRANCH   2   5
HETATM    5  C   UNL     1       4.748   3.132  -0.112  1.00  0.00     0.121 A 
HETATM    6  N   UNL     1       5.255   4.379  -0.341  1.00  0.00    -0.272 N 
HETATM    7  H   UNL     1       6.177   4.607  -0.702  1.00  0.00     0.189 HD
HETATM    8  N   UNL     1       4.402   5.379  -0.068  1.00  0.00    -0.174 NA
HETATM    9  C   UNL     1       3.298   4.768   0.390  1.00  0.00     0.089 A 
HETATM   10  C   UNL     1       3.477   3.357   0.378  1.00  0.00     0.071 A 
BRANCH   9  11
HETATM   11  C   UNL     1       2.106   5.513   0.800  1.00  0.00    -0.005 A 
HETATM   12  C   UNL     1       1.857   6.796   0.297  1.00  0.00     0.016 A 
HETATM   13  C   UNL     1       0.696   7.489   0.658  1.00  0.00     0.037 A 
HETATM   14  C   UNL     1      -0.234   6.917   1.528  1.00  0.00     0.068 A 
HETATM   15  C   UNL     1       0.016   5.650   2.051  1.00  0.00     0.037 A 
HETATM   16  C   UNL     1       1.177   4.953   1.689  1.00  0.00     0.016 A 
BRANCH  14  17
HETATM   17  O   UNL     1      -1.330   7.692   1.789  1.00  0.00    -0.356 OA
HETATM   18  C   UNL     1      -2.353   7.108   2.586  1.00  0.00     0.210 C 
ENDBRANCH  14  17
ENDBRANCH   9  11
ENDBRANCH   2   5
BRANCH   1  19
HETATM   19  N   UNL     1       5.440  -0.466  -0.410  1.00  0.00    -0.267 N 
HETATM   20  C   UNL     1       4.795  -1.596   0.041  1.00  0.00     0.236 C 
HETATM   21  O   UNL     1       3.648  -1.556   0.492  1.00  0.00    -0.272 OA
HETATM   22  H   UNL     1       6.430  -0.428  -0.639  1.00  0.00     0.190 HD
BRANCH  20  23
HETATM   23  C   UNL     1       5.534  -2.904  -0.157  1.00  0.00     0.113 C 
BRANCH  23  24
HETATM   24  C   UNL     1       6.981  -2.922   0.361  1.00  0.00     0.023 C 
HETATM   25  C   UNL     1       7.585  -4.320   0.181  1.00  0.00     0.015 C 
BRANCH  24  26
HETATM   26  C   UNL     1       7.114  -2.474   1.806  1.00  0.00    -0.054 A 
HETATM   27  C   UNL     1       6.357  -3.057   2.834  1.00  0.00     0.007 A 
HETATM   28  C   UNL     1       6.496  -2.623   4.154  1.00  0.00     0.001 A 
HETATM   29  C   UNL     1       7.395  -1.606   4.465  1.00  0.00     0.000 A 
HETATM   30  C   UNL     1       8.157  -1.022   3.457  1.00  0.00     0.001 A 
HETATM   31  C   UNL     1       8.019  -1.453   2.136  1.00  0.00     0.007 A 
ENDBRANCH  24  26
ENDBRANCH  23  24
ENDBRANCH  20  23
ENDBRANCH   1  19
TORSDOF 7
