REMARK  3 active torsions:
REMARK  status: ('A' for Active; 'I' for Inactive)
REMARK    1  A    between atoms: C_5  and  N_6 
REMARK       I    between atoms: N_6  and  C_7 
REMARK    2  A    between atoms: C_7  and  C_8 
REMARK    3  A    between atoms: C_8  and  N_9 
ROOT
HETATM    1  N   UNL     1       5.235  -2.484  -0.274  1.00  0.00    -0.367 N 
HETATM    2  C   UNL     1       4.469  -3.514   0.034  1.00  0.00     0.108 C 
HETATM    3  C   UNL     1       5.059  -4.873   0.139  1.00  0.00     0.014 A 
HETATM    4  C   UNL     1       4.201  -5.992   0.111  1.00  0.00    -0.042 A 
HETATM    5  C   UNL     1       4.717  -7.292   0.193  1.00  0.00     0.008 A 
HETATM    6  C   UNL     1       6.086  -7.489   0.340  1.00  0.00     0.001 A 
HETATM    7  C   UNL     1       6.944  -6.395   0.400  1.00  0.00     0.001 A 
HETATM    8  C   UNL     1       6.436  -5.096   0.302  1.00  0.00     0.016 A 
HETATM    9  C   UNL     1       2.718  -5.774  -0.047  1.00  0.00     0.069 C 
HETATM   10  C   UNL     1       2.262  -4.473   0.641  1.00  0.00     0.028 C 
HETATM   11  C   UNL     1       0.857  -4.096   0.156  1.00  0.00     0.038 C 
HETATM   12  C   UNL     1       2.267  -4.582   2.170  1.00  0.00     0.038 C 
HETATM   13  N   UNL     1       3.171  -3.355   0.266  1.00  0.00    -0.367 N 
HETATM   14  H   UNL     1       2.767  -2.436   0.175  1.00  0.00     0.162 HD
HETATM   15  H   UNL     1       6.205  -2.658  -0.543  1.00  0.00     0.161 HD
ENDROOT
BRANCH   1  16
HETATM   16  C   UNL     1       4.857  -1.063  -0.298  1.00  0.00     0.224 C 
BRANCH  16  17
HETATM   17  C   UNL     1       6.146  -0.253  -0.414  1.00  0.00     0.239 C 
HETATM   18  N   UNL     1       6.041   1.026   0.099  1.00  0.00    -0.326 N 
HETATM   19  H   UNL     1       5.216   1.268   0.635  1.00  0.00     0.169 HD
HETATM   20  O   UNL     1       7.141  -0.785  -0.904  1.00  0.00    -0.271 OA
BRANCH  18  21
HETATM   21  C   UNL     1       7.011   2.050   0.036  1.00  0.00     0.034 A 
HETATM   22  C   UNL     1       8.161   1.988  -0.749  1.00  0.00     0.030 A 
HETATM   23  C   UNL     1       9.050   3.070  -0.787  1.00  0.00     0.009 A 
HETATM   24  C   UNL     1       8.804   4.224  -0.037  1.00  0.00    -0.062 A 
HETATM   25  C   UNL     1       9.746   5.391  -0.074  1.00  0.00     0.048 C 
HETATM   26  C   UNL     1       7.656   4.280   0.758  1.00  0.00     0.009 A 
HETATM   27  C   UNL     1       6.764   3.206   0.788  1.00  0.00     0.030 A 
ENDBRANCH  18  21
ENDBRANCH  16  17
ENDBRANCH   1  16
TORSDOF 3
