REMARK  8 active torsions:
REMARK  status: ('A' for Active; 'I' for Inactive)
REMARK    1  A    between atoms: C_2  and  O_3 
REMARK    2  A    between atoms: O_3  and  C_4 
REMARK    3  A    between atoms: C_8  and  C_9 
REMARK       I    between atoms: C_9  and  N_10 
REMARK    4  A    between atoms: N_10  and  C_11 
REMARK    5  A    between atoms: N_22  and  C_23 
REMARK    6  A    between atoms: C_23  and  C_24 
REMARK    7  A    between atoms: C_24  and  C_25 
REMARK    8  A    between atoms: C_25  and  O_26 
ROOT
HETATM    1  C   UNL     1       2.165   1.554   1.675  1.00  0.00     0.102 A 
HETATM    2  C   UNL     1       1.944   0.663   0.631  1.00  0.00     0.113 A 
HETATM    3  C   UNL     1       2.096   1.111  -0.719  1.00  0.00     0.002 A 
HETATM    4  C   UNL     1       1.624   0.100  -1.748  1.00  0.00     0.138 C 
HETATM    5  C   UNL     1       0.257  -0.260  -1.163  1.00  0.00     0.161 C 
HETATM    6  C   UNL     1       0.655  -1.306  -0.131  1.00  0.00     0.155 C 
HETATM    7  C   UNL     1      -0.507  -1.713   0.801  1.00  0.00     0.072 C 
HETATM    8  N   UNL     1       1.318  -2.483  -0.866  1.00  0.00    -0.325 N 
HETATM    9  C   UNL     1       2.233  -2.243  -1.922  1.00  0.00     0.172 C 
HETATM   10  S   UNL     1       3.478  -3.215  -2.473  1.00  0.00    -0.041 SA
HETATM   11  N   UNL     1       2.129  -0.992  -2.530  1.00  0.00    -0.357 N 
HETATM   12  O   UNL     1       1.585  -0.670   0.858  1.00  0.00    -0.316 OA
HETATM   13  C   UNL     1       2.551   2.392  -1.007  1.00  0.00     0.012 A 
HETATM   14  C   UNL     1       2.852   3.243   0.057  1.00  0.00     0.003 A 
HETATM   15  C   UNL     1       2.657   2.830   1.385  1.00  0.00     0.040 A 
HETATM   16  H   UNL     1       2.845  -0.808  -3.214  1.00  0.00     0.162 HD
ENDROOT
BRANCH   5  17
HETATM   17  C   UNL     1      -0.893  -0.698  -2.067  1.00  0.00     0.233 C 
HETATM   18  N   UNL     1      -2.098  -0.292  -1.487  1.00  0.00    -0.326 N 
HETATM   19  H   UNL     1      -2.027   0.324  -0.693  1.00  0.00     0.169 HD
HETATM   20  O   UNL     1      -0.774  -1.399  -3.061  1.00  0.00    -0.273 OA
BRANCH  18  21
HETATM   21  C   UNL     1      -3.369  -0.865  -1.661  1.00  0.00     0.040 A 
HETATM   22  C   UNL     1      -4.260  -0.849  -0.565  1.00  0.00    -0.035 A 
HETATM   23  C   UNL     1      -3.898  -0.349   0.812  1.00  0.00     0.050 C 
HETATM   24  C   UNL     1      -5.507  -1.479  -0.695  1.00  0.00     0.015 A 
HETATM   25  C   UNL     1      -5.889  -2.090  -1.892  1.00  0.00    -0.061 A 
HETATM   26  C   UNL     1      -7.233  -2.745  -2.002  1.00  0.00     0.048 C 
HETATM   27  C   UNL     1      -5.017  -2.049  -2.983  1.00  0.00     0.009 A 
HETATM   28  C   UNL     1      -3.756  -1.457  -2.864  1.00  0.00     0.030 A 
ENDBRANCH  18  21
ENDBRANCH   5  17
BRANCH   8  29
HETATM   29  C   UNL     1       0.765  -3.840  -0.596  1.00  0.00     0.130 C 
BRANCH  29  30
HETATM   30  C   UNL     1       0.870  -4.971  -1.635  1.00  0.00     0.046 C 
BRANCH  30  31
HETATM   31  C   UNL     1       1.821  -6.076  -1.184  1.00  0.00     0.168 C 
BRANCH  31  32
HETATM   32  O   UNL     1       1.178  -6.820  -0.145  1.00  0.00    -0.396 OA
HETATM   33  C   UNL     1       1.966  -7.928   0.269  1.00  0.00     0.201 C 
ENDBRANCH  31  32
ENDBRANCH  30  31
ENDBRANCH  29  30
ENDBRANCH   8  29
BRANCH   1  34
HETATM   34  O   UNL     1       1.876   1.258   2.977  1.00  0.00    -0.349 OA
BRANCH  34  35
HETATM   35  C   UNL     1       0.459   1.298   3.215  1.00  0.00     0.171 C 
HETATM   36  C   UNL     1       0.017   2.674   3.689  1.00  0.00     0.034 C 
ENDBRANCH  34  35
ENDBRANCH   1  34
TORSDOF 8
