REMARK  4 active torsions:
REMARK  status: ('A' for Active; 'I' for Inactive)
REMARK    1  A    between atoms: C_2  and  C_3 
REMARK    2  A    between atoms: C_3  and  C_4 
REMARK    3  A    between atoms: N_7  and  C_8 
REMARK    4  A    between atoms: C_13  and  C_14 
ROOT
HETATM    1  C   UNL     1       2.887   2.492  -0.364  1.00  0.00     0.017 A 
HETATM    2  C   UNL     1       3.462   3.734  -0.626  1.00  0.00     0.033 A 
HETATM    3  C   UNL     1       4.806   3.817  -0.966  1.00  0.00     0.099 A 
HETATM    4  N   UNL     1       5.582   2.705  -1.057  1.00  0.00    -0.318 N 
HETATM    5  C   UNL     1       5.032   1.491  -0.785  1.00  0.00     0.099 A 
HETATM    6  C   UNL     1       3.685   1.358  -0.452  1.00  0.00     0.033 A 
ENDROOT
BRANCH   1   7
HETATM    7  C   UNL     1       1.427   2.444  -0.086  1.00  0.00     0.192 C 
HETATM    8  O   UNL     1       0.743   3.404  -0.426  1.00  0.00    -0.287 OA
BRANCH   7   9
HETATM    9  C   UNL     1       0.771   1.279   0.546  1.00  0.00     0.015 A 
HETATM   10  C   UNL     1      -0.429   0.815  -0.005  1.00  0.00     0.017 A 
HETATM   11  C   UNL     1      -1.082  -0.280   0.564  1.00  0.00     0.025 A 
HETATM   12  C   UNL     1      -0.542  -0.897   1.692  1.00  0.00     0.034 A 
HETATM   13  C   UNL     1       0.639  -0.421   2.262  1.00  0.00     0.025 A 
HETATM   14 CL   UNL     1      -1.341  -2.249   2.392  1.00  0.00    -0.084 Cl
HETATM   15  C   UNL     1       1.296   0.675   1.695  1.00  0.00     0.017 A 
ENDBRANCH   7   9
ENDBRANCH   1   7
BRANCH   4  16
HETATM   16  C   UNL     1       6.942   2.841  -1.399  1.00  0.00     0.135 A 
HETATM   17  N   UNL     1       7.714   3.824  -0.825  1.00  0.00    -0.302 N 
HETATM   18  C   UNL     1       9.027   3.879  -1.219  1.00  0.00     0.290 A 
HETATM   19  H   UNL     1       7.415   4.465  -0.103  1.00  0.00     0.171 HD
HETATM   20  O   UNL     1       9.863   4.659  -0.810  1.00  0.00    -0.260 OA
HETATM   21  S   UNL     1       9.295   2.616  -2.411  1.00  0.00    -0.022 SA
HETATM   22  C   UNL     1       7.636   2.109  -2.289  1.00  0.00     0.092 A 
BRANCH  22  23
HETATM   23  C   UNL     1       7.163   1.061  -3.206  1.00  0.00     0.281 C 
HETATM   24  O   UNL     1       5.986   0.725  -3.239  1.00  0.00    -0.301 OA
ENDBRANCH  22  23
ENDBRANCH   4  16
TORSDOF 4
