REMARK  6 active torsions:
REMARK  status: ('A' for Active; 'I' for Inactive)
REMARK    1  A    between atoms: C_5  and  C_6 
REMARK    2  A    between atoms: C_6  and  S_7 
REMARK    3  A    between atoms: S_7  and  C_8 
REMARK    4  A    between atoms: C_10  and  N_11 
REMARK    5  A    between atoms: C_12  and  N_13 
REMARK       I    between atoms: N_13  and  C_14 
REMARK    6  A    between atoms: C_14  and  C_15 
ROOT
HETATM    1  C   UNL     1       3.297  -5.196  -0.314  1.00  0.00     0.171 C 
HETATM    2  N   UNL     1       4.370  -5.846  -0.615  1.00  0.00    -0.210 NA
HETATM    3  C   UNL     1       4.289  -7.221  -0.645  1.00  0.00     0.136 C 
HETATM    4  C   UNL     1       3.118  -7.891  -0.501  1.00  0.00     0.144 C 
HETATM    5  C   UNL     1       1.889  -7.046  -0.516  1.00  0.00     0.277 C 
HETATM    6  O   UNL     1       0.818  -7.405  -0.993  1.00  0.00    -0.266 OA
HETATM    7  N   UNL     1       2.085  -5.764  -0.110  1.00  0.00    -0.300 N 
HETATM    8  H   UNL     1       1.279  -5.158  -0.109  1.00  0.00     0.171 HD
ENDROOT
BRANCH   1   9
HETATM    9  S   UNL     1       3.213  -3.474  -0.143  1.00  0.00    -0.087 SA
BRANCH   9  10
HETATM   10  C   UNL     1       4.894  -2.984  -0.614  1.00  0.00     0.121 C 
BRANCH  10  11
HETATM   11  C   UNL     1       5.071  -1.483  -0.484  1.00  0.00    -0.037 A 
HETATM   12  C   UNL     1       5.497  -0.856   0.724  1.00  0.00    -0.019 A 
HETATM   13  C   UNL     1       5.608   0.559   0.754  1.00  0.00    -0.025 A 
HETATM   14  C   UNL     1       5.815  -1.556   1.913  1.00  0.00     0.013 A 
HETATM   15  C   UNL     1       6.032   1.211   1.925  1.00  0.00     0.012 A 
HETATM   16  C   UNL     1       5.288   1.313  -0.383  1.00  0.00     0.012 A 
HETATM   17  C   UNL     1       6.346   0.490   3.075  1.00  0.00     0.001 A 
HETATM   18  C   UNL     1       6.235  -0.893   3.069  1.00  0.00     0.001 A 
HETATM   19  C   UNL     1       4.859   0.696  -1.553  1.00  0.00     0.001 A 
HETATM   20  C   UNL     1       4.751  -0.689  -1.603  1.00  0.00     0.009 A 
ENDBRANCH  10  11
ENDBRANCH   9  10
ENDBRANCH   1   9
BRANCH   3  21
HETATM   21  N   UNL     1       5.481  -7.920  -0.793  1.00  0.00    -0.285 NA
HETATM   22  H   UNL     1       6.210  -7.237  -0.999  1.00  0.00     0.125 HD
HETATM   23  H   UNL     1       5.418  -8.574  -1.571  1.00  0.00     0.125 HD
ENDBRANCH   3  21
BRANCH   4  24
HETATM   24  N   UNL     1       3.082  -9.268  -0.378  1.00  0.00    -0.314 N 
HETATM   25  C   UNL     1       2.041 -10.019   0.137  1.00  0.00     0.280 C 
HETATM   26  O   UNL     1       1.006  -9.554   0.602  1.00  0.00    -0.265 OA
HETATM   27  H   UNL     1       3.972  -9.749  -0.453  1.00  0.00     0.169 HD
BRANCH  25  28
HETATM   28  C   UNL     1       2.313 -11.443   0.164  1.00  0.00     0.144 A 
HETATM   29  O   UNL     1       3.565 -11.905  -0.151  1.00  0.00    -0.298 OA
HETATM   30  C   UNL     1       3.540 -13.258   0.001  1.00  0.00     0.122 A 
HETATM   31 BR   UNL     1       5.013 -14.369  -0.272  1.00  0.00    -0.023 Br
HETATM   32  C   UNL     1       2.288 -13.678   0.387  1.00  0.00     0.048 A 
HETATM   33  C   UNL     1       1.497 -12.509   0.495  1.00  0.00     0.046 A 
ENDBRANCH  25  28
ENDBRANCH   4  24
TORSDOF 6
