REMARK  4 active torsions:
REMARK  status: ('A' for Active; 'I' for Inactive)
REMARK    1  A    between atoms: C_6  and  C_7 
REMARK    2  A    between atoms: C_7  and  C_8 
REMARK    3  A    between atoms: N_10  and  C_11 
REMARK    4  A    between atoms: C_19  and  C_20 
ROOT
HETATM    1  C   UNL     1       8.533   3.098   7.793  1.00  0.00     0.149 A 
HETATM    2  N   UNL     1       8.578   1.921   7.174  1.00  0.00    -0.150 NA
HETATM    3  N   UNL     1       7.341   1.807   6.622  1.00  0.00    -0.218 N 
HETATM    4  C   UNL     1       6.560   2.874   7.072  1.00  0.00     0.136 A 
HETATM    5  N   UNL     1       7.319   3.720   7.753  1.00  0.00    -0.216 NA
ENDROOT
BRANCH   1   6
HETATM    6  C   UNL     1       9.708   3.639   8.532  1.00  0.00     0.087 C 
BRANCH   6   7
HETATM    7  C   UNL     1      10.677   4.472   7.662  1.00  0.00    -0.004 C 
HETATM    8  C   UNL     1      11.306   3.698   6.489  1.00  0.00     0.032 C 
HETATM    9  C   UNL     1      12.318   2.651   6.938  1.00  0.00     0.234 C 
HETATM   10  N   UNL     1      13.392   3.324   7.759  1.00  0.00    -0.075 N 
HETATM   11  C   UNL     1      14.483   2.355   8.142  1.00  0.00     0.269 C 
HETATM   12  H   UNL     1      13.845   4.026   7.156  1.00  0.00     0.279 HD
HETATM   13  C   UNL     1      12.848   4.049   8.963  1.00  0.00     0.234 C 
HETATM   14  C   UNL     1      11.806   5.075   8.520  1.00  0.00     0.032 C 
ENDBRANCH   6   7
ENDBRANCH   1   6
BRANCH   3  15
HETATM   15  C   UNL     1       7.057   0.723   5.745  1.00  0.00     0.062 A 
HETATM   16  C   UNL     1       5.999   0.765   4.829  1.00  0.00     0.058 A 
HETATM   17  C   UNL     1       5.759  -0.327   3.984  1.00  0.00     0.074 A 
HETATM   18 CL   UNL     1       4.448  -0.243   2.872  1.00  0.00    -0.081 Cl
HETATM   19  C   UNL     1       6.575  -1.452   4.042  1.00  0.00     0.138 A 
HETATM   20  F   UNL     1       6.354  -2.503   3.241  1.00  0.00    -0.204 F 
HETATM   21  C   UNL     1       7.643  -1.497   4.929  1.00  0.00     0.046 A 
HETATM   22  C   UNL     1       7.891  -0.410   5.773  1.00  0.00     0.035 A 
ENDBRANCH   3  15
BRANCH   4  23
HETATM   23  C   UNL     1       5.067   3.010   6.950  1.00  0.00     0.084 C 
HETATM   24  C   UNL     1       4.457   3.558   8.242  1.00  0.00     0.244 C 
HETATM   25  N   UNL     1       4.729   5.030   8.160  1.00  0.00    -0.074 N 
HETATM   26  H   UNL     1       4.074   5.594   8.720  1.00  0.00     0.277 HD
HETATM   27  H   UNL     1       5.677   5.186   8.543  1.00  0.00     0.277 HD
HETATM   28  C   UNL     1       4.750   5.413   6.712  1.00  0.00     0.233 C 
HETATM   29  C   UNL     1       4.677   4.094   5.948  1.00  0.00     0.041 C 
ENDBRANCH   4  23
TORSDOF 4
