REMARK  5 active torsions:
REMARK  status: ('A' for Active; 'I' for Inactive)
REMARK    1  A    between atoms: C_6  and  N_7 
REMARK       I    between atoms: N_7  and  C_8 
REMARK    2  A    between atoms: C_8  and  C_9 
REMARK    3  A    between atoms: C_11  and  O_12 
REMARK    4  A    between atoms: C_15  and  O_16 
REMARK    5  A    between atoms: C_20  and  C_21 
ROOT
HETATM    1  C   UNL     1       0.851   0.135  -0.810  1.00  0.00     0.073 C 
HETATM    2  C   UNL     1       2.297  -0.047  -0.530  1.00  0.00     0.065 A 
HETATM    3  N   UNL     1       2.958   0.865   0.195  1.00  0.00    -0.177 NA
HETATM    4  N   UNL     1       4.223   0.408   0.215  1.00  0.00    -0.262 N 
HETATM    5  H   UNL     1       4.945   0.939   0.695  1.00  0.00     0.191 HD
HETATM    6  C   UNL     1       4.389  -0.785  -0.440  1.00  0.00     0.137 A 
HETATM    7  C   UNL     1       3.149  -1.104  -0.956  1.00  0.00     0.046 A 
ENDROOT
BRANCH   6   8
HETATM    8  N   UNL     1       5.593  -1.461  -0.516  1.00  0.00    -0.307 N 
HETATM    9  C   UNL     1       6.767  -0.920  -0.028  1.00  0.00     0.257 C 
HETATM   10  O   UNL     1       6.884   0.177   0.507  1.00  0.00    -0.267 OA
HETATM   11  H   UNL     1       5.608  -2.342  -1.017  1.00  0.00     0.170 HD
BRANCH   9  12
HETATM   12  C   UNL     1       7.958  -1.768  -0.249  1.00  0.00     0.037 A 
HETATM   13  C   UNL     1       9.058  -1.216  -0.907  1.00  0.00     0.054 A 
HETATM   14  C   UNL     1      10.165  -2.012  -1.195  1.00  0.00     0.071 A 
HETATM   15  C   UNL     1      10.175  -3.345  -0.779  1.00  0.00     0.073 A 
HETATM   16  C   UNL     1       9.086  -3.891  -0.085  1.00  0.00     0.071 A 
HETATM   17  C   UNL     1       7.966  -3.104   0.172  1.00  0.00     0.054 A 
BRANCH  14  18
HETATM   18  O   UNL     1      11.162  -1.377  -1.883  1.00  0.00    -0.356 OA
HETATM   19  C   UNL     1      12.231  -2.187  -2.357  1.00  0.00     0.210 C 
ENDBRANCH  14  18
BRANCH  16  20
HETATM   20  O   UNL     1       9.239  -5.204   0.270  1.00  0.00    -0.356 OA
HETATM   21  C   UNL     1       8.257  -5.758   1.138  1.00  0.00     0.210 C 
ENDBRANCH  16  20
ENDBRANCH   9  12
ENDBRANCH   6   8
BRANCH   7  22
HETATM   22  C   UNL     1       2.867  -2.275  -1.762  1.00  0.00    -0.020 A 
HETATM   23  C   UNL     1       1.907  -3.204  -1.344  1.00  0.00     0.014 A 
HETATM   24  C   UNL     1       1.639  -4.335  -2.121  1.00  0.00     0.020 A 
HETATM   25  C   UNL     1       2.329  -4.535  -3.315  1.00  0.00     0.011 A 
HETATM   26 BR   UNL     1       1.969  -6.067  -4.362  1.00  0.00    -0.051 Br
HETATM   27  C   UNL     1       3.283  -3.614  -3.744  1.00  0.00     0.020 A 
HETATM   28  C   UNL     1       3.549  -2.483  -2.969  1.00  0.00     0.014 A 
ENDBRANCH   7  22
TORSDOF 5
