REMARK  3 active torsions:
REMARK  status: ('A' for Active; 'I' for Inactive)
REMARK    1  A    between atoms: C_4  and  N_5 
REMARK       I    between atoms: N_5  and  C_6 
REMARK    2  A    between atoms: C_6  and  C_7 
REMARK    3  A    between atoms: C_7  and  C_8 
ROOT
HETATM    1  C   UNL     1       6.582   0.045   0.136  1.00  0.00     0.286 C 
HETATM    2  N   UNL     1       6.092   0.152  -1.309  1.00  0.00    -0.056 N 
HETATM    3  H   UNL     1       5.216  -0.380  -1.372  1.00  0.00     0.278 HD
HETATM    4  H   UNL     1       5.797   1.138  -1.475  1.00  0.00     0.278 HD
HETATM    5  C   UNL     1       7.063  -0.305  -2.360  1.00  0.00     0.209 C 
HETATM    6  C   UNL     1       7.488  -1.755  -2.032  1.00  0.00     0.115 C 
HETATM    7  N   UNL     1       7.997  -1.856  -0.670  1.00  0.00    -0.353 N 
HETATM    8  C   UNL     1       7.538  -1.135   0.400  1.00  0.00     0.249 C 
HETATM    9  O   UNL     1       7.930  -1.410   1.530  1.00  0.00    -0.271 OA
HETATM   10  C   UNL     1       6.404  -0.197  -3.735  1.00  0.00     0.035 C 
HETATM   11  C   UNL     1       5.278  -1.209  -3.947  1.00  0.00     0.002 C 
HETATM   12  C   UNL     1       5.729  -2.633  -3.637  1.00  0.00     0.002 C 
HETATM   13  C   UNL     1       6.340  -2.755  -2.244  1.00  0.00     0.027 C 
HETATM   14  H   UNL     1       8.605  -2.636  -0.423  1.00  0.00     0.163 HD
ENDROOT
BRANCH   1  15
HETATM   15  C   UNL     1       7.224   1.350   0.634  1.00  0.00     0.146 C 
BRANCH  15  16
HETATM   16  C   UNL     1       6.250   2.489   0.482  1.00  0.00     0.224 C 
HETATM   17  N   UNL     1       6.051   3.428   1.440  1.00  0.00    -0.327 N 
HETATM   18  H   UNL     1       5.227   3.996   1.262  1.00  0.00     0.169 HD
HETATM   19  O   UNL     1       5.557   2.526  -0.547  1.00  0.00    -0.273 OA
BRANCH  17  20
HETATM   20  C   UNL     1       6.732   3.730   2.632  1.00  0.00     0.035 A 
HETATM   21  C   UNL     1       8.071   3.423   2.879  1.00  0.00     0.036 A 
HETATM   22  C   UNL     1       8.663   3.752   4.108  1.00  0.00    -0.059 A 
HETATM   23  C   UNL     1      10.111   3.449   4.371  1.00  0.00     0.048 C 
HETATM   24  C   UNL     1       7.911   4.427   5.077  1.00  0.00     0.013 A 
HETATM   25  C   UNL     1       6.584   4.784   4.828  1.00  0.00    -0.059 A 
HETATM   26  C   UNL     1       6.005   4.434   3.602  1.00  0.00     0.036 A 
HETATM   27  C   UNL     1       5.775   5.478   5.886  1.00  0.00     0.048 C 
ENDBRANCH  17  20
ENDBRANCH  15  16
ENDBRANCH   1  15
TORSDOF 3
