REMARK  7 active torsions:
REMARK  status: ('A' for Active; 'I' for Inactive)
REMARK    1  A    between atoms: C_5  and  C_6 
REMARK    2  A    between atoms: C_9  and  C_10 
REMARK       I    between atoms: C_10  and  N_11 
REMARK    3  A    between atoms: N_11  and  N_12 
REMARK       I    between atoms: N_12  and  C_13 
REMARK    4  A    between atoms: C_13  and  C_14 
REMARK    5  A    between atoms: C_14  and  N_15 
REMARK    6  A    between atoms: N_15  and  C_16 
REMARK    7  A    between atoms: C_18  and  O_19 
ROOT
HETATM    1  C   UNL     1       9.829  -1.679  -2.181  1.00  0.00     0.289 C 
HETATM    2  N   UNL     1       9.846  -2.878  -1.492  1.00  0.00    -0.262 N 
HETATM    3  O   UNL     1       8.825  -1.243  -2.741  1.00  0.00    -0.264 OA
HETATM    4  H   UNL     1      10.621  -3.058  -0.854  1.00  0.00     0.190 HD
ENDROOT
BRANCH   2   5
HETATM    5  N   UNL     1       8.617  -3.506  -1.230  1.00  0.00    -0.266 N 
HETATM    6  C   UNL     1       8.129  -3.446   0.065  1.00  0.00     0.253 C 
HETATM    7  O   UNL     1       8.811  -3.091   1.028  1.00  0.00    -0.270 OA
HETATM    8  H   UNL     1       7.969  -3.521  -2.015  1.00  0.00     0.190 HD
BRANCH   6   9
HETATM    9  C   UNL     1       6.670  -3.899   0.205  1.00  0.00     0.224 C 
BRANCH   9  10
HETATM   10  N   UNL     1       6.582  -4.928   1.241  1.00  0.00    -0.381 N 
HETATM   11  H   UNL     1       7.166  -4.696   2.047  1.00  0.00     0.160 HD
BRANCH  10  12
HETATM   12  C   UNL     1       5.347  -5.468   1.604  1.00  0.00     0.030 A 
HETATM   13  C   UNL     1       5.275  -6.221   2.789  1.00  0.00     0.065 A 
HETATM   14  C   UNL     1       4.098  -6.869   3.176  1.00  0.00     0.070 A 
HETATM   15  C   UNL     1       2.975  -6.787   2.354  1.00  0.00     0.037 A 
HETATM   16  C   UNL     1       3.033  -6.077   1.157  1.00  0.00     0.005 A 
HETATM   17  C   UNL     1       4.216  -5.435   0.781  1.00  0.00     0.029 A 
BRANCH  14  18
HETATM   18  O   UNL     1       3.922  -7.613   4.311  1.00  0.00    -0.356 OA
HETATM   19  C   UNL     1       5.042  -7.732   5.179  1.00  0.00     0.210 C 
ENDBRANCH  14  18
ENDBRANCH  10  12
ENDBRANCH   9  10
ENDBRANCH   6   9
ENDBRANCH   2   5
BRANCH   1  20
HETATM   20  C   UNL     1      11.119  -0.991  -2.180  1.00  0.00     0.134 A 
HETATM   21  C   UNL     1      11.319   0.265  -2.714  1.00  0.00     0.089 A 
HETATM   22  S   UNL     1      12.957   0.720  -2.554  1.00  0.00    -0.079 SA
HETATM   23  C   UNL     1      13.318  -0.794  -1.807  1.00  0.00     0.108 A 
HETATM   24  N   UNL     1      12.265  -1.577  -1.637  1.00  0.00    -0.235 NA
BRANCH  23  25
HETATM   25  C   UNL     1      14.693  -1.158  -1.402  1.00  0.00    -0.000 A 
HETATM   26  C   UNL     1      15.830  -0.433  -1.792  1.00  0.00     0.015 A 
HETATM   27  C   UNL     1      17.115  -0.837  -1.406  1.00  0.00     0.007 A 
HETATM   28  C   UNL     1      17.296  -1.982  -0.627  1.00  0.00    -0.062 A 
HETATM   29  C   UNL     1      18.667  -2.419  -0.205  1.00  0.00     0.048 C 
HETATM   30  C   UNL     1      16.172  -2.707  -0.223  1.00  0.00     0.007 A 
HETATM   31  C   UNL     1      14.890  -2.302  -0.610  1.00  0.00     0.015 A 
ENDBRANCH  23  25
ENDBRANCH   1  20
TORSDOF 7
