REMARK  3 active torsions:
REMARK  status: ('A' for Active; 'I' for Inactive)
REMARK    1  A    between atoms: C_6  and  N_7 
REMARK       I    between atoms: N_7  and  C_8 
REMARK    2  A    between atoms: C_8  and  C_9 
REMARK    3  A    between atoms: C_9  and  C_10 
ROOT
HETATM    1  C   UNL     1       4.533   1.976   0.339  1.00  0.00     0.286 C 
HETATM    2  N   UNL     1       3.619   3.151  -0.042  1.00  0.00    -0.056 N 
HETATM    3  H   UNL     1       3.665   3.846   0.730  1.00  0.00     0.278 HD
HETATM    4  H   UNL     1       3.985   3.621  -0.879  1.00  0.00     0.278 HD
HETATM    5  C   UNL     1       2.154   2.832  -0.180  1.00  0.00     0.209 C 
HETATM    6  C   UNL     1       1.974   1.491  -0.915  1.00  0.00     0.115 C 
HETATM    7  N   UNL     1       2.643   0.432  -0.183  1.00  0.00    -0.353 N 
HETATM    8  C   UNL     1       3.868   0.585   0.409  1.00  0.00     0.249 C 
HETATM    9  O   UNL     1       4.419  -0.383   0.924  1.00  0.00    -0.271 OA
HETATM   10  C   UNL     1       1.453   3.978  -0.901  1.00  0.00     0.035 C 
HETATM   11  C   UNL     1      -0.031   3.666  -1.086  1.00  0.00     0.002 C 
HETATM   12  C   UNL     1      -0.246   2.328  -1.792  1.00  0.00     0.002 C 
HETATM   13  C   UNL     1       0.485   1.182  -1.094  1.00  0.00     0.027 C 
HETATM   14  H   UNL     1       2.293  -0.524  -0.213  1.00  0.00     0.163 HD
ENDROOT
BRANCH   1  15
HETATM   15  C   UNL     1       5.362   2.269   1.600  1.00  0.00     0.146 C 
BRANCH  15  16
HETATM   16  C   UNL     1       4.478   2.714   2.738  1.00  0.00     0.224 C 
HETATM   17  N   UNL     1       4.608   2.320   4.024  1.00  0.00    -0.327 N 
HETATM   18  H   UNL     1       4.068   2.915   4.647  1.00  0.00     0.169 HD
HETATM   19  O   UNL     1       3.646   3.600   2.483  1.00  0.00    -0.273 OA
BRANCH  17  20
HETATM   20  C   UNL     1       5.300   1.285   4.678  1.00  0.00     0.035 A 
HETATM   21  C   UNL     1       5.798   0.134   4.074  1.00  0.00     0.037 A 
HETATM   22  C   UNL     1       6.466  -0.858   4.822  1.00  0.00    -0.054 A 
HETATM   23  C   UNL     1       6.629  -0.692   6.208  1.00  0.00    -0.056 A 
HETATM   24  C   UNL     1       7.005  -2.073   4.112  1.00  0.00     0.049 C 
HETATM   25  C   UNL     1       7.330  -1.722   7.052  1.00  0.00     0.049 C 
HETATM   26  C   UNL     1       6.086   0.441   6.822  1.00  0.00     0.009 A 
HETATM   27  C   UNL     1       5.426   1.413   6.066  1.00  0.00     0.030 A 
ENDBRANCH  17  20
ENDBRANCH  15  16
ENDBRANCH   1  15
TORSDOF 3
