REMARK  5 active torsions:
REMARK  status: ('A' for Active; 'I' for Inactive)
REMARK    1  A    between atoms: C_2  and  N_3 
REMARK    2  A    between atoms: C_2  and  C_19 
REMARK       I    between atoms: N_3  and  C_4 
REMARK    3  A    between atoms: C_4  and  C_5 
REMARK    4  A    between atoms: C_7  and  O_8 
REMARK    5  A    between atoms: O_8  and  C_9 
ROOT
HETATM    1  C   UNL     1       2.004   2.835  -0.815  1.00  0.00     0.146 A 
HETATM    2  O   UNL     1       1.171   1.900  -1.377  1.00  0.00    -0.282 OA
HETATM    3  C   UNL     1       0.517   2.519  -2.401  1.00  0.00     0.191 A 
HETATM    4  C   UNL     1       0.950   3.817  -2.535  1.00  0.00     0.067 A 
HETATM    5  C   UNL     1       1.881   4.033  -1.493  1.00  0.00     0.048 A 
ENDROOT
BRANCH   1   6
HETATM    6  C   UNL     1       2.828   2.472   0.320  1.00  0.00     0.276 C 
HETATM    7  N   UNL     1       2.881   1.120   0.568  1.00  0.00    -0.347 N 
HETATM    8  H   UNL     1       2.339   0.513  -0.036  1.00  0.00     0.163 HD
HETATM    9  O   UNL     1       3.439   3.294   0.997  1.00  0.00    -0.265 OA
BRANCH   7  10
HETATM   10  C   UNL     1       3.615   0.559   1.684  1.00  0.00     0.114 C 
HETATM   11  C   UNL     1       2.698   0.374   2.894  1.00  0.00     0.037 C 
BRANCH  10  12
HETATM   12  C   UNL     1       4.298  -0.727   1.264  1.00  0.00    -0.033 A 
HETATM   13  C   UNL     1       5.691  -0.760   1.120  1.00  0.00     0.028 A 
HETATM   14  C   UNL     1       6.298  -1.942   0.726  1.00  0.00     0.116 A 
HETATM   15  N   UNL     1       5.623  -3.080   0.463  1.00  0.00    -0.273 NA
HETATM   16  C   UNL     1       4.281  -3.030   0.593  1.00  0.00     0.116 A 
HETATM   17  C   UNL     1       3.583  -1.897   0.983  1.00  0.00     0.028 A 
ENDBRANCH  10  12
ENDBRANCH   7  10
ENDBRANCH   1   6
BRANCH   3  18
HETATM   18  O   UNL     1      -0.337   1.784  -3.107  1.00  0.00    -0.286 OA
BRANCH  18  19
HETATM   19  C   UNL     1      -1.211   0.907  -2.503  1.00  0.00     0.100 A 
HETATM   20  C   UNL     1      -1.596  -0.238  -3.210  1.00  0.00     0.068 A 
HETATM   21 CL   UNL     1      -0.932  -0.603  -4.762  1.00  0.00    -0.081 Cl
HETATM   22  C   UNL     1      -2.540  -1.115  -2.670  1.00  0.00     0.026 A 
HETATM   23  C   UNL     1      -3.111  -0.847  -1.425  1.00  0.00     0.002 A 
HETATM   24  C   UNL     1      -2.740   0.298  -0.721  1.00  0.00     0.003 A 
HETATM   25  C   UNL     1      -1.798   1.177  -1.260  1.00  0.00     0.039 A 
ENDBRANCH  18  19
ENDBRANCH   3  18
TORSDOF 5
