REMARK  8 active torsions:
REMARK  status: ('A' for Active; 'I' for Inactive)
REMARK       I    between atoms: N_2  and  C_3 
REMARK    1  A    between atoms: N_2  and  C_29 
REMARK    2  A    between atoms: C_3  and  C_4 
REMARK    3  A    between atoms: C_7  and  C_8 
REMARK       I    between atoms: C_8  and  N_9 
REMARK    4  A    between atoms: N_9  and  C_10 
REMARK    5  A    between atoms: N_20  and  C_21 
REMARK    6  A    between atoms: C_21  and  C_22 
REMARK    7  A    between atoms: C_29  and  C_30 
REMARK    8  A    between atoms: C_30  and  C_31 
ROOT
HETATM    1  C   UNL     1       4.358  -1.539   0.005  1.00  0.00     0.098 C 
HETATM    2  C   UNL     1       5.209  -1.909   1.160  1.00  0.00     0.206 C 
HETATM    3  O   UNL     1       4.732  -2.366   2.198  1.00  0.00    -0.286 OA
HETATM    4  C   UNL     1       6.679  -1.682   1.038  1.00  0.00     0.098 C 
HETATM    5  C   UNL     1       7.156  -1.457  -0.200  1.00  0.00     0.111 C 
HETATM    6  N   UNL     1       6.367  -1.347  -1.341  1.00  0.00    -0.362 N 
HETATM    7  C   UNL     1       4.986  -1.337  -1.166  1.00  0.00     0.111 C 
ENDROOT
BRANCH   1   8
HETATM    8  C   UNL     1       2.882  -1.418   0.001  1.00  0.00     0.258 C 
HETATM    9  N   UNL     1       2.259  -0.518   0.865  1.00  0.00    -0.352 N 
HETATM   10  C   UNL     1       0.824  -0.331   0.692  1.00  0.00     0.152 C 
HETATM   11  O   UNL     1       2.255  -2.026  -0.871  1.00  0.00    -0.267 OA
BRANCH   9  12
HETATM   12  C   UNL     1       2.804   0.022   2.124  1.00  0.00     0.131 C 
BRANCH  12  13
HETATM   13  C   UNL     1       3.924   1.054   1.995  1.00  0.00     0.079 C 
BRANCH  13  14
HETATM   14  C   UNL     1       3.437   2.378   1.474  1.00  0.00     0.035 A 
HETATM   15  N   UNL     1       2.984   3.265   2.393  1.00  0.00    -0.266 NA
HETATM   16  C   UNL     1       2.577   4.470   1.940  1.00  0.00     0.117 A 
HETATM   17  C   UNL     1       2.595   4.837   0.605  1.00  0.00     0.019 A 
HETATM   18  C   UNL     1       3.051   3.910  -0.324  1.00  0.00     0.003 A 
HETATM   19  C   UNL     1       3.475   2.660   0.112  1.00  0.00     0.027 A 
ENDBRANCH  13  14
ENDBRANCH  12  13
ENDBRANCH   9  12
ENDBRANCH   1   8
BRANCH   4  20
HETATM   20  C   UNL     1       7.609  -1.614   2.199  1.00  0.00     0.257 C 
HETATM   21  N   UNL     1       6.991  -1.675   3.423  1.00  0.00    -0.352 N 
HETATM   22  H   UNL     1       6.010  -1.954   3.450  1.00  0.00     0.163 HD
HETATM   23  O   UNL     1       8.816  -1.443   2.054  1.00  0.00    -0.267 OA
BRANCH  21  24
HETATM   24  C   UNL     1       7.668  -1.469   4.705  1.00  0.00     0.084 C 
HETATM   25  C   UNL     1       6.819  -0.476   5.512  1.00  0.00     0.025 C 
HETATM   26  C   UNL     1       7.346   0.003   6.863  1.00  0.00     0.002 C 
HETATM   27  C   UNL     1       8.832   0.358   6.898  1.00  0.00     0.000 C 
HETATM   28  C   UNL     1       9.720  -0.709   7.540  1.00  0.00     0.000 C 
HETATM   29  C   UNL     1       9.888  -2.018   6.766  1.00  0.00     0.000 C 
HETATM   30  C   UNL     1       8.627  -2.879   6.696  1.00  0.00     0.002 C 
HETATM   31  C   UNL     1       7.882  -2.837   5.361  1.00  0.00     0.025 C 
ENDBRANCH  21  24
ENDBRANCH   4  20
BRANCH   6  32
HETATM   32  C   UNL     1       6.962  -1.270  -2.696  1.00  0.00     0.159 C 
BRANCH  32  33
HETATM   33  C   UNL     1       6.957   0.135  -3.319  1.00  0.00     0.139 C 
HETATM   34  O   UNL     1       5.622   0.627  -3.549  1.00  0.00    -0.384 OA
HETATM   35  C   UNL     1       5.694   2.054  -3.493  1.00  0.00     0.168 C 
HETATM   36  C   UNL     1       6.712   2.350  -2.419  1.00  0.00     0.029 C 
HETATM   37  C   UNL     1       7.709   1.220  -2.553  1.00  0.00     0.035 C 
ENDBRANCH  32  33
ENDBRANCH   6  32
TORSDOF 8
