REMARK  4 active torsions:
REMARK  status: ('A' for Active; 'I' for Inactive)
REMARK    1  A    between atoms: C_3  and  N_4 
REMARK       I    between atoms: N_4  and  C_5 
REMARK    2  A    between atoms: C_5  and  C_6 
REMARK    3  A    between atoms: C_6  and  C_7 
REMARK    4  A    between atoms: C_10  and  O_11 
ROOT
HETATM    1  N   UNL     1       1.364   2.775  -0.005  1.00  0.00    -0.326 N 
HETATM    2  C   UNL     1       2.601   3.396  -0.091  1.00  0.00     0.226 C 
HETATM    3  O   UNL     1       3.696   2.884   0.120  1.00  0.00    -0.273 OA
HETATM    4  H   UNL     1       0.574   3.348  -0.262  1.00  0.00     0.169 HD
ENDROOT
BRANCH   1   5
HETATM    5  C   UNL     1       1.080   1.433   0.373  1.00  0.00     0.047 A 
HETATM    6  C   UNL     1       2.106   0.530   0.674  1.00  0.00     0.030 A 
HETATM    7  C   UNL     1       1.816  -0.779   1.044  1.00  0.00     0.005 A 
HETATM    8  C   UNL     1       0.493  -1.198   1.120  1.00  0.00     0.032 A 
HETATM    9  C   UNL     1      -0.557  -0.344   0.836  1.00  0.00     0.069 A 
HETATM   10  C   UNL     1      -0.282   0.993   0.453  1.00  0.00     0.019 A 
HETATM   11  N   UNL     1      -1.799  -0.846   0.947  1.00  0.00    -0.260 NA
HETATM   12  C   UNL     1      -1.421   1.794   0.188  1.00  0.00     0.017 A 
HETATM   13  C   UNL     1      -2.709   1.277   0.303  1.00  0.00     0.020 A 
HETATM   14  C   UNL     1      -2.844  -0.039   0.683  1.00  0.00     0.117 A 
ENDBRANCH   1   5
BRANCH   2  15
HETATM   15  C   UNL     1       2.502   4.863  -0.486  1.00  0.00     0.141 C 
BRANCH  15  16
HETATM   16  C   UNL     1       2.321   5.123  -1.965  1.00  0.00    -0.049 A 
HETATM   17  C   UNL     1       1.749   6.339  -2.377  1.00  0.00     0.010 A 
HETATM   18  C   UNL     1       1.623   6.649  -3.734  1.00  0.00     0.037 A 
HETATM   19  C   UNL     1       2.076   5.744  -4.686  1.00  0.00     0.065 A 
HETATM   20  C   UNL     1       2.653   4.541  -4.302  1.00  0.00     0.037 A 
HETATM   21  C   UNL     1       2.787   4.235  -2.946  1.00  0.00     0.010 A 
BRANCH  19  22
HETATM   22  O   UNL     1       1.984   6.007  -6.020  1.00  0.00    -0.361 OA
HETATM   23  H   UNL     1       1.619   6.900  -6.137  1.00  0.00     0.217 HD
ENDBRANCH  19  22
ENDBRANCH  15  16
ENDBRANCH   2  15
TORSDOF 4
