REMARK  9 active torsions:
REMARK  status: ('A' for Active; 'I' for Inactive)
REMARK    1  A    between atoms: C_2  and  C_3 
REMARK    2  A    between atoms: C_4  and  O_5 
REMARK    3  A    between atoms: C_6  and  C_7 
REMARK    4  A    between atoms: C_12  and  C_13 
REMARK    5  A    between atoms: C_13  and  C_14 
REMARK    6  A    between atoms: C_14  and  N_15 
REMARK    7  A    between atoms: N_20  and  C_21 
REMARK    8  A    between atoms: C_21  and  C_22 
REMARK    9  A    between atoms: C_22  and  N_23 
ROOT
HETATM    1  N   UNL     1       3.325  -7.079  -1.025  1.00  0.00    -0.174 N 
HETATM    2  C   UNL     1       4.702  -7.091  -0.969  1.00  0.00     0.681 A 
HETATM    3  N   UNL     1       5.409  -6.935   0.154  1.00  0.00    -0.234 N 
HETATM    4  H   UNL     1       6.414  -6.889   0.185  1.00  0.00     0.174 HD
HETATM    5  H   UNL     1       4.928  -6.503   0.953  1.00  0.00     0.174 HD
HETATM    6  N   UNL     1       5.304  -7.305  -2.224  1.00  0.00    -0.180 N 
HETATM    7  C   UNL     1       4.200  -7.299  -3.143  1.00  0.00     0.079 A 
HETATM    8  C   UNL     1       3.005  -7.177  -2.407  1.00  0.00     0.079 A 
HETATM    9  C   UNL     1       4.168  -7.384  -4.520  1.00  0.00     0.032 A 
HETATM   10  C   UNL     1       2.916  -7.378  -5.149  1.00  0.00     0.002 A 
HETATM   11  C   UNL     1       1.729  -7.279  -4.405  1.00  0.00     0.002 A 
HETATM   12  C   UNL     1       1.765  -7.173  -3.014  1.00  0.00     0.032 A 
ENDROOT
BRANCH   1  13
HETATM   13  C   UNL     1       2.356  -7.078   0.082  1.00  0.00     0.231 C 
BRANCH  13  14
HETATM   14  C   UNL     1       2.544  -5.976   1.100  1.00  0.00     0.178 C 
HETATM   15  O   UNL     1       3.642  -5.446   1.268  1.00  0.00    -0.290 OA
BRANCH  14  16
HETATM   16  C   UNL     1       1.360  -5.586   1.924  1.00  0.00     0.013 A 
HETATM   17  C   UNL     1       0.369  -6.526   2.219  1.00  0.00     0.026 A 
HETATM   18  C   UNL     1      -0.791  -6.173   2.925  1.00  0.00    -0.016 A 
HETATM   19  C   UNL     1      -0.917  -4.814   3.313  1.00  0.00     0.079 A 
HETATM   20  C   UNL     1       0.080  -3.832   3.066  1.00  0.00    -0.016 A 
HETATM   21  C   UNL     1       1.231  -4.268   2.372  1.00  0.00     0.026 A 
BRANCH  18  22
HETATM   22  C   UNL     1      -1.883  -7.239   3.222  1.00  0.00    -0.021 C 
HETATM   23  C   UNL     1      -3.097  -6.986   2.305  1.00  0.00     0.019 C 
HETATM   24  C   UNL     1      -1.413  -8.694   2.952  1.00  0.00     0.019 C 
HETATM   25  C   UNL     1      -2.330  -7.223   4.703  1.00  0.00     0.019 C 
ENDBRANCH  18  22
BRANCH  19  26
HETATM   26  O   UNL     1      -2.098  -4.478   3.910  1.00  0.00    -0.360 OA
HETATM   27  H   UNL     1      -1.940  -3.845   4.625  1.00  0.00     0.217 HD
ENDBRANCH  19  26
BRANCH  20  28
HETATM   28  C   UNL     1      -0.051  -2.343   3.496  1.00  0.00    -0.021 C 
HETATM   29  C   UNL     1       0.098  -2.226   5.029  1.00  0.00     0.019 C 
HETATM   30  C   UNL     1      -1.392  -1.723   3.038  1.00  0.00     0.019 C 
HETATM   31  C   UNL     1       1.047  -1.424   2.891  1.00  0.00     0.019 C 
ENDBRANCH  20  28
ENDBRANCH  14  16
ENDBRANCH  13  14
ENDBRANCH   1  13
BRANCH   6  32
HETATM   32  C   UNL     1       6.743  -7.539  -2.441  1.00  0.00     0.175 C 
BRANCH  32  33
HETATM   33  C   UNL     1       7.138  -8.286  -3.734  1.00  0.00     0.255 C 
BRANCH  33  34
HETATM   34  N   UNL     1       8.536  -8.872  -3.751  1.00  0.00    -0.070 N 
HETATM   35  H   UNL     1       8.667  -9.181  -4.727  1.00  0.00     0.279 HD
HETATM   36  C   UNL     1       9.653  -7.879  -3.507  1.00  0.00     0.235 C 
HETATM   37  C   UNL     1      10.984  -8.527  -3.865  1.00  0.00     0.028 C 
HETATM   38  C   UNL     1      11.202  -9.836  -3.111  1.00  0.00     0.003 C 
HETATM   39  C   UNL     1      10.027 -10.792  -3.295  1.00  0.00     0.028 C 
HETATM   40  C   UNL     1       8.702 -10.135  -2.931  1.00  0.00     0.235 C 
ENDBRANCH  33  34
ENDBRANCH  32  33
ENDBRANCH   6  32
TORSDOF 9
