REMARK  5 active torsions:
REMARK  status: ('A' for Active; 'I' for Inactive)
REMARK    1  A    between atoms: C_4  and  C_5 
REMARK    2  A    between atoms: C_5  and  C_6 
REMARK    3  A    between atoms: C_6  and  N_7 
REMARK       I    between atoms: N_7  and  C_8 
REMARK       I    between atoms: C_8  and  N_9 
REMARK    4  A    between atoms: N_9  and  N_10 
REMARK       I    between atoms: N_10  and  C_11 
REMARK    5  A    between atoms: C_11  and  C_12 
ROOT
HETATM    1  N   UNL     1       4.298   0.372  -2.294  1.00  0.00    -0.341 N 
HETATM    2  C   UNL     1       4.454   0.276  -3.657  1.00  0.00     0.334 C 
HETATM    3  N   UNL     1       5.740   0.477  -4.085  1.00  0.00    -0.249 N 
HETATM    4  O   UNL     1       3.547   0.025  -4.442  1.00  0.00    -0.246 OA
HETATM    5  H   UNL     1       4.931   1.061  -1.911  1.00  0.00     0.164 HD
HETATM    6  H   UNL     1       5.926   0.509  -5.086  1.00  0.00     0.192 HD
ENDROOT
BRANCH   3   7
HETATM    7  N   UNL     1       6.825   0.627  -3.208  1.00  0.00    -0.262 N 
HETATM    8  C   UNL     1       7.956   1.263  -3.700  1.00  0.00     0.272 C 
HETATM    9  O   UNL     1       7.945   1.865  -4.772  1.00  0.00    -0.266 OA
HETATM   10  H   UNL     1       6.919  -0.091  -2.499  1.00  0.00     0.190 HD
BRANCH   8  11
HETATM   11  C   UNL     1       9.157   1.135  -2.873  1.00  0.00     0.061 A 
HETATM   12  C   UNL     1      10.469   1.636  -3.192  1.00  0.00     0.008 A 
HETATM   13  C   UNL     1      11.323   1.293  -2.144  1.00  0.00     0.043 A 
HETATM   14  C   UNL     1      11.011   2.350  -4.283  1.00  0.00     0.015 A 
HETATM   15  C   UNL     1      12.684   1.625  -2.131  1.00  0.00     0.030 A 
HETATM   16  N   UNL     1      10.572   0.615  -1.216  1.00  0.00    -0.364 N 
HETATM   17  C   UNL     1      13.191   2.332  -3.224  1.00  0.00     0.002 A 
HETATM   18  C   UNL     1      12.368   2.692  -4.287  1.00  0.00     0.001 A 
HETATM   19  H   UNL     1      10.937   0.246  -0.348  1.00  0.00     0.165 HD
HETATM   20  C   UNL     1       9.270   0.517  -1.636  1.00  0.00     0.106 A 
ENDBRANCH   8  11
ENDBRANCH   3   7
BRANCH   1  21
HETATM   21  C   UNL     1       2.959   0.308  -1.741  1.00  0.00     0.138 C 
BRANCH  21  22
HETATM   22  C   UNL     1       2.977   0.160  -0.206  1.00  0.00     0.003 C 
HETATM   23  C   UNL     1       3.855   1.191   0.593  1.00  0.00     0.016 C 
HETATM   24  C   UNL     1       4.958   0.130   0.726  1.00  0.00     0.002 C 
HETATM   25  C   UNL     1       3.924  -0.950   0.377  1.00  0.00     0.016 C 
BRANCH  22  26
HETATM   26  C   UNL     1       1.424   0.061   0.265  1.00  0.00    -0.048 A 
HETATM   27  C   UNL     1       0.741  -1.173   0.315  1.00  0.00     0.008 A 
HETATM   28  C   UNL     1      -0.602  -1.264   0.690  1.00  0.00     0.001 A 
HETATM   29  C   UNL     1      -1.310  -0.116   1.026  1.00  0.00     0.000 A 
HETATM   30  C   UNL     1      -0.674   1.120   0.984  1.00  0.00     0.001 A 
HETATM   31  C   UNL     1       0.670   1.203   0.607  1.00  0.00     0.008 A 
ENDBRANCH  22  26
ENDBRANCH  21  22
ENDBRANCH   1  21
TORSDOF 5
