REMARK  2 active torsions:
REMARK  status: ('A' for Active; 'I' for Inactive)
REMARK    1  A    between atoms: C_5  and  O_6 
REMARK    2  A    between atoms: C_5  and  C_7 
ROOT
HETATM    1  C   UNL     1       1.119  -0.211   0.261  1.00  0.00     0.050 C 
HETATM    2  C   UNL     1       2.593  -0.029   0.073  1.00  0.00    -0.035 A 
HETATM    3  C   UNL     1       3.236   1.195   0.171  1.00  0.00     0.051 A 
HETATM    4  C   UNL     1       4.622   1.335   0.003  1.00  0.00     0.018 A 
HETATM    5  C   UNL     1       5.005   2.787   0.138  1.00  0.00     0.199 A 
HETATM    6  C   UNL     1       3.611   3.451   0.393  1.00  0.00     0.266 A 
HETATM    7  O   UNL     1       3.367   4.647   0.471  1.00  0.00    -0.269 OA
HETATM    8  N   UNL     1       2.661   2.436   0.421  1.00  0.00    -0.323 N 
HETATM    9  C   UNL     1       5.411   0.232  -0.293  1.00  0.00     0.013 A 
HETATM   10  C   UNL     1       4.791  -1.016  -0.382  1.00  0.00     0.001 A 
HETATM   11  C   UNL     1       3.402  -1.145  -0.197  1.00  0.00     0.009 A 
HETATM   12  H   UNL     1       1.678   2.622   0.541  1.00  0.00     0.169 HD
ENDROOT
BRANCH   5  13
HETATM   13  O   UNL     1       5.557   3.202  -1.108  1.00  0.00    -0.371 OA
HETATM   14  H   UNL     1       5.413   4.163  -1.134  1.00  0.00     0.212 HD
ENDBRANCH   5  13
BRANCH   5  15
HETATM   15  C   UNL     1       5.943   3.001   1.314  1.00  0.00     0.025 A 
HETATM   16  C   UNL     1       6.056   2.252   2.555  1.00  0.00     0.003 A 
HETATM   17  C   UNL     1       7.059   2.848   3.322  1.00  0.00     0.043 A 
HETATM   18  C   UNL     1       5.410   1.124   3.116  1.00  0.00     0.014 A 
HETATM   19  C   UNL     1       7.456   2.377   4.580  1.00  0.00     0.030 A 
HETATM   20  N   UNL     1       7.522   3.926   2.617  1.00  0.00    -0.359 N 
HETATM   21  C   UNL     1       6.809   1.251   5.091  1.00  0.00     0.002 A 
HETATM   22  C   UNL     1       5.797   0.632   4.370  1.00  0.00     0.001 A 
HETATM   23  H   UNL     1       8.242   4.553   2.950  1.00  0.00     0.166 HD
HETATM   24  C   UNL     1       6.850   4.060   1.432  1.00  0.00     0.016 A 
HETATM   25  C   UNL     1       7.146   5.212   0.537  1.00  0.00     0.069 C 
ENDBRANCH   5  15
TORSDOF 2
