REMARK  6 active torsions:
REMARK  status: ('A' for Active; 'I' for Inactive)
REMARK    1  A    between atoms: O_2  and  C_3 
REMARK    2  A    between atoms: C_5  and  O_6 
REMARK    3  A    between atoms: C_9  and  N_10 
REMARK       I    between atoms: N_10  and  C_11 
REMARK    4  A    between atoms: C_11  and  C_12 
REMARK    5  A    between atoms: C_12  and  N_13 
REMARK    6  A    between atoms: C_19  and  C_20 
ROOT
HETATM    1  N   UNL     1       2.506  -3.080   1.843  1.00  0.00    -0.063 N 
HETATM    2  H   UNL     1       2.170  -3.022   0.863  1.00  0.00     0.280 HD
HETATM    3  C   UNL     1       1.431  -2.457   2.702  1.00  0.00     0.240 C 
HETATM    4  C   UNL     1       1.298  -0.977   2.394  1.00  0.00     0.083 C 
HETATM    5  C   UNL     1       2.634  -0.247   2.526  1.00  0.00     0.131 A 
HETATM    6  N   UNL     1       2.440   1.141   2.039  1.00  0.00    -0.251 NA
HETATM    7  C   UNL     1       2.712   1.942   3.036  1.00  0.00     0.132 A 
HETATM    8  C   UNL     1       3.102   1.173   4.277  1.00  0.00     0.272 A 
HETATM    9  O   UNL     1       3.372   1.597   5.373  1.00  0.00    -0.266 OA
HETATM   10  N   UNL     1       3.058  -0.131   3.887  1.00  0.00    -0.327 N 
HETATM   11  C   UNL     1       3.696  -0.908   1.647  1.00  0.00     0.083 C 
HETATM   12  C   UNL     1       3.837  -2.389   1.948  1.00  0.00     0.240 C 
HETATM   13  H   UNL     1       3.247  -0.853   4.570  1.00  0.00     0.165 HD
ENDROOT
BRANCH   1  14
HETATM   14  C   UNL     1       2.630  -4.594   2.094  1.00  0.00     0.337 C 
BRANCH  14  15
HETATM   15  C   UNL     1       1.415  -5.344   1.542  1.00  0.00     0.248 C 
HETATM   16  N   UNL     1       1.046  -6.444   2.287  1.00  0.00    -0.326 N 
HETATM   17  H   UNL     1       1.568  -6.663   3.129  1.00  0.00     0.169 HD
HETATM   18  O   UNL     1       0.854  -4.884   0.549  1.00  0.00    -0.271 OA
BRANCH  16  19
HETATM   19  C   UNL     1      -0.045  -7.311   2.046  1.00  0.00     0.040 A 
HETATM   20  C   UNL     1      -0.843  -7.272   0.900  1.00  0.00     0.066 A 
HETATM   21  C   UNL     1      -1.903  -8.173   0.750  1.00  0.00     0.073 A 
HETATM   22  C   UNL     1      -2.175  -9.106   1.757  1.00  0.00     0.073 A 
HETATM   23  C   UNL     1      -1.389  -9.154   2.904  1.00  0.00     0.073 A 
HETATM   24  C   UNL     1      -0.321  -8.264   3.035  1.00  0.00     0.066 A 
BRANCH  21  25
HETATM   25  O   UNL     1      -2.748  -8.246  -0.324  1.00  0.00    -0.356 OA
HETATM   26  C   UNL     1      -2.485  -7.385  -1.424  1.00  0.00     0.210 C 
ENDBRANCH  21  25
BRANCH  23  27
HETATM   27  O   UNL     1      -1.549 -10.006   3.960  1.00  0.00    -0.356 OA
HETATM   28  C   UNL     1      -2.667 -10.887   3.912  1.00  0.00     0.210 C 
ENDBRANCH  23  27
ENDBRANCH  16  19
ENDBRANCH  14  15
ENDBRANCH   1  14
BRANCH   7  29
HETATM   29  C   UNL     1       2.634   3.414   2.952  1.00  0.00    -0.002 A 
HETATM   30  C   UNL     1       2.047   3.989   1.815  1.00  0.00     0.016 A 
HETATM   31  C   UNL     1       1.949   5.378   1.692  1.00  0.00     0.024 A 
HETATM   32  C   UNL     1       2.442   6.199   2.703  1.00  0.00     0.034 A 
HETATM   33 CL   UNL     1       2.323   7.907   2.555  1.00  0.00    -0.084 Cl
HETATM   34  C   UNL     1       3.034   5.640   3.834  1.00  0.00     0.024 A 
HETATM   35  C   UNL     1       3.131   4.250   3.959  1.00  0.00     0.016 A 
ENDBRANCH   7  29
TORSDOF 6
