REMARK  7 active torsions:
REMARK  status: ('A' for Active; 'I' for Inactive)
REMARK    1  A    between atoms: O_2  and  C_3 
REMARK    2  A    between atoms: C_7  and  C_8 
REMARK    3  A    between atoms: C_8  and  C_9 
REMARK       I    between atoms: C_9  and  N_10 
REMARK    4  A    between atoms: N_10  and  C_11 
REMARK    5  A    between atoms: C_11  and  C_12 
REMARK    6  A    between atoms: C_12  and  N_13 
REMARK    7  A    between atoms: C_12  and  C_19 
ROOT
HETATM    1  C   UNL     1       5.023   6.062   1.469  1.00  0.00     0.222 C 
HETATM    2  N   UNL     1       3.813   5.569   1.011  1.00  0.00    -0.358 N 
HETATM    3  O   UNL     1       5.959   5.308   1.709  1.00  0.00    -0.273 OA
HETATM    4  H   UNL     1       3.028   6.213   0.950  1.00  0.00     0.162 HD
ENDROOT
BRANCH   2   5
HETATM    5  C   UNL     1       3.533   4.138   0.956  1.00  0.00     0.160 C 
BRANCH   5   6
HETATM    6  C   UNL     1       3.447   3.531  -0.482  1.00  0.00     0.240 C 
BRANCH   6   7
HETATM    7  N   UNL     1       4.673   3.870  -1.329  1.00  0.00    -0.061 N 
HETATM    8  H   UNL     1       4.702   4.899  -1.359  1.00  0.00     0.280 HD
HETATM    9  C   UNL     1       4.624   3.359  -2.761  1.00  0.00     0.236 C 
HETATM   10  C   UNL     1       5.681   2.278  -2.818  1.00  0.00     0.029 C 
HETATM   11  C   UNL     1       6.768   2.830  -1.928  1.00  0.00     0.029 C 
HETATM   12  C   UNL     1       6.002   3.398  -0.748  1.00  0.00     0.236 C 
ENDBRANCH   6   7
BRANCH   6  13
HETATM   13  C   UNL     1       2.106   3.884  -1.122  1.00  0.00    -0.004 A 
HETATM   14  C   UNL     1       1.802   5.112  -1.740  1.00  0.00     0.042 A 
HETATM   15 CL   UNL     1       2.958   6.387  -1.898  1.00  0.00    -0.084 Cl
HETATM   16  C   UNL     1       0.534   5.347  -2.282  1.00  0.00     0.024 A 
HETATM   17  C   UNL     1      -0.453   4.367  -2.217  1.00  0.00     0.002 A 
HETATM   18  C   UNL     1      -0.177   3.148  -1.610  1.00  0.00     0.001 A 
HETATM   19  C   UNL     1       1.086   2.909  -1.065  1.00  0.00     0.011 A 
ENDBRANCH   6  13
ENDBRANCH   5   6
ENDBRANCH   2   5
BRANCH   1  20
HETATM   20  C   UNL     1       5.062   7.582   1.562  1.00  0.00     0.144 C 
BRANCH  20  21
HETATM   21  C   UNL     1       6.371   8.155   1.986  1.00  0.00    -0.014 A 
HETATM   22  C   UNL     1       7.658   7.992   1.379  1.00  0.00     0.006 A 
HETATM   23  C   UNL     1       8.534   8.786   2.109  1.00  0.00     0.088 A 
HETATM   24  C   UNL     1       8.178   7.265   0.293  1.00  0.00     0.017 A 
HETATM   25  C   UNL     1       9.894   8.931   1.834  1.00  0.00     0.074 A 
HETATM   26  O   UNL     1       7.871   9.406   3.122  1.00  0.00    -0.321 OA
HETATM   27  C   UNL     1      10.388   8.209   0.744  1.00  0.00     0.070 A 
HETATM   28  C   UNL     1       9.546   7.375   0.001  1.00  0.00     0.038 A 
HETATM   29  C   UNL     1       6.574   9.022   3.043  1.00  0.00     0.151 A 
BRANCH  27  30
HETATM   30  O   UNL     1      11.691   8.220   0.318  1.00  0.00    -0.356 OA
HETATM   31  C   UNL     1      12.479   9.328   0.742  1.00  0.00     0.210 C 
ENDBRANCH  27  30
ENDBRANCH  20  21
ENDBRANCH   1  20
TORSDOF 7
