REMARK  3 active torsions:
REMARK  status: ('A' for Active; 'I' for Inactive)
REMARK    1  A    between atoms: C_3  and  N_4 
REMARK       I    between atoms: N_4  and  C_5 
REMARK    2  A    between atoms: C_5  and  C_6 
REMARK    3  A    between atoms: C_6  and  C_7 
ROOT
HETATM    1  C   UNL     1       5.881   2.567   0.356  1.00  0.00     0.286 C 
HETATM    2  N   UNL     1       6.406   3.546   1.405  1.00  0.00    -0.056 N 
HETATM    3  H   UNL     1       7.399   3.326   1.552  1.00  0.00     0.278 HD
HETATM    4  H   UNL     1       6.433   4.499   0.980  1.00  0.00     0.278 HD
HETATM    5  C   UNL     1       5.732   3.577   2.742  1.00  0.00     0.209 C 
HETATM    6  C   UNL     1       5.566   2.133   3.263  1.00  0.00     0.115 C 
HETATM    7  N   UNL     1       4.943   1.262   2.272  1.00  0.00    -0.353 N 
HETATM    8  C   UNL     1       5.234   1.297   0.933  1.00  0.00     0.249 C 
HETATM    9  O   UNL     1       4.916   0.354   0.214  1.00  0.00    -0.271 OA
HETATM   10  C   UNL     1       4.413   4.345   2.666  1.00  0.00     0.035 C 
HETATM   11  C   UNL     1       3.702   4.328   4.017  1.00  0.00     0.002 C 
HETATM   12  C   UNL     1       3.480   2.901   4.511  1.00  0.00     0.002 C 
HETATM   13  C   UNL     1       4.789   2.114   4.584  1.00  0.00     0.027 C 
HETATM   14  H   UNL     1       4.578   0.360   2.575  1.00  0.00     0.163 HD
ENDROOT
BRANCH   1  15
HETATM   15  C   UNL     1       4.908   3.203  -0.650  1.00  0.00     0.146 C 
BRANCH  15  16
HETATM   16  C   UNL     1       5.425   4.512  -1.200  1.00  0.00     0.224 C 
HETATM   17  N   UNL     1       4.967   4.802  -2.464  1.00  0.00    -0.327 N 
HETATM   18  H   UNL     1       4.454   4.079  -2.954  1.00  0.00     0.169 HD
HETATM   19  O   UNL     1       6.151   5.204  -0.486  1.00  0.00    -0.273 OA
BRANCH  17  20
HETATM   20  C   UNL     1       5.186   5.989  -3.209  1.00  0.00     0.040 A 
HETATM   21  C   UNL     1       4.804   6.020  -4.569  1.00  0.00    -0.035 A 
HETATM   22  C   UNL     1       4.211   4.830  -5.276  1.00  0.00     0.050 C 
HETATM   23  C   UNL     1       4.994   7.200  -5.311  1.00  0.00     0.009 A 
HETATM   24  C   UNL     1       5.549   8.334  -4.724  1.00  0.00     0.001 A 
HETATM   25  C   UNL     1       5.923   8.303  -3.387  1.00  0.00     0.002 A 
HETATM   26  C   UNL     1       5.743   7.139  -2.635  1.00  0.00     0.030 A 
ENDBRANCH  17  20
ENDBRANCH  15  16
ENDBRANCH   1  15
TORSDOF 3
