REMARK  2 active torsions:
REMARK  status: ('A' for Active; 'I' for Inactive)
REMARK    1  A    between atoms: N_2  and  C_3 
REMARK       I    between atoms: N_4  and  C_5 
REMARK       I    between atoms: C_5  and  N_6 
REMARK    2  A    between atoms: C_9  and  C_10 
ROOT
HETATM    1  C   UNL     1       2.929   0.376   1.976  1.00  0.00     0.703 A 
HETATM    2  N   UNL     1       4.095   0.574   1.239  1.00  0.00    -0.141 N 
HETATM    3  C   UNL     1       4.800  -0.420   0.562  1.00  0.00     0.188 C 
HETATM    4  N   UNL     1       4.649  -1.686   1.029  1.00  0.00    -0.272 NA
HETATM    5  N   UNL     1       5.579  -0.221  -0.454  1.00  0.00    -0.273 NA
HETATM    6  H   UNL     1       6.009  -1.115  -0.702  1.00  0.00     0.189 HD
HETATM    7  C   UNL     1       4.637   1.948   1.039  1.00  0.00     0.179 A 
HETATM    8  C   UNL     1       3.781   3.077   1.600  1.00  0.00    -0.001 A 
HETATM    9  C   UNL     1       2.616   2.774   2.297  1.00  0.00     0.058 A 
HETATM   10  N   UNL     1       2.259   1.444   2.485  1.00  0.00    -0.190 N 
HETATM   11  C   UNL     1       4.156   4.426   1.438  1.00  0.00     0.035 A 
HETATM   12  C   UNL     1       3.381   5.446   1.986  1.00  0.00     0.034 A 
HETATM   13 CL   UNL     1       3.870   7.085   1.813  1.00  0.00    -0.084 Cl
HETATM   14  C   UNL     1       2.217   5.141   2.681  1.00  0.00     0.026 A 
HETATM   15  C   UNL     1       1.836   3.807   2.834  1.00  0.00     0.032 A 
HETATM   16  H   UNL     1       3.768  -1.781   1.550  1.00  0.00     0.127 HD
HETATM   17  H   UNL     1       4.750  -2.424   0.349  1.00  0.00     0.127 HD
HETATM   18  H   UNL     1       1.376   1.284   2.946  1.00  0.00     0.184 HD
ENDROOT
BRANCH   1  19
HETATM   19  N   UNL     1       2.425  -0.815   2.170  1.00  0.00    -0.117 NA
HETATM   20  H   UNL     1       1.565  -0.739   2.716  1.00  0.00     0.206 HD
ENDBRANCH   1  19
BRANCH   7  21
HETATM   21  C   UNL     1       6.073   2.060   1.579  1.00  0.00    -0.030 A 
HETATM   22  C   UNL     1       7.120   2.416   0.709  1.00  0.00     0.009 A 
HETATM   23  C   UNL     1       8.426   2.555   1.181  1.00  0.00     0.001 A 
HETATM   24  C   UNL     1       8.703   2.337   2.528  1.00  0.00     0.000 A 
HETATM   25  C   UNL     1       7.679   1.974   3.402  1.00  0.00     0.001 A 
HETATM   26  C   UNL     1       6.370   1.834   2.933  1.00  0.00     0.009 A 
ENDBRANCH   7  21
TORSDOF 2
