REMARK  4 active torsions:
REMARK  status: ('A' for Active; 'I' for Inactive)
REMARK    1  A    between atoms: C_6  and  N_7 
REMARK       I    between atoms: N_7  and  C_8 
REMARK    2  A    between atoms: C_8  and  C_9 
REMARK    3  A    between atoms: C_10  and  C_11 
REMARK    4  A    between atoms: C_14  and  O_15 
ROOT
HETATM    1  C   UNL     1       6.854  -2.458  -0.778  1.00  0.00     0.131 C 
HETATM    2  C   UNL     1       5.502  -2.473  -1.539  1.00  0.00     0.177 C 
HETATM    3  N   UNL     1       4.932  -3.816  -1.515  1.00  0.00    -0.088 N 
HETATM    4  C   UNL     1       5.631  -4.957  -1.241  1.00  0.00     0.721 A 
HETATM    5  N   UNL     1       6.933  -4.923  -0.910  1.00  0.00    -0.218 N 
HETATM    6  C   UNL     1       7.723  -3.705  -1.079  1.00  0.00     0.111 C 
HETATM    7  C   UNL     1       8.917  -3.810  -0.119  1.00  0.00     0.034 C 
HETATM    8  N   UNL     1       3.614  -4.067  -1.658  1.00  0.00    -0.149 NA
HETATM    9  C   UNL     1       3.610  -5.402  -1.566  1.00  0.00     0.275 A 
HETATM   10  N   UNL     1       4.822  -5.982  -1.306  1.00  0.00    -0.055 NA
HETATM   11  H   UNL     1       7.432  -5.810  -0.940  1.00  0.00     0.178 HD
ENDROOT
BRANCH   1  12
HETATM   12  C   UNL     1       7.601  -1.153  -1.017  1.00  0.00     0.230 C 
HETATM   13  N   UNL     1       6.985  -0.064  -0.420  1.00  0.00    -0.326 N 
HETATM   14  H   UNL     1       6.182  -0.253   0.163  1.00  0.00     0.169 HD
HETATM   15  O   UNL     1       8.636  -1.133  -1.675  1.00  0.00    -0.273 OA
BRANCH  13  16
HETATM   16  C   UNL     1       7.382   1.296  -0.475  1.00  0.00     0.040 A 
HETATM   17  C   UNL     1       6.655   2.247   0.274  1.00  0.00    -0.035 A 
HETATM   18  C   UNL     1       7.042   3.601   0.239  1.00  0.00     0.015 A 
HETATM   19  C   UNL     1       5.471   1.874   1.127  1.00  0.00     0.050 C 
HETATM   20  C   UNL     1       8.124   4.028  -0.537  1.00  0.00    -0.061 A 
HETATM   21  C   UNL     1       8.551   5.465  -0.539  1.00  0.00     0.048 C 
HETATM   22  C   UNL     1       8.836   3.081  -1.271  1.00  0.00     0.009 A 
HETATM   23  C   UNL     1       8.465   1.733  -1.245  1.00  0.00     0.030 A 
ENDBRANCH  13  16
ENDBRANCH   1  12
BRANCH   2  24
HETATM   24  C   UNL     1       5.421  -1.903  -2.954  1.00  0.00    -0.032 A 
HETATM   25  C   UNL     1       6.444  -2.012  -3.903  1.00  0.00     0.012 A 
HETATM   26  C   UNL     1       6.294  -1.468  -5.184  1.00  0.00     0.037 A 
HETATM   27  C   UNL     1       5.119  -0.818  -5.558  1.00  0.00     0.068 A 
HETATM   28  C   UNL     1       4.084  -0.718  -4.634  1.00  0.00     0.037 A 
HETATM   29  C   UNL     1       4.235  -1.255  -3.350  1.00  0.00     0.012 A 
BRANCH  27  30
HETATM   30  O   UNL     1       5.109  -0.338  -6.838  1.00  0.00    -0.356 OA
HETATM   31  C   UNL     1       3.926   0.324  -7.266  1.00  0.00     0.210 C 
ENDBRANCH  27  30
ENDBRANCH   2  24
TORSDOF 4
