REMARK  7 active torsions:
REMARK  status: ('A' for Active; 'I' for Inactive)
REMARK    1  A    between atoms: C_2  and  N_3 
REMARK    2  A    between atoms: C_2  and  C_17 
REMARK       I    between atoms: N_3  and  C_4 
REMARK    3  A    between atoms: C_4  and  C_5 
REMARK    4  A    between atoms: C_7  and  N_8 
REMARK    5  A    between atoms: C_17  and  O_18 
REMARK    6  A    between atoms: C_17  and  C_19 
REMARK    7  A    between atoms: C_22  and  O_23 
ROOT
HETATM    1  N   UNL     1       2.634  -0.852  -1.050  1.00  0.00    -0.349 N 
HETATM    2  C   UNL     1       3.844  -1.241  -1.574  1.00  0.00     0.270 C 
HETATM    3  O   UNL     1       4.922  -0.811  -1.177  1.00  0.00    -0.266 OA
HETATM    4  H   UNL     1       1.816  -1.281  -1.475  1.00  0.00     0.163 HD
ENDROOT
BRANCH   1   5
HETATM    5  C   UNL     1       2.446   0.013   0.119  1.00  0.00     0.114 C 
HETATM    6  C   UNL     1       2.969  -0.675   1.384  1.00  0.00     0.035 C 
BRANCH   5   7
HETATM    7  C   UNL     1       3.014   1.461  -0.015  1.00  0.00     0.173 C 
BRANCH   7   8
HETATM    8  O   UNL     1       4.440   1.526  -0.034  1.00  0.00    -0.389 OA
HETATM    9  H   UNL     1       4.765   0.679  -0.406  1.00  0.00     0.210 HD
ENDBRANCH   7   8
BRANCH   7  10
HETATM   10  C   UNL     1       2.426   2.235  -1.181  1.00  0.00    -0.028 A 
HETATM   11  C   UNL     1       1.190   2.881  -1.037  1.00  0.00     0.012 A 
HETATM   12  C   UNL     1       0.635   3.600  -2.099  1.00  0.00     0.037 A 
HETATM   13  C   UNL     1       1.300   3.690  -3.322  1.00  0.00     0.068 A 
HETATM   14  C   UNL     1       2.522   3.038  -3.481  1.00  0.00     0.037 A 
HETATM   15  C   UNL     1       3.079   2.316  -2.418  1.00  0.00     0.012 A 
BRANCH  13  16
HETATM   16  O   UNL     1       0.653   4.432  -4.272  1.00  0.00    -0.356 OA
HETATM   17  C   UNL     1       1.370   4.699  -5.470  1.00  0.00     0.210 C 
ENDBRANCH  13  16
ENDBRANCH   7  10
ENDBRANCH   5   7
ENDBRANCH   1   5
BRANCH   2  18
HETATM   18  C   UNL     1       3.755  -2.250  -2.679  1.00  0.00     0.126 A 
HETATM   19  N   UNL     1       2.502  -2.676  -3.005  1.00  0.00    -0.224 NA
HETATM   20  C   UNL     1       2.417  -3.615  -3.989  1.00  0.00     0.151 A 
HETATM   21  C   UNL     1       3.537  -4.128  -4.646  1.00  0.00     0.052 A 
HETATM   22  C   UNL     1       4.801  -3.666  -4.285  1.00  0.00     0.006 A 
HETATM   23  C   UNL     1       4.918  -2.710  -3.283  1.00  0.00     0.037 A 
BRANCH  20  24
HETATM   24  N   UNL     1       1.123  -4.096  -4.356  1.00  0.00    -0.227 N 
HETATM   25  N   UNL     1       0.940  -5.044  -5.316  1.00  0.00    -0.179 NA
HETATM   26  C   UNL     1      -0.382  -5.223  -5.357  1.00  0.00     0.141 A 
HETATM   27  C   UNL     1      -1.068  -4.409  -4.443  1.00  0.00     0.040 A 
HETATM   28  C   UNL     1      -0.080  -3.693  -3.812  1.00  0.00     0.122 A 
ENDBRANCH  20  24
ENDBRANCH   2  18
TORSDOF 7
