REMARK  4 active torsions:
REMARK  status: ('A' for Active; 'I' for Inactive)
REMARK    1  A    between atoms: C_6  and  C_7 
REMARK    2  A    between atoms: C_10  and  N_11 
REMARK       I    between atoms: N_11  and  C_12 
REMARK       I    between atoms: C_12  and  N_13 
REMARK    3  A    between atoms: N_13  and  C_14 
REMARK    4  A    between atoms: C_14  and  C_15 
ROOT
HETATM    1  N   UNL     1       2.600  -1.962  -0.398  1.00  0.00    -0.305 N 
HETATM    2  C   UNL     1       1.426  -2.672  -0.447  1.00  0.00     0.322 C 
HETATM    3  N   UNL     1       0.265  -1.913  -0.307  1.00  0.00    -0.334 N 
HETATM    4  C   UNL     1       0.227  -0.471  -0.096  1.00  0.00     0.155 C 
HETATM    5  O   UNL     1       1.378  -3.889  -0.607  1.00  0.00    -0.247 OA
HETATM    6  H   UNL     1       2.544  -0.961  -0.451  1.00  0.00     0.171 HD
ENDROOT
BRANCH   1   7
HETATM    7  C   UNL     1       3.889  -2.479  -0.422  1.00  0.00     0.092 A 
HETATM    8  C   UNL     1       4.983  -1.646  -0.576  1.00  0.00     0.053 A 
HETATM    9  C   UNL     1       5.111  -0.177  -0.727  1.00  0.00     0.072 C 
HETATM   10  N   UNL     1       6.076  -2.460  -0.580  1.00  0.00    -0.280 N 
HETATM   11  H   UNL     1       7.053  -2.201  -0.681  1.00  0.00     0.189 HD
HETATM   12  N   UNL     1       5.787  -3.752  -0.425  1.00  0.00    -0.171 NA
HETATM   13  C   UNL     1       4.444  -3.792  -0.288  1.00  0.00     0.147 A 
BRANCH  13  14
HETATM   14  C   UNL     1       3.762  -5.101   0.005  1.00  0.00     0.409 C 
HETATM   15  F   UNL     1       4.657  -6.126   0.164  1.00  0.00    -0.207 F 
HETATM   16  F   UNL     1       3.077  -5.050   1.185  1.00  0.00    -0.207 F 
ENDBRANCH  13  14
ENDBRANCH   1   7
BRANCH   3  17
HETATM   17  C   UNL     1      -0.992  -2.633  -0.096  1.00  0.00     0.165 C 
BRANCH  17  18
HETATM   18  C   UNL     1      -1.421  -2.620   1.354  1.00  0.00    -0.039 A 
HETATM   19  C   UNL     1      -2.489  -1.814   1.777  1.00  0.00     0.032 A 
HETATM   20  C   UNL     1      -2.861  -1.791   3.122  1.00  0.00     0.034 A 
HETATM   21 CL   UNL     1      -4.167  -0.789   3.626  1.00  0.00    -0.084 Cl
HETATM   22  C   UNL     1      -2.181  -2.566   4.059  1.00  0.00     0.024 A 
HETATM   23  C   UNL     1      -1.119  -3.371   3.648  1.00  0.00     0.002 A 
HETATM   24  C   UNL     1      -0.740  -3.397   2.304  1.00  0.00     0.009 A 
ENDBRANCH  17  18
ENDBRANCH   3  17
TORSDOF 4
