REMARK  2 active torsions:
REMARK  status: ('A' for Active; 'I' for Inactive)
REMARK    1  A    between atoms: C_6  and  C_8 
REMARK    2  A    between atoms: C_6  and  O_7 
ROOT
HETATM    1  C   UNL     1       1.147   0.070  -0.239  1.00  0.00     0.048 C 
HETATM    2  C   UNL     1       2.645   0.044  -0.142  1.00  0.00    -0.059 A 
HETATM    3  C   UNL     1       3.380   1.233  -0.092  1.00  0.00     0.037 A 
HETATM    4  C   UNL     1       4.753   1.135   0.007  1.00  0.00     0.046 A 
HETATM    5  C   UNL     1       5.434  -0.089   0.055  1.00  0.00     0.023 A 
HETATM    6  C   UNL     1       6.920   0.187   0.211  1.00  0.00     0.199 A 
HETATM    7  C   UNL     1       6.959   1.757   0.198  1.00  0.00     0.266 A 
HETATM    8  O   UNL     1       7.921   2.500   0.315  1.00  0.00    -0.269 OA
HETATM    9  N   UNL     1       5.641   2.197   0.090  1.00  0.00    -0.323 N 
HETATM   10  C   UNL     1       4.716  -1.283   0.033  1.00  0.00    -0.049 A 
HETATM   11  C   UNL     1       5.380  -2.626   0.081  1.00  0.00     0.049 C 
HETATM   12  C   UNL     1       3.316  -1.197  -0.084  1.00  0.00     0.014 A 
HETATM   13  H   UNL     1       5.398   3.176   0.078  1.00  0.00     0.169 HD
ENDROOT
BRANCH   6  14
HETATM   14  C   UNL     1       7.649  -0.419  -0.961  1.00  0.00     0.018 A 
HETATM   15  C   UNL     1       7.560  -0.081  -2.362  1.00  0.00     0.002 A 
HETATM   16  C   UNL     1       8.460  -0.898  -3.052  1.00  0.00     0.043 A 
HETATM   17  C   UNL     1       6.809   0.848  -3.117  1.00  0.00     0.014 A 
HETATM   18  C   UNL     1       8.649  -0.831  -4.438  1.00  0.00     0.030 A 
HETATM   19  N   UNL     1       9.071  -1.705  -2.124  1.00  0.00    -0.365 N 
HETATM   20  C   UNL     1       7.896   0.102  -5.153  1.00  0.00     0.002 A 
HETATM   21  C   UNL     1       6.986   0.930  -4.504  1.00  0.00     0.001 A 
HETATM   22  H   UNL     1       9.781  -2.391  -2.340  1.00  0.00     0.165 HD
HETATM   23  C   UNL     1       8.599  -1.428  -0.875  1.00  0.00     0.100 A 
ENDBRANCH   6  14
BRANCH   6  24
HETATM   24  O   UNL     1       7.367  -0.322   1.467  1.00  0.00    -0.371 OA
HETATM   25  H   UNL     1       6.662  -0.130   2.106  1.00  0.00     0.212 HD
ENDBRANCH   6  24
TORSDOF 2
