REMARK  9 active torsions:
REMARK  status: ('A' for Active; 'I' for Inactive)
REMARK    1  A    between atoms: C_2  and  C_3 
REMARK    2  A    between atoms: C_3  and  C_4 
REMARK    3  A    between atoms: C_4  and  N_5 
REMARK    4  A    between atoms: C_9  and  C_10 
REMARK    5  A    between atoms: C_13  and  C_14 
REMARK    6  A    between atoms: C_14  and  O_15 
REMARK    7  A    between atoms: C_20  and  C_21 
REMARK       I    between atoms: C_21  and  N_22 
REMARK    8  A    between atoms: N_22  and  C_23 
REMARK    9  A    between atoms: C_24  and  O_25 
ROOT
HETATM    1  N   UNL     1       5.351   1.908  -1.831  1.00  0.00    -0.303 N 
HETATM    2  C   UNL     1       4.494   2.969  -2.114  1.00  0.00     0.323 C 
HETATM    3  O   UNL     1       3.588   3.347  -1.374  1.00  0.00    -0.247 OA
HETATM    4  N   UNL     1       4.658   3.587  -3.312  1.00  0.00    -0.330 N 
HETATM    5  C   UNL     1       5.774   3.404  -4.206  1.00  0.00     0.160 C 
HETATM    6  C   UNL     1       6.489   2.119  -3.903  1.00  0.00     0.059 C 
HETATM    7  C   UNL     1       6.374   1.503  -2.706  1.00  0.00     0.026 C 
HETATM    8  C   UNL     1       7.317   0.410  -2.255  1.00  0.00     0.069 C 
HETATM    9  H   UNL     1       4.059   4.389  -3.446  1.00  0.00     0.165 HD
ENDROOT
BRANCH   6  10
HETATM   10  C   UNL     1       7.373   1.637  -5.003  1.00  0.00     0.256 C 
HETATM   11  N   UNL     1       7.353   0.339  -5.422  1.00  0.00    -0.321 N 
HETATM   12  H   UNL     1       8.171   0.111  -5.982  1.00  0.00     0.169 HD
HETATM   13  O   UNL     1       8.160   2.412  -5.546  1.00  0.00    -0.267 OA
BRANCH  11  14
HETATM   14  C   UNL     1       6.540  -0.769  -5.117  1.00  0.00     0.068 A 
HETATM   15  C   UNL     1       7.140  -2.036  -5.233  1.00  0.00     0.095 A 
HETATM   16  C   UNL     1       6.443  -3.194  -4.888  1.00  0.00     0.039 A 
HETATM   17  C   UNL     1       5.136  -3.093  -4.414  1.00  0.00     0.003 A 
HETATM   18  C   UNL     1       4.522  -1.843  -4.325  1.00  0.00     0.002 A 
HETATM   19  C   UNL     1       5.216  -0.684  -4.689  1.00  0.00     0.032 A 
BRANCH  15  20
HETATM   20  O   UNL     1       8.431  -2.097  -5.704  1.00  0.00    -0.354 OA
HETATM   21  C   UNL     1       9.326  -2.617  -4.720  1.00  0.00     0.210 C 
ENDBRANCH  15  20
ENDBRANCH  11  14
ENDBRANCH   6  10
BRANCH   5  22
HETATM   22  C   UNL     1       6.689   4.625  -4.151  1.00  0.00    -0.031 A 
HETATM   23  C   UNL     1       7.343   4.997  -2.964  1.00  0.00     0.010 A 
HETATM   24  C   UNL     1       8.270   6.044  -2.956  1.00  0.00     0.018 A 
HETATM   25  C   UNL     1       8.554   6.746  -4.132  1.00  0.00     0.039 A 
HETATM   26  C   UNL     1       7.871   6.415  -5.309  1.00  0.00     0.018 A 
HETATM   27  C   UNL     1       6.946   5.365  -5.316  1.00  0.00     0.010 A 
BRANCH  25  28
HETATM   28  C   UNL     1       9.608   7.797  -4.087  1.00  0.00     0.292 C 
HETATM   29  O   UNL     1      10.202   8.111  -3.067  1.00  0.00    -0.259 OA
BRANCH  28  30
HETATM   30  O   UNL     1       9.827   8.314  -5.322  1.00  0.00    -0.323 OA
HETATM   31  C   UNL     1      10.886   9.270  -5.371  1.00  0.00     0.213 C 
ENDBRANCH  28  30
ENDBRANCH  25  28
ENDBRANCH   5  22
BRANCH   1  32
HETATM   32  C   UNL     1       4.977   1.079  -0.678  1.00  0.00     0.133 C 
BRANCH  32  33
HETATM   33  C   UNL     1       5.716   1.422   0.615  1.00  0.00     0.020 C 
BRANCH  33  34
HETATM   34  C   UNL     1       5.300   0.451   1.725  1.00  0.00    -0.003 C 
HETATM   35  C   UNL     1       6.200   0.558   2.943  1.00  0.00     0.005 C 
ENDBRANCH  33  34
ENDBRANCH  32  33
ENDBRANCH   1  32
TORSDOF 9
