REMARK  2 active torsions:
REMARK  status: ('A' for Active; 'I' for Inactive)
REMARK    1  A    between atoms: C_2  and  N_3 
REMARK    2  A    between atoms: N_3  and  C_4 
ROOT
HETATM    1  C   UNL     1      -5.017   0.265  -0.981  1.00  0.00     0.143 A 
HETATM    2  N   UNL     1      -6.126   0.854  -1.498  1.00  0.00    -0.223 NA
HETATM    3  C   UNL     1      -7.172   0.107  -1.862  1.00  0.00     0.236 A 
HETATM    4  N   UNL     1      -7.269  -1.214  -1.801  1.00  0.00    -0.234 NA
HETATM    5  C   UNL     1      -6.184  -1.783  -1.252  1.00  0.00     0.114 A 
HETATM    6  C   UNL     1      -5.048  -1.144  -0.768  1.00  0.00     0.053 A 
HETATM    7  S   UNL     1      -6.109  -3.473  -1.136  1.00  0.00    -0.073 SA
HETATM    8  C   UNL     1      -4.578  -3.423  -0.393  1.00  0.00    -0.008 C 
HETATM    9  C   UNL     1      -4.153  -2.124  -0.141  1.00  0.00    -0.028 C 
HETATM   10  C   UNL     1      -2.911  -1.832   0.660  1.00  0.00     0.041 C 
HETATM   11  C   UNL     1      -2.865  -2.535   2.023  1.00  0.00     0.005 C 
HETATM   12  C   UNL     1      -2.521  -4.022   1.969  1.00  0.00     0.001 C 
HETATM   13  C   UNL     1      -3.632  -4.909   1.409  1.00  0.00     0.005 C 
HETATM   14  C   UNL     1      -3.874  -4.713  -0.083  1.00  0.00     0.047 C 
ENDROOT
BRANCH   1  15
HETATM   15  N   UNL     1      -3.899   1.066  -0.689  1.00  0.00    -0.340 N 
HETATM   16  H   UNL     1      -3.085   0.538  -0.419  1.00  0.00     0.167 HD
BRANCH  15  17
HETATM   17  C   UNL     1      -3.540   2.355  -1.137  1.00  0.00     0.036 A 
HETATM   18  C   UNL     1      -4.176   3.021  -2.189  1.00  0.00     0.032 A 
HETATM   19  C   UNL     1      -3.767   4.297  -2.591  1.00  0.00     0.042 A 
HETATM   20  C   UNL     1      -2.750   4.954  -1.905  1.00  0.00     0.102 A 
HETATM   21  C   UNL     1      -2.130   4.325  -0.826  1.00  0.00     0.104 A 
HETATM   22  O   UNL     1      -2.343   6.156  -2.411  1.00  0.00    -0.348 OA
HETATM   23  C   UNL     1      -2.513   3.032  -0.458  1.00  0.00     0.069 A 
HETATM   24  O   UNL     1      -1.074   4.868  -0.144  1.00  0.00    -0.348 OA
HETATM   25  C   UNL     1      -1.421   6.101   0.490  1.00  0.00     0.178 C 
HETATM   26  C   UNL     1      -1.361   7.276  -0.474  1.00  0.00     0.053 C 
HETATM   27  C   UNL     1      -2.504   7.220  -1.475  1.00  0.00     0.178 C 
ENDBRANCH  15  17
ENDBRANCH   1  15
TORSDOF 2
