REMARK  6 active torsions:
REMARK  status: ('A' for Active; 'I' for Inactive)
REMARK    1  A    between atoms: C_2  and  O_3 
REMARK    2  A    between atoms: O_3  and  C_4 
REMARK    3  A    between atoms: C_5  and  O_6 
REMARK    4  A    between atoms: O_6  and  C_7 
REMARK    5  A    between atoms: C_7  and  C_8 
REMARK    6  A    between atoms: C_18  and  C_19 
ROOT
HETATM    1  C   UNL     1       4.370   1.590   0.202  1.00  0.00     0.103 A 
HETATM    2  C   UNL     1       5.005   2.785   0.559  1.00  0.00     0.112 A 
HETATM    3  C   UNL     1       6.379   2.848   0.791  1.00  0.00     0.041 A 
HETATM    4  C   UNL     1       7.149   1.701   0.630  1.00  0.00     0.014 A 
HETATM    5  C   UNL     1       6.550   0.485   0.255  1.00  0.00    -0.013 A 
HETATM    6  C   UNL     1       5.155   0.442   0.049  1.00  0.00     0.050 A 
ENDROOT
BRANCH   5   7
HETATM    7  C   UNL     1       7.390  -0.759   0.071  1.00  0.00     0.219 C 
HETATM    8  N   UNL     1       8.090  -1.099   1.283  1.00  0.00    -0.332 N 
HETATM    9  C   UNL     1       9.150  -1.967   1.296  1.00  0.00     0.256 C 
HETATM   10  H   UNL     1       7.581  -1.041   2.153  1.00  0.00     0.165 HD
HETATM   11  O   UNL     1       9.515  -2.535   2.319  1.00  0.00    -0.267 OA
HETATM   12  C   UNL     1       9.828  -2.133   0.021  1.00  0.00     0.073 A 
HETATM   13  C   UNL     1       9.394  -1.405  -1.063  1.00  0.00     0.088 A 
HETATM   14  C   UNL     1      10.958  -2.948  -0.306  1.00  0.00    -0.023 A 
HETATM   15  S   UNL     1      10.327  -1.679  -2.456  1.00  0.00    -0.074 SA
HETATM   16  N   UNL     1       8.348  -0.554  -0.998  1.00  0.00    -0.358 N 
HETATM   17  C   UNL     1      11.331  -2.777  -1.628  1.00  0.00     0.018 A 
HETATM   18  C   UNL     1      12.471  -3.467  -2.292  1.00  0.00     0.281 C 
HETATM   19  N   UNL     1      13.421  -4.080  -1.268  1.00  0.00    -0.070 N 
HETATM   20  C   UNL     1      12.658  -4.795  -0.154  1.00  0.00     0.239 C 
HETATM   21  H   UNL     1      13.952  -4.801  -1.770  1.00  0.00     0.279 HD
HETATM   22  C   UNL     1      14.433  -3.094  -0.757  1.00  0.00     0.270 C 
HETATM   23  C   UNL     1      11.723  -3.848   0.618  1.00  0.00     0.068 C 
HETATM   24  H   UNL     1       7.957  -0.165  -1.852  1.00  0.00     0.162 HD
ENDBRANCH   5   7
BRANCH   1  25
HETATM   25  O   UNL     1       3.012   1.650   0.044  1.00  0.00    -0.349 OA
BRANCH  25  26
HETATM   26  C   UNL     1       2.367   0.518  -0.537  1.00  0.00     0.171 C 
HETATM   27  C   UNL     1       0.899   0.856  -0.723  1.00  0.00     0.034 C 
ENDBRANCH  25  26
ENDBRANCH   1  25
BRANCH   2  28
HETATM   28  O   UNL     1       4.261   3.954   0.743  1.00  0.00    -0.272 OA
BRANCH  28  29
HETATM   29  C   UNL     1       4.156   4.677  -0.425  1.00  0.00     0.300 C 
HETATM   30  O   UNL     1       4.519   4.366  -1.550  1.00  0.00    -0.259 OA
BRANCH  29  31
HETATM   31  C   UNL     1       3.429   5.927  -0.138  1.00  0.00     0.061 A 
HETATM   32  C   UNL     1       3.844   6.840   0.839  1.00  0.00     0.050 A 
HETATM   33 CL   UNL     1       5.274   6.622   1.784  1.00  0.00    -0.083 Cl
HETATM   34  C   UNL     1       3.114   8.016   1.039  1.00  0.00     0.025 A 
HETATM   35  C   UNL     1       1.986   8.287   0.261  1.00  0.00     0.002 A 
HETATM   36  C   UNL     1       1.586   7.388  -0.726  1.00  0.00     0.001 A 
HETATM   37  C   UNL     1       2.307   6.211  -0.931  1.00  0.00     0.019 A 
ENDBRANCH  29  31
ENDBRANCH  28  29
ENDBRANCH   2  28
TORSDOF 6
