REMARK  7 active torsions:
REMARK  status: ('A' for Active; 'I' for Inactive)
REMARK    1  A    between atoms: O_2  and  C_3 
REMARK    2  A    between atoms: C_4  and  O_5 
REMARK    3  A    between atoms: C_9  and  C_10 
REMARK    4  A    between atoms: C_11  and  C_12 
REMARK       I    between atoms: C_12  and  N_13 
REMARK    5  A    between atoms: N_13  and  C_14 
REMARK    6  A    between atoms: C_14  and  C_15 
REMARK    7  A    between atoms: C_15  and  C_16 
ROOT
HETATM    1  C   UNL     1       6.253   2.298  -1.920  1.00  0.00     0.040 C 
HETATM    2  C   UNL     1       6.989   1.208  -2.221  1.00  0.00     0.113 C 
HETATM    3  C   UNL     1       7.984   1.302  -3.235  1.00  0.00     0.105 C 
HETATM    4  N   UNL     1       8.773   1.352  -4.084  1.00  0.00    -0.191 NA
ENDROOT
BRANCH   2   5
HETATM    5  C   UNL     1       6.825  -0.104  -1.523  1.00  0.00     0.262 C 
HETATM    6  N   UNL     1       6.938  -1.216  -2.332  1.00  0.00    -0.356 N 
HETATM    7  H   UNL     1       7.262  -1.127  -3.288  1.00  0.00     0.162 HD
HETATM    8  O   UNL     1       6.588  -0.178  -0.323  1.00  0.00    -0.267 OA
BRANCH   6   9
HETATM    9  C   UNL     1       6.851  -2.555  -1.769  1.00  0.00     0.127 C 
BRANCH   9  10
HETATM   10  C   UNL     1       6.585  -3.610  -2.843  1.00  0.00     0.060 C 
BRANCH  10  11
HETATM   11  C   UNL     1       6.397  -4.976  -2.267  1.00  0.00    -0.029 A 
HETATM   12  C   UNL     1       7.426  -5.891  -1.872  1.00  0.00    -0.002 A 
HETATM   13  C   UNL     1       6.799  -7.037  -1.382  1.00  0.00     0.042 A 
HETATM   14  C   UNL     1       8.835  -5.850  -1.883  1.00  0.00     0.014 A 
HETATM   15  C   UNL     1       7.509  -8.144  -0.902  1.00  0.00     0.030 A 
HETATM   16  N   UNL     1       5.443  -6.831  -1.479  1.00  0.00    -0.365 N 
HETATM   17  C   UNL     1       8.905  -8.077  -0.922  1.00  0.00     0.002 A 
HETATM   18  C   UNL     1       9.561  -6.948  -1.406  1.00  0.00     0.001 A 
HETATM   19  H   UNL     1       4.741  -7.500  -1.196  1.00  0.00     0.165 HD
HETATM   20  C   UNL     1       5.189  -5.595  -2.010  1.00  0.00     0.096 A 
ENDBRANCH  10  11
ENDBRANCH   9  10
ENDBRANCH   6   9
ENDBRANCH   2   5
BRANCH   1  21
HETATM   21  C   UNL     1       5.157   2.436  -0.945  1.00  0.00    -0.030 A 
HETATM   22  C   UNL     1       5.114   3.588  -0.147  1.00  0.00     0.033 A 
HETATM   23  C   UNL     1       4.066   3.788   0.756  1.00  0.00     0.047 A 
HETATM   24  C   UNL     1       3.058   2.833   0.867  1.00  0.00     0.116 A 
HETATM   25 BR   UNL     1       4.058   5.367   1.803  1.00  0.00    -0.048 Br
HETATM   26  C   UNL     1       3.090   1.673   0.084  1.00  0.00     0.103 A 
HETATM   27  C   UNL     1       4.119   1.496  -0.844  1.00  0.00     0.051 A 
BRANCH  24  28
HETATM   28  O   UNL     1       2.023   3.007   1.749  1.00  0.00    -0.357 OA
HETATM   29  H   UNL     1       1.459   2.216   1.647  1.00  0.00     0.218 HD
ENDBRANCH  24  28
BRANCH  26  30
HETATM   30  O   UNL     1       2.051   0.797   0.287  1.00  0.00    -0.353 OA
HETATM   31  C   UNL     1       2.322  -0.560  -0.058  1.00  0.00     0.210 C 
ENDBRANCH  26  30
ENDBRANCH   1  21
TORSDOF 7
