REMARK  6 active torsions:
REMARK  status: ('A' for Active; 'I' for Inactive)
REMARK    1  A    between atoms: C_7  and  C_8 
REMARK    2  A    between atoms: C_8  and  O_9 
REMARK    3  A    between atoms: O_9  and  C_10 
REMARK    4  A    between atoms: C_10  and  C_11 
REMARK       I    between atoms: C_11  and  N_12 
REMARK    5  A    between atoms: N_12  and  N_13 
REMARK    6  A    between atoms: C_17  and  C_18 
ROOT
HETATM    1  C   UNL     1       0.291  -5.748  -0.160  1.00  0.00     0.261 C 
HETATM    2  N   UNL     1       0.599  -7.042   0.203  1.00  0.00    -0.255 N 
HETATM    3  O   UNL     1      -0.851  -5.356  -0.392  1.00  0.00    -0.269 OA
HETATM    4  H   UNL     1       1.519  -7.274   0.579  1.00  0.00     0.191 HD
ENDROOT
BRANCH   1   5
HETATM    5  C   UNL     1       1.501  -4.810  -0.204  1.00  0.00     0.283 C 
BRANCH   5   6
HETATM    6  O   UNL     1       2.502  -5.163  -1.160  1.00  0.00    -0.308 OA
BRANCH   6   7
HETATM    7  C   UNL     1       3.337  -6.164  -0.793  1.00  0.00     0.293 C 
HETATM    8  O   UNL     1       3.275  -6.773   0.266  1.00  0.00    -0.259 OA
BRANCH   7   9
HETATM    9  C   UNL     1       4.290  -6.495  -1.884  1.00  0.00     0.040 A 
HETATM   10  C   UNL     1       5.081  -7.640  -1.738  1.00  0.00     0.020 A 
HETATM   11  C   UNL     1       5.962  -8.044  -2.745  1.00  0.00     0.031 A 
HETATM   12  C   UNL     1       6.023  -7.261  -3.903  1.00  0.00     0.043 A 
HETATM   13  C   UNL     1       5.268  -6.102  -4.077  1.00  0.00    -0.001 A 
HETATM   14  N   UNL     1       6.765  -7.434  -5.046  1.00  0.00    -0.359 N 
HETATM   15  C   UNL     1       5.593  -5.567  -5.365  1.00  0.00    -0.027 A 
HETATM   16  C   UNL     1       4.388  -5.710  -3.045  1.00  0.00     0.032 A 
HETATM   17  C   UNL     1       5.042  -4.329  -5.982  1.00  0.00     0.051 C 
HETATM   18  C   UNL     1       6.505  -6.433  -5.947  1.00  0.00     0.012 A 
HETATM   19  C   UNL     1       7.148  -6.402  -7.286  1.00  0.00     0.068 C 
HETATM   20  H   UNL     1       7.397  -8.207  -5.203  1.00  0.00     0.166 HD
ENDBRANCH   7   9
ENDBRANCH   6   7
ENDBRANCH   5   6
ENDBRANCH   1   5
BRANCH   2  21
HETATM   21  N   UNL     1      -0.437  -7.910   0.473  1.00  0.00    -0.167 N 
HETATM   22  C   UNL     1      -0.966  -8.781  -0.439  1.00  0.00     0.345 A 
HETATM   23  O   UNL     1      -0.639  -8.967  -1.600  1.00  0.00    -0.245 OA
HETATM   24  N   UNL     1      -1.949  -9.509   0.204  1.00  0.00    -0.319 N 
HETATM   25  C   UNL     1      -2.093  -9.146   1.605  1.00  0.00     0.141 A 
HETATM   26  H   UNL     1      -2.470 -10.229  -0.278  1.00  0.00     0.166 HD
HETATM   27  C   UNL     1      -0.968  -8.085   1.725  1.00  0.00     0.279 A 
HETATM   28  C   UNL     1      -1.748 -10.357   2.476  1.00  0.00     0.055 C 
HETATM   29  O   UNL     1      -0.593  -7.539   2.758  1.00  0.00    -0.268 OA
BRANCH  25  30
HETATM   30  C   UNL     1      -3.461  -8.558   1.936  1.00  0.00    -0.021 A 
HETATM   31  C   UNL     1      -4.490  -8.458   0.983  1.00  0.00     0.010 A 
HETATM   32  C   UNL     1      -5.733  -7.912   1.317  1.00  0.00     0.001 A 
HETATM   33  C   UNL     1      -5.971  -7.450   2.608  1.00  0.00     0.000 A 
HETATM   34  C   UNL     1      -4.967  -7.532   3.566  1.00  0.00     0.001 A 
HETATM   35  C   UNL     1      -3.726  -8.079   3.234  1.00  0.00     0.010 A 
ENDBRANCH  25  30
ENDBRANCH   2  21
TORSDOF 6
