REMARK  9 active torsions:
REMARK  status: ('A' for Active; 'I' for Inactive)
REMARK    1  A    between atoms: O_2  and  C_3 
REMARK    2  A    between atoms: C_6  and  C_7 
REMARK    3  A    between atoms: C_13  and  C_14 
REMARK       I    between atoms: C_14  and  N_15 
REMARK    4  A    between atoms: N_15  and  N_16 
REMARK    5  A    between atoms: N_16  and  C_17 
REMARK    6  A    between atoms: C_17  and  N_18 
REMARK    7  A    between atoms: N_18  and  C_19 
REMARK    8  A    between atoms: C_19  and  C_20 
REMARK    9  A    between atoms: C_27  and  C_28 
ROOT
HETATM    1  C   UNL     1       5.746  -1.434   4.838  1.00  0.00     0.118 C 
HETATM    2  N   UNL     1       6.188  -2.818   4.720  1.00  0.00    -0.365 N 
HETATM    3  C   UNL     1       7.316  -3.269   5.319  1.00  0.00     0.138 A 
HETATM    4  N   UNL     1       8.229  -2.399   5.848  1.00  0.00    -0.240 N 
HETATM    5  N   UNL     1       9.350  -2.996   6.288  1.00  0.00    -0.181 NA
HETATM    6  C   UNL     1       9.081  -4.296   6.118  1.00  0.00     0.160 A 
HETATM    7  C   UNL     1       7.813  -4.540   5.536  1.00  0.00     0.098 A 
HETATM    8  C   UNL     1       8.077  -0.958   5.858  1.00  0.00     0.221 C 
HETATM    9  C   UNL     1       6.989  -0.520   4.856  1.00  0.00     0.066 C 
HETATM   10  H   UNL     1       5.488  -3.489   4.394  1.00  0.00     0.161 HD
ENDROOT
BRANCH   7  11
HETATM   11  C   UNL     1       7.160  -5.780   5.159  1.00  0.00     0.275 C 
HETATM   12  N   UNL     1       7.541  -6.969   5.765  1.00  0.00    -0.263 N 
HETATM   13  H   UNL     1       6.906  -7.723   5.511  1.00  0.00     0.190 HD
HETATM   14  O   UNL     1       6.281  -5.820   4.296  1.00  0.00    -0.266 OA
BRANCH  12  15
HETATM   15  N   UNL     1       7.988  -7.025   7.101  1.00  0.00    -0.274 N 
HETATM   16  H   UNL     1       8.989  -6.963   7.261  1.00  0.00     0.189 HD
BRANCH  15  17
HETATM   17  C   UNL     1       7.128  -7.304   8.134  1.00  0.00     0.186 C 
HETATM   18  S   UNL     1       5.459  -7.281   8.044  1.00  0.00    -0.040 SA
BRANCH  17  19
HETATM   19  N   UNL     1       7.693  -7.659   9.322  1.00  0.00    -0.360 N 
HETATM   20  H   UNL     1       7.023  -7.825  10.064  1.00  0.00     0.162 HD
BRANCH  19  21
HETATM   21  C   UNL     1       9.068  -8.041   9.585  1.00  0.00     0.187 C 
BRANCH  21  22
HETATM   22  C   UNL     1       9.883  -6.832   9.833  1.00  0.00     0.070 A 
HETATM   23  O   UNL     1      10.471  -6.258   8.743  1.00  0.00    -0.325 OA
HETATM   24  C   UNL     1      11.151  -5.169   9.190  1.00  0.00     0.142 A 
HETATM   25  C   UNL     1      11.021  -5.047  10.553  1.00  0.00     0.027 A 
HETATM   26  C   UNL     1      10.202  -6.122  10.972  1.00  0.00     0.036 A 
ENDBRANCH  21  22
ENDBRANCH  19  21
ENDBRANCH  17  19
ENDBRANCH  15  17
ENDBRANCH  12  15
ENDBRANCH   7  11
BRANCH   1  27
HETATM   27  C   UNL     1       4.757  -1.221   5.973  1.00  0.00    -0.035 A 
HETATM   28  C   UNL     1       4.288  -2.273   6.776  1.00  0.00     0.012 A 
HETATM   29  C   UNL     1       3.373  -2.041   7.808  1.00  0.00     0.037 A 
HETATM   30  C   UNL     1       2.900  -0.757   8.066  1.00  0.00     0.068 A 
HETATM   31  C   UNL     1       3.326   0.295   7.258  1.00  0.00     0.037 A 
HETATM   32  C   UNL     1       4.238   0.063   6.219  1.00  0.00     0.012 A 
BRANCH  30  33
HETATM   33  O   UNL     1       2.023  -0.665   9.110  1.00  0.00    -0.356 OA
HETATM   34  C   UNL     1       1.729   0.645   9.579  1.00  0.00     0.210 C 
ENDBRANCH  30  33
ENDBRANCH   1  27
BRANCH   8  35
HETATM   35  C   UNL     1       7.841  -0.467   7.269  1.00  0.00     0.409 C 
HETATM   36  F   UNL     1       6.852  -1.105   7.919  1.00  0.00    -0.169 F 
HETATM   37  F   UNL     1       8.956  -0.565   8.032  1.00  0.00    -0.169 F 
HETATM   38  F   UNL     1       7.519   0.855   7.252  1.00  0.00    -0.169 F 
ENDBRANCH   8  35
TORSDOF 9
