REMARK  5 active torsions:
REMARK  status: ('A' for Active; 'I' for Inactive)
REMARK    1  A    between atoms: O_2  and  C_3 
REMARK    2  A    between atoms: C_7  and  C_9 
REMARK    3  A    between atoms: C_9  and  N_11 
REMARK       I    between atoms: N_11  and  C_12 
REMARK    4  A    between atoms: C_12  and  C_14 
REMARK    5  A    between atoms: C_17  and  C_20 
ROOT
HETATM    1  N   UNL     1       1.334  -4.784   0.760  1.00  0.00    -0.349 N 
HETATM    2  C   UNL     1       0.603  -5.871   1.182  1.00  0.00     0.252 C 
HETATM    3  O   UNL     1       0.808  -7.024   0.826  1.00  0.00    -0.268 OA
HETATM    4  H   UNL     1       0.966  -3.858   0.934  1.00  0.00     0.163 HD
ENDROOT
BRANCH   2   5
HETATM    5  C   UNL     1      -0.526  -5.553   2.092  1.00  0.00     0.032 A 
HETATM    6  C   UNL     1      -1.731  -6.240   1.936  1.00  0.00     0.018 A 
HETATM    7  C   UNL     1      -2.822  -5.929   2.755  1.00  0.00     0.013 A 
HETATM    8  C   UNL     1      -2.729  -4.944   3.757  1.00  0.00    -0.023 A 
HETATM    9  C   UNL     1      -1.493  -4.290   3.915  1.00  0.00     0.013 A 
HETATM   10  C   UNL     1      -0.401  -4.586   3.092  1.00  0.00     0.018 A 
BRANCH   8  11
HETATM   11  C   UNL     1      -3.885  -4.610   4.612  1.00  0.00     0.016 A 
HETATM   12  C   UNL     1      -4.692  -5.615   5.169  1.00  0.00     0.034 A 
HETATM   13  C   UNL     1      -5.775  -5.263   5.965  1.00  0.00     0.117 A 
HETATM   14  N   UNL     1      -6.115  -3.989   6.251  1.00  0.00    -0.270 NA
HETATM   15  C   UNL     1      -5.332  -3.027   5.712  1.00  0.00     0.159 A 
HETATM   16  C   UNL     1      -4.234  -3.286   4.907  1.00  0.00     0.144 A 
HETATM   17  F   UNL     1      -3.531  -2.255   4.416  1.00  0.00    -0.204 F 
ENDBRANCH   8  11
ENDBRANCH   2   5
BRANCH   1  18
HETATM   18  C   UNL     1       2.426  -4.911  -0.192  1.00  0.00     0.114 C 
HETATM   19  C   UNL     1       3.701  -5.415   0.488  1.00  0.00     0.037 C 
BRANCH  18  20
HETATM   20  C   UNL     1       2.654  -3.583  -0.895  1.00  0.00    -0.033 A 
HETATM   21  C   UNL     1       2.501  -3.496  -2.286  1.00  0.00     0.009 A 
HETATM   22  C   UNL     1       2.688  -2.282  -2.944  1.00  0.00     0.003 A 
HETATM   23  C   UNL     1       3.019  -1.140  -2.216  1.00  0.00     0.037 A 
HETATM   24  C   UNL     1       3.163  -1.198  -0.829  1.00  0.00     0.068 A 
HETATM   25  C   UNL     1       2.993  -2.420  -0.175  1.00  0.00     0.046 A 
BRANCH  24  26
HETATM   26  O   UNL     1       3.472  -0.005  -0.236  1.00  0.00    -0.356 OA
HETATM   27  C   UNL     1       3.424   0.037   1.185  1.00  0.00     0.210 C 
ENDBRANCH  24  26
ENDBRANCH  18  20
ENDBRANCH   1  18
TORSDOF 5
