REMARK  7 active torsions:
REMARK  status: ('A' for Active; 'I' for Inactive)
REMARK    1  A    between atoms: C_4  and  O_5 
REMARK    2  A    between atoms: O_5  and  C_6 
REMARK    3  A    between atoms: C_9  and  N_10 
REMARK       I    between atoms: N_10  and  C_11 
REMARK    4  A    between atoms: C_11  and  C_12 
REMARK    5  A    between atoms: C_12  and  C_13 
REMARK    6  A    between atoms: C_13  and  N_14 
REMARK       I    between atoms: N_14  and  C_15 
REMARK    7  A    between atoms: C_15  and  C_16 
ROOT
HETATM    1  N   UNL     1       2.534   7.350  -0.511  1.00  0.00    -0.327 N 
HETATM    2  C   UNL     1       1.239   7.692  -0.167  1.00  0.00     0.223 C 
HETATM    3  O   UNL     1       0.276   6.934  -0.104  1.00  0.00    -0.273 OA
HETATM    4  H   UNL     1       3.210   8.103  -0.556  1.00  0.00     0.169 HD
ENDROOT
BRANCH   1   5
HETATM    5  C   UNL     1       3.043   6.058  -0.765  1.00  0.00     0.034 A 
HETATM    6  C   UNL     1       2.288   4.886  -0.682  1.00  0.00     0.032 A 
HETATM    7  C   UNL     1       2.882   3.636  -0.906  1.00  0.00     0.039 A 
HETATM    8  C   UNL     1       4.233   3.553  -1.239  1.00  0.00     0.076 A 
HETATM    9  C   UNL     1       4.995   4.718  -1.319  1.00  0.00     0.039 A 
HETATM   10  C   UNL     1       4.403   5.963  -1.088  1.00  0.00     0.032 A 
BRANCH   8  11
HETATM   11  O   UNL     1       4.919   2.372  -1.413  1.00  0.00    -0.311 OA
BRANCH  11  12
HETATM   12  C   UNL     1       4.266   1.304  -1.979  1.00  0.00     0.076 A 
HETATM   13  C   UNL     1       3.561   1.399  -3.182  1.00  0.00     0.044 A 
HETATM   14  C   UNL     1       2.962   0.261  -3.739  1.00  0.00    -0.059 A 
HETATM   15  C   UNL     1       2.223   0.356  -5.041  1.00  0.00     0.048 C 
HETATM   16  C   UNL     1       3.120  -0.976  -3.100  1.00  0.00     0.007 A 
HETATM   17  C   UNL     1       3.847  -1.072  -1.912  1.00  0.00     0.003 A 
HETATM   18  C   UNL     1       4.423   0.067  -1.354  1.00  0.00     0.037 A 
ENDBRANCH  11  12
ENDBRANCH   8  11
ENDBRANCH   1   5
BRANCH   2  19
HETATM   19  C   UNL     1       1.078   9.166   0.148  1.00  0.00     0.123 C 
BRANCH  19  20
HETATM   20  C   UNL     1       0.441   9.305   1.525  1.00  0.00     0.132 C 
BRANCH  20  21
HETATM   21  N   UNL     1       0.302  10.682   1.951  1.00  0.00    -0.355 N 
HETATM   22  C   UNL     1       1.374  11.437   2.382  1.00  0.00     0.275 C 
HETATM   23  O   UNL     1       2.535  11.052   2.272  1.00  0.00    -0.265 OA
HETATM   24  H   UNL     1      -0.622  11.050   2.154  1.00  0.00     0.162 HD
BRANCH  22  25
HETATM   25  C   UNL     1       0.999  12.702   2.981  1.00  0.00     0.142 A 
HETATM   26  O   UNL     1      -0.330  13.026   3.096  1.00  0.00    -0.317 OA
HETATM   27  C   UNL     1      -0.395  14.238   3.706  1.00  0.00     0.143 A 
HETATM   28  C   UNL     1       0.867  14.707   3.986  1.00  0.00     0.027 A 
HETATM   29  C   UNL     1       1.766  13.719   3.518  1.00  0.00     0.045 A 
ENDBRANCH  22  25
ENDBRANCH  20  21
ENDBRANCH  19  20
ENDBRANCH   2  19
TORSDOF 7
