REMARK  9 active torsions:
REMARK  status: ('A' for Active; 'I' for Inactive)
REMARK    1  A    between atoms: C_2  and  C_3 
REMARK    2  A    between atoms: C_3  and  N_4 
REMARK    3  A    between atoms: C_7  and  C_8 
REMARK       I    between atoms: C_8  and  N_9 
REMARK    4  A    between atoms: N_9  and  C_10 
REMARK    5  A    between atoms: C_10  and  C_11 
REMARK    6  A    between atoms: C_13  and  O_14 
REMARK    7  A    between atoms: O_14  and  C_15 
REMARK    8  A    between atoms: C_15  and  C_16 
REMARK       I    between atoms: C_16  and  N_17 
REMARK    9  A    between atoms: C_23  and  C_24 
ROOT
HETATM    1  C   UNL     1       2.138   6.076   0.662  1.00  0.00     0.255 C 
HETATM    2  N   UNL     1       2.607   6.708   1.784  1.00  0.00    -0.353 N 
HETATM    3  O   UNL     1       1.643   6.768  -0.225  1.00  0.00    -0.268 OA
HETATM    4  H   UNL     1       2.488   7.712   1.747  1.00  0.00     0.163 HD
ENDROOT
BRANCH   2   5
HETATM    5  C   UNL     1       3.230   6.160   2.972  1.00  0.00     0.161 C 
BRANCH   5   6
HETATM    6  C   UNL     1       2.391   6.358   4.214  1.00  0.00    -0.038 A 
HETATM    7  C   UNL     1       0.993   6.486   4.166  1.00  0.00     0.045 A 
HETATM    8  C   UNL     1       0.232   6.644   5.330  1.00  0.00     0.070 A 
HETATM    9  C   UNL     1       0.872   6.663   6.567  1.00  0.00     0.037 A 
HETATM   10  C   UNL     1       2.260   6.522   6.635  1.00  0.00     0.003 A 
HETATM   11  C   UNL     1       3.013   6.366   5.470  1.00  0.00     0.009 A 
BRANCH   8  12
HETATM   12  O   UNL     1      -1.113   6.764   5.115  1.00  0.00    -0.342 OA
BRANCH  12  13
HETATM   13  C   UNL     1      -1.938   6.954   6.262  1.00  0.00     0.278 C 
BRANCH  13  14
HETATM   14  C   UNL     1      -3.407   7.090   5.863  1.00  0.00     0.239 C 
HETATM   15  N   UNL     1      -3.662   7.143   4.524  1.00  0.00    -0.368 N 
HETATM   16  H   UNL     1      -2.917   7.000   3.853  1.00  0.00     0.159 HD
HETATM   17  H   UNL     1      -4.621   7.197   4.209  1.00  0.00     0.159 HD
HETATM   18  O   UNL     1      -4.317   7.166   6.684  1.00  0.00    -0.271 OA
ENDBRANCH  13  14
ENDBRANCH  12  13
ENDBRANCH   8  12
ENDBRANCH   5   6
ENDBRANCH   2   5
BRANCH   1  19
HETATM   19  C   UNL     1       2.214   4.632   0.587  1.00  0.00     0.075 A 
HETATM   20  C   UNL     1       1.634   3.721   1.501  1.00  0.00     0.158 A 
HETATM   21  N   UNL     1       1.883   2.449   1.205  1.00  0.00    -0.183 NA
HETATM   22  N   UNL     1       2.577   2.517   0.052  1.00  0.00    -0.268 N 
HETATM   23  C   UNL     1       2.809   3.813  -0.368  1.00  0.00     0.052 A 
BRANCH  22  24
HETATM   24  C   UNL     1       2.992   1.279  -0.609  1.00  0.00     0.106 C 
HETATM   25  C   UNL     1       2.054   0.096  -0.333  1.00  0.00     0.034 C 
BRANCH  24  26
HETATM   26  C   UNL     1       4.467   0.933  -0.321  1.00  0.00     0.022 C 
HETATM   27  C   UNL     1       4.788   0.628   1.136  1.00  0.00     0.007 C 
ENDBRANCH  24  26
ENDBRANCH  22  24
BRANCH  23  28
HETATM   28  C   UNL     1       3.607   4.169  -1.625  1.00  0.00     0.038 A 
HETATM   29  C   UNL     1       3.152   5.281  -2.538  1.00  0.00     0.011 A 
HETATM   30  C   UNL     1       4.375   5.468  -1.704  1.00  0.00     0.011 A 
ENDBRANCH  23  28
ENDBRANCH   1  19
TORSDOF 9
