REMARK  6 active torsions:
REMARK  status: ('A' for Active; 'I' for Inactive)
REMARK    1  A    between atoms: C_2  and  O_3 
REMARK    2  A    between atoms: O_3  and  C_4 
REMARK    3  A    between atoms: C_4  and  C_5 
REMARK    4  A    between atoms: C_10  and  C_11 
REMARK    5  A    between atoms: C_11  and  N_12 
REMARK    6  A    between atoms: C_11  and  C_16 
ROOT
HETATM    1  C   UNL     1       5.325   0.350   0.233  1.00  0.00     0.118 A 
HETATM    2  N   UNL     1       6.351   0.734  -0.595  1.00  0.00    -0.350 N 
HETATM    3  H   UNL     1       6.557   1.696  -0.837  1.00  0.00     0.166 HD
HETATM    4  C   UNL     1       7.034  -0.355  -1.066  1.00  0.00     0.043 A 
HETATM    5  C   UNL     1       6.460  -1.492  -0.496  1.00  0.00     0.002 A 
HETATM    6  C   UNL     1       5.374  -1.045   0.349  1.00  0.00     0.022 A 
HETATM    7  C   UNL     1       8.119  -0.401  -1.950  1.00  0.00     0.030 A 
HETATM    8  C   UNL     1       8.646  -1.651  -2.270  1.00  0.00     0.002 A 
HETATM    9  C   UNL     1       8.110  -2.808  -1.720  1.00  0.00     0.001 A 
HETATM   10  C   UNL     1       7.025  -2.744  -0.835  1.00  0.00     0.014 A 
ENDROOT
BRANCH   6  11
HETATM   11  C   UNL     1       4.422  -1.865   1.180  1.00  0.00     0.252 C 
BRANCH  11  12
HETATM   12  N   UNL     1       4.136  -3.213   0.651  1.00  0.00    -0.067 N 
HETATM   13  H   UNL     1       4.926  -3.838   0.820  1.00  0.00     0.275 HD
HETATM   14  H   UNL     1       3.323  -3.606   1.136  1.00  0.00     0.275 HD
HETATM   15  H   UNL     1       3.940  -3.168  -0.353  1.00  0.00     0.275 HD
ENDBRANCH  11  12
BRANCH  11  16
HETATM   16  C   UNL     1       4.971  -1.938   2.590  1.00  0.00    -0.024 A 
HETATM   17  C   UNL     1       4.164  -1.512   3.662  1.00  0.00     0.009 A 
HETATM   18  C   UNL     1       4.608  -1.617   4.981  1.00  0.00     0.001 A 
HETATM   19  C   UNL     1       5.863  -2.151   5.255  1.00  0.00     0.000 A 
HETATM   20  C   UNL     1       6.678  -2.577   4.211  1.00  0.00     0.001 A 
HETATM   21  C   UNL     1       6.237  -2.476   2.889  1.00  0.00     0.009 A 
ENDBRANCH  11  16
ENDBRANCH   6  11
BRANCH   1  22
HETATM   22  C   UNL     1       4.398   1.284   0.837  1.00  0.00     0.310 C 
HETATM   23  O   UNL     1       3.437   0.953   1.517  1.00  0.00    -0.258 OA
BRANCH  22  24
HETATM   24  O   UNL     1       4.741   2.554   0.500  1.00  0.00    -0.317 OA
BRANCH  24  25
HETATM   25  C   UNL     1       3.886   3.592   1.005  1.00  0.00     0.175 C 
HETATM   26  C   UNL     1       2.716   3.806   0.062  1.00  0.00     0.034 C 
ENDBRANCH  24  25
ENDBRANCH  22  24
ENDBRANCH   1  22
TORSDOF 6
