REMARK  6 active torsions:
REMARK  status: ('A' for Active; 'I' for Inactive)
REMARK    1  A    between atoms: C_8  and  C_9 
REMARK    2  A    between atoms: C_9  and  C_10 
REMARK    3  A    between atoms: C_10  and  N_11 
REMARK       I    between atoms: N_11  and  C_12 
REMARK    4  A    between atoms: C_12  and  C_13 
REMARK    5  A    between atoms: C_18  and  C_19 
REMARK    6  A    between atoms: C_29  and  C_30 
ROOT
HETATM    1  C   UNL     1       0.726  -5.748   0.005  1.00  0.00     0.148 A 
HETATM    2  N   UNL     1       1.686  -6.696   0.113  1.00  0.00    -0.165 NA
HETATM    3  N   UNL     1       2.831  -5.997  -0.024  1.00  0.00    -0.240 N 
HETATM    4  C   UNL     1       2.648  -4.648  -0.092  1.00  0.00     0.123 A 
HETATM    5  N   UNL     1       3.679  -3.787  -0.141  1.00  0.00    -0.366 N 
HETATM    6  C   UNL     1       5.072  -4.196  -0.060  1.00  0.00     0.118 C 
HETATM    7  C   UNL     1       5.249  -5.670   0.347  1.00  0.00     0.066 C 
HETATM    8  C   UNL     1       4.127  -6.641  -0.068  1.00  0.00     0.221 C 
HETATM    9  C   UNL     1       1.295  -4.451  -0.116  1.00  0.00     0.088 A 
HETATM   10  H   UNL     1       3.524  -2.786  -0.250  1.00  0.00     0.161 HD
ENDROOT
BRANCH   1  11
HETATM   11  C   UNL     1      -0.713  -6.049   0.014  1.00  0.00     0.272 C 
HETATM   12  N   UNL     1      -1.019  -7.368   0.267  1.00  0.00    -0.355 N 
HETATM   13  H   UNL     1      -0.247  -7.954   0.574  1.00  0.00     0.162 HD
HETATM   14  O   UNL     1      -1.567  -5.188  -0.181  1.00  0.00    -0.266 OA
BRANCH  12  15
HETATM   15  C   UNL     1      -2.395  -7.796   0.399  1.00  0.00     0.127 C 
BRANCH  15  16
HETATM   16  C   UNL     1      -2.554  -9.297   0.631  1.00  0.00     0.060 C 
BRANCH  16  17
HETATM   17  C   UNL     1      -2.183  -9.716   2.020  1.00  0.00    -0.029 A 
HETATM   18  C   UNL     1      -0.970 -10.348   2.441  1.00  0.00    -0.002 A 
HETATM   19  C   UNL     1       0.203 -10.765   1.777  1.00  0.00     0.014 A 
HETATM   20  C   UNL     1      -1.064 -10.559   3.817  1.00  0.00     0.042 A 
HETATM   21  C   UNL     1       1.228 -11.376   2.508  1.00  0.00     0.001 A 
HETATM   22  C   UNL     1       1.102 -11.574   3.881  1.00  0.00     0.002 A 
HETATM   23  C   UNL     1      -0.048 -11.167   4.563  1.00  0.00     0.030 A 
HETATM   24  N   UNL     1      -2.285 -10.073   4.219  1.00  0.00    -0.365 N 
HETATM   25  H   UNL     1      -2.625 -10.093   5.171  1.00  0.00     0.165 HD
HETATM   26  C   UNL     1      -2.970  -9.569   3.147  1.00  0.00     0.096 A 
ENDBRANCH  16  17
ENDBRANCH  15  16
ENDBRANCH  12  15
ENDBRANCH   1  11
BRANCH   8  27
HETATM   27  C   UNL     1       4.353  -7.281  -1.418  1.00  0.00     0.409 C 
HETATM   28  F   UNL     1       4.253  -6.423  -2.450  1.00  0.00    -0.169 F 
HETATM   29  F   UNL     1       5.600  -7.821  -1.472  1.00  0.00    -0.169 F 
HETATM   30  F   UNL     1       3.495  -8.301  -1.653  1.00  0.00    -0.169 F 
ENDBRANCH   8  27
BRANCH   6  31
HETATM   31  C   UNL     1       5.832  -3.746  -1.296  1.00  0.00    -0.033 A 
HETATM   32  C   UNL     1       7.133  -3.226  -1.148  1.00  0.00     0.049 A 
HETATM   33  C   UNL     1       7.773  -2.721  -2.262  1.00  0.00     0.105 A 
HETATM   34  C   UNL     1       7.189  -2.739  -3.505  1.00  0.00     0.105 A 
HETATM   35  O   UNL     1       9.001  -2.136  -2.275  1.00  0.00    -0.323 OA
HETATM   36  O   UNL     1       7.977  -2.173  -4.458  1.00  0.00    -0.323 OA
HETATM   37  C   UNL     1       5.933  -3.263  -3.704  1.00  0.00     0.040 A 
HETATM   38  C   UNL     1       9.098  -1.742  -3.660  1.00  0.00     0.352 A 
HETATM   39  C   UNL     1       5.250  -3.757  -2.587  1.00  0.00     0.012 A 
ENDBRANCH   6  31
TORSDOF 6
