REMARK  3 active torsions:
REMARK  status: ('A' for Active; 'I' for Inactive)
REMARK    1  A    between atoms: C_2  and  C_3 
REMARK    2  A    between atoms: C_3  and  C_4 
REMARK    3  A    between atoms: C_8  and  C_9 
REMARK       I    between atoms: C_9  and  N_10 
ROOT
HETATM    1  C   UNL     1       0.025  -4.165  -2.995  1.00  0.00     0.271 C 
HETATM    2  N   UNL     1      -0.846  -3.260  -3.617  1.00  0.00    -0.347 N 
HETATM    3  C   UNL     1      -2.100  -2.774  -3.044  1.00  0.00     0.128 C 
HETATM    4  C   UNL     1      -2.369  -1.311  -3.372  1.00  0.00     0.055 C 
HETATM    5  C   UNL     1      -2.231  -0.998  -4.868  1.00  0.00     0.100 C 
HETATM    6  N   UNL     1      -3.339  -1.664  -5.605  1.00  0.00    -0.273 NA
HETATM    7  C   UNL     1      -3.598  -1.159  -6.891  1.00  0.00     0.036 A 
HETATM    8  C   UNL     1      -3.296   0.172  -7.230  1.00  0.00     0.056 A 
HETATM    9  N   UNL     1      -2.667   0.999  -6.294  1.00  0.00    -0.324 N 
HETATM   10  C   UNL     1      -2.262   0.546  -5.063  1.00  0.00     0.245 C 
HETATM   11  O   UNL     1      -1.838   1.347  -4.228  1.00  0.00    -0.271 OA
HETATM   12  C   UNL     1      -4.309  -1.935  -7.811  1.00  0.00     0.026 A 
HETATM   13  C   UNL     1      -4.647  -1.421  -9.066  1.00  0.00     0.002 A 
HETATM   14  C   UNL     1      -4.309  -0.110  -9.401  1.00  0.00     0.002 A 
HETATM   15  C   UNL     1      -3.642   0.694  -8.477  1.00  0.00     0.031 A 
HETATM   16  C   UNL     1      -0.864  -1.498  -5.369  1.00  0.00     0.055 C 
HETATM   17  C   UNL     1      -0.614  -2.960  -5.026  1.00  0.00     0.128 C 
HETATM   18  O   UNL     1       1.134  -4.404  -3.472  1.00  0.00    -0.266 OA
HETATM   19  H   UNL     1      -3.307  -2.679  -5.595  1.00  0.00     0.129 HD
HETATM   20  H   UNL     1      -2.586   1.992  -6.459  1.00  0.00     0.169 HD
ENDROOT
BRANCH   1  21
HETATM   21  C   UNL     1      -0.374  -4.813  -1.770  1.00  0.00     0.119 A 
HETATM   22  N   UNL     1       0.548  -5.192  -0.831  1.00  0.00    -0.273 N 
HETATM   23  N   UNL     1       0.016  -5.748   0.271  1.00  0.00    -0.179 NA
HETATM   24  H   UNL     1       1.555  -5.071  -0.884  1.00  0.00     0.189 HD
HETATM   25  C   UNL     1      -1.292  -5.802   0.001  1.00  0.00     0.057 A 
HETATM   26  C   UNL     1      -1.579  -5.277  -1.279  1.00  0.00     0.065 A 
BRANCH  25  27
HETATM   27  C   UNL     1      -2.260  -6.360   0.994  1.00  0.00     0.065 C 
BRANCH  27  28
HETATM   28  C   UNL     1      -3.058  -5.266   1.730  1.00  0.00    -0.017 C 
HETATM   29  C   UNL     1      -2.175  -4.471   2.696  1.00  0.00     0.010 C 
HETATM   30  C   UNL     1      -4.228  -5.891   2.491  1.00  0.00     0.010 C 
ENDBRANCH  27  28
ENDBRANCH  25  27
ENDBRANCH   1  21
TORSDOF 3
