REMARK  2 active torsions:
REMARK  status: ('A' for Active; 'I' for Inactive)
REMARK    1  A    between atoms: C_4  and  C_5 
REMARK    2  A    between atoms: C_11  and  C_12 
ROOT
HETATM    1  C   UNL     1       2.726   0.117   0.015  1.00  0.00     0.098 A 
HETATM    2  N   UNL     1       3.374   1.300   0.055  1.00  0.00    -0.172 NA
HETATM    3  N   UNL     1       4.661   0.999  -0.174  1.00  0.00    -0.261 N 
HETATM    4  H   UNL     1       5.336   1.755  -0.196  1.00  0.00     0.191 HD
HETATM    5  C   UNL     1       4.864  -0.328  -0.366  1.00  0.00     0.133 A 
HETATM    6  C   UNL     1       3.646  -0.944  -0.238  1.00  0.00     0.028 A 
HETATM    7  C   UNL     1       3.511  -2.413  -0.429  1.00  0.00     0.067 C 
HETATM    8  C   UNL     1       4.879  -3.117  -0.377  1.00  0.00     0.117 C 
HETATM    9  C   UNL     1       6.073  -2.301  -0.866  1.00  0.00     0.224 C 
HETATM   10  O   UNL     1       7.091  -2.842  -1.297  1.00  0.00    -0.273 OA
HETATM   11  N   UNL     1       6.043  -0.937  -0.692  1.00  0.00    -0.312 N 
HETATM   12  H   UNL     1       6.884  -0.421  -0.921  1.00  0.00     0.170 HD
ENDROOT
BRANCH   7  13
HETATM   13  C   UNL     1       2.775  -2.659  -1.739  1.00  0.00    -0.046 A 
HETATM   14  C   UNL     1       1.761  -3.638  -1.754  1.00  0.00     0.047 A 
HETATM   15  C   UNL     1       1.111  -3.901  -2.942  1.00  0.00     0.105 A 
HETATM   16  C   UNL     1       1.424  -3.235  -4.101  1.00  0.00     0.105 A 
HETATM   17  O   UNL     1       0.124  -4.819  -3.119  1.00  0.00    -0.323 OA
HETATM   18  O   UNL     1       0.669  -3.645  -5.155  1.00  0.00    -0.323 OA
HETATM   19  C   UNL     1       2.410  -2.276  -4.138  1.00  0.00     0.040 A 
HETATM   20  C   UNL     1      -0.146  -4.656  -4.526  1.00  0.00     0.352 A 
HETATM   21  C   UNL     1       3.098  -1.997  -2.950  1.00  0.00     0.011 A 
ENDBRANCH   7  13
BRANCH   1  22
HETATM   22  C   UNL     1       1.271   0.066   0.159  1.00  0.00    -0.005 A 
HETATM   23  C   UNL     1       0.480   1.056  -0.445  1.00  0.00     0.014 A 
HETATM   24  C   UNL     1      -0.912   1.020  -0.344  1.00  0.00     0.001 A 
HETATM   25  C   UNL     1      -1.530  -0.006   0.367  1.00  0.00     0.000 A 
HETATM   26  C   UNL     1      -0.756  -0.988   0.984  1.00  0.00     0.001 A 
HETATM   27  C   UNL     1       0.638  -0.949   0.886  1.00  0.00     0.014 A 
ENDBRANCH   1  22
TORSDOF 2
