REMARK  10 active torsions:
REMARK  status: ('A' for Active; 'I' for Inactive)
REMARK    1  A    between atoms: C_2  and  N_3 
REMARK    2  A    between atoms: N_3  and  C_5 
REMARK    3  A    between atoms: N_3  and  C_35 
REMARK    4  A    between atoms: C_5  and  C_6 
REMARK    5  A    between atoms: C_6  and  N_7 
REMARK       I    between atoms: N_7  and  C_8 
REMARK    6  A    between atoms: C_8  and  C_9 
REMARK    7  A    between atoms: N_15  and  C_16 
REMARK    8  A    between atoms: C_16  and  C_17 
REMARK       I    between atoms: C_17  and  N_18 
REMARK    9  A    between atoms: N_18  and  C_19 
REMARK   10  A    between atoms: C_21  and  C_22 
ROOT
HETATM    1  C   UNL     1      -2.271  -2.370  -2.725  1.00  0.00     0.081 A 
HETATM    2  S   UNL     1      -3.122  -0.886  -2.865  1.00  0.00    -0.063 SA
HETATM    3  C   UNL     1      -4.034  -1.182  -1.466  1.00  0.00     0.116 A 
HETATM    4  C   UNL     1      -3.729  -2.400  -0.900  1.00  0.00     0.075 A 
HETATM    5  C   UNL     1      -4.406  -2.737   0.348  1.00  0.00     0.262 C 
HETATM    6  O   UNL     1      -4.269  -3.821   0.910  1.00  0.00    -0.267 OA
HETATM    7  N   UNL     1      -5.185  -1.709   0.866  1.00  0.00    -0.299 N 
HETATM    8  C   UNL     1      -5.441  -0.560   0.144  1.00  0.00     0.214 C 
HETATM    9  N   UNL     1      -4.913  -0.262  -0.999  1.00  0.00    -0.235 NA
HETATM   10  C   UNL     1      -2.713  -3.124  -1.637  1.00  0.00    -0.021 A 
HETATM   11  C   UNL     1      -2.171  -4.457  -1.218  1.00  0.00     0.051 C 
ENDROOT
BRANCH   7  12
HETATM   12  C   UNL     1      -5.736  -1.868   2.203  1.00  0.00     0.236 C 
BRANCH  12  13
HETATM   13  C   UNL     1      -7.126  -2.504   2.164  1.00  0.00     0.240 C 
HETATM   14  N   UNL     1      -7.656  -3.024   3.317  1.00  0.00    -0.326 N 
HETATM   15  H   UNL     1      -8.670  -3.061   3.304  1.00  0.00     0.169 HD
HETATM   16  O   UNL     1      -7.858  -2.380   1.178  1.00  0.00    -0.271 OA
BRANCH  14  17
HETATM   17  C   UNL     1      -7.023  -3.516   4.469  1.00  0.00     0.035 A 
HETATM   18  C   UNL     1      -5.800  -4.192   4.432  1.00  0.00     0.045 A 
HETATM   19  C   UNL     1      -5.222  -4.699   5.609  1.00  0.00     0.050 A 
HETATM   20  C   UNL     1      -5.893  -4.521   6.828  1.00  0.00     0.016 A 
HETATM   21  C   UNL     1      -7.131  -3.882   6.863  1.00  0.00     0.003 A 
HETATM   22  C   UNL     1      -7.704  -3.403   5.683  1.00  0.00     0.029 A 
BRANCH  19  23
HETATM   23  C   UNL     1      -3.910  -5.447   5.576  1.00  0.00     0.417 C 
HETATM   24  F   UNL     1      -3.401  -5.598   4.322  1.00  0.00    -0.166 F 
HETATM   25  F   UNL     1      -2.940  -4.820   6.296  1.00  0.00    -0.166 F 
HETATM   26  F   UNL     1      -4.010  -6.703   6.091  1.00  0.00    -0.166 F 
ENDBRANCH  19  23
ENDBRANCH  14  17
ENDBRANCH  12  13
ENDBRANCH   7  12
BRANCH   1  27
HETATM   27  C   UNL     1      -1.200  -2.604  -3.684  1.00  0.00     0.259 C 
HETATM   28  N   UNL     1      -0.918  -3.927  -3.980  1.00  0.00    -0.355 N 
HETATM   29  H   UNL     1      -1.649  -4.605  -3.792  1.00  0.00     0.162 HD
HETATM   30  O   UNL     1      -0.525  -1.719  -4.211  1.00  0.00    -0.267 OA
BRANCH  28  31
HETATM   31  C   UNL     1       0.147  -4.261  -4.909  1.00  0.00     0.150 C 
BRANCH  31  32
HETATM   32  C   UNL     1       1.538  -3.820  -4.401  1.00  0.00     0.254 C 
BRANCH  32  33
HETATM   33  N   UNL     1       2.698  -4.239  -5.296  1.00  0.00    -0.070 N 
HETATM   34  H   UNL     1       3.535  -3.857  -4.834  1.00  0.00     0.279 HD
BRANCH  33  35
HETATM   35  C   UNL     1       2.685  -3.601  -6.676  1.00  0.00     0.230 C 
HETATM   36  C   UNL     1       2.785  -2.089  -6.595  1.00  0.00     0.034 C 
ENDBRANCH  33  35
BRANCH  33  37
HETATM   37  C   UNL     1       2.933  -5.734  -5.389  1.00  0.00     0.230 C 
HETATM   38  C   UNL     1       3.217  -6.341  -4.027  1.00  0.00     0.034 C 
ENDBRANCH  33  37
ENDBRANCH  32  33
ENDBRANCH  31  32
ENDBRANCH  28  31
ENDBRANCH   1  27
TORSDOF 10
