REMARK  4 active torsions:
REMARK  status: ('A' for Active; 'I' for Inactive)
REMARK    1  A    between atoms: O_2  and  C_3 
REMARK    2  A    between atoms: C_5  and  C_6 
REMARK    3  A    between atoms: C_10  and  C_11 
REMARK       I    between atoms: C_11  and  N_12 
REMARK    4  A    between atoms: N_12  and  N_13 
ROOT
HETATM    1  C   UNL     1       2.085   8.440   0.231  1.00  0.00     0.289 C 
HETATM    2  N   UNL     1       3.356   8.993   0.183  1.00  0.00    -0.241 N 
HETATM    3  O   UNL     1       1.053   9.071   0.428  1.00  0.00    -0.264 OA
HETATM    4  H   UNL     1       4.132   8.419  -0.111  1.00  0.00     0.192 HD
ENDROOT
BRANCH   1   5
HETATM    5  C   UNL     1       2.066   7.006   0.067  1.00  0.00     0.121 A 
HETATM    6  N   UNL     1       0.908   6.290   0.187  1.00  0.00    -0.272 N 
HETATM    7  N   UNL     1       1.067   4.962   0.067  1.00  0.00    -0.174 NA
HETATM    8  H   UNL     1      -0.019   6.662   0.377  1.00  0.00     0.189 HD
HETATM    9  C   UNL     1       2.375   4.798  -0.187  1.00  0.00     0.089 A 
HETATM   10  C   UNL     1       3.035   6.059  -0.200  1.00  0.00     0.071 A 
BRANCH   9  11
HETATM   11  C   UNL     1       2.969   3.472  -0.383  1.00  0.00    -0.003 A 
HETATM   12  C   UNL     1       2.332   2.329   0.132  1.00  0.00     0.050 A 
HETATM   13  C   UNL     1       2.903   1.063  -0.021  1.00  0.00     0.069 A 
HETATM   14  C   UNL     1       4.119   0.938  -0.696  1.00  0.00     0.037 A 
HETATM   15  C   UNL     1       4.757   2.059  -1.223  1.00  0.00     0.004 A 
HETATM   16  C   UNL     1       4.184   3.322  -1.067  1.00  0.00     0.014 A 
BRANCH  13  17
HETATM   17  O   UNL     1       2.385  -0.115   0.443  1.00  0.00    -0.356 OA
HETATM   18  C   UNL     1       1.114  -0.048   1.079  1.00  0.00     0.210 C 
ENDBRANCH  13  17
ENDBRANCH   9  11
ENDBRANCH   1   5
BRANCH   2  19
HETATM   19  N   UNL     1       3.537  10.342   0.204  1.00  0.00    -0.165 NA
HETATM   20  C   UNL     1       4.724  10.802   0.450  1.00  0.00     0.157 A 
HETATM   21  C   UNL     1       5.060  12.297   0.275  1.00  0.00     0.277 A 
HETATM   22  C   UNL     1       5.977  10.164   0.887  1.00  0.00     0.027 A 
HETATM   23  O   UNL     1       4.292  13.182  -0.030  1.00  0.00    -0.266 OA
HETATM   24  N   UNL     1       6.412  12.397   0.513  1.00  0.00    -0.321 N 
HETATM   25  C   UNL     1       6.948  11.168   0.877  1.00  0.00     0.048 A 
HETATM   26  H   UNL     1       6.907  13.276   0.468  1.00  0.00     0.169 HD
HETATM   27  C   UNL     1       8.259  10.923   1.233  1.00  0.00     0.030 A 
HETATM   28  C   UNL     1       8.587   9.625   1.631  1.00  0.00     0.002 A 
HETATM   29  C   UNL     1       7.607   8.618   1.683  1.00  0.00     0.001 A 
HETATM   30  C   UNL     1       6.282   8.885   1.319  1.00  0.00     0.016 A 
ENDBRANCH   2  19
TORSDOF 4
