REMARK  5 active torsions:
REMARK  status: ('A' for Active; 'I' for Inactive)
REMARK    1  A    between atoms: C_7  and  S_8 
REMARK    2  A    between atoms: S_8  and  C_9 
REMARK    3  A    between atoms: C_9  and  C_10 
REMARK       I    between atoms: C_10  and  N_11 
REMARK    4  A    between atoms: N_11  and  N_12 
REMARK       I    between atoms: N_12  and  C_13 
REMARK       I    between atoms: C_13  and  N_14 
REMARK    5  A    between atoms: N_14  and  C_15 
ROOT
HETATM    1  C   UNL     1       3.521  -5.082  -0.342  1.00  0.00     0.245 C 
HETATM    2  N   UNL     1       2.282  -5.201  -0.929  1.00  0.00    -0.265 N 
HETATM    3  O   UNL     1       4.236  -6.070  -0.146  1.00  0.00    -0.271 OA
HETATM    4  H   UNL     1       1.694  -4.407  -1.184  1.00  0.00     0.190 HD
ENDROOT
BRANCH   1   5
HETATM    5  C   UNL     1       4.023  -3.681  -0.065  1.00  0.00     0.184 C 
BRANCH   5   6
HETATM    6  S   UNL     1       2.706  -2.505   0.357  1.00  0.00    -0.118 SA
BRANCH   6   7
HETATM    7  C   UNL     1       3.695  -1.190   0.961  1.00  0.00     0.035 A 
HETATM    8  C   UNL     1       3.762  -0.780   2.276  1.00  0.00     0.023 A 
HETATM    9  C   UNL     1       3.054  -1.254   3.493  1.00  0.00     0.069 C 
HETATM   10  N   UNL     1       4.681   0.240   2.330  1.00  0.00    -0.358 N 
HETATM   11  H   UNL     1       4.948   0.739   3.167  1.00  0.00     0.166 HD
HETATM   12  C   UNL     1       5.203   0.492   1.081  1.00  0.00     0.044 A 
HETATM   13  C   UNL     1       4.582  -0.384   0.189  1.00  0.00     0.009 A 
HETATM   14  C   UNL     1       6.168   1.424   0.681  1.00  0.00     0.030 A 
HETATM   15  C   UNL     1       4.934  -0.309  -1.176  1.00  0.00     0.015 A 
HETATM   16  C   UNL     1       5.897   0.618  -1.593  1.00  0.00     0.001 A 
HETATM   17  C   UNL     1       6.506   1.468  -0.674  1.00  0.00     0.002 A 
ENDBRANCH   6   7
ENDBRANCH   5   6
ENDBRANCH   1   5
BRANCH   2  18
HETATM   18  N   UNL     1       1.879  -6.477  -1.357  1.00  0.00    -0.249 N 
HETATM   19  C   UNL     1       0.893  -6.553  -2.302  1.00  0.00     0.339 C 
HETATM   20  N   UNL     1       0.650  -7.771  -2.868  1.00  0.00    -0.308 N 
HETATM   21  O   UNL     1       0.267  -5.562  -2.682  1.00  0.00    -0.245 OA
HETATM   22  H   UNL     1       0.055  -7.683  -3.683  1.00  0.00     0.170 HD
HETATM   23  H   UNL     1       2.653  -7.133  -1.447  1.00  0.00     0.192 HD
BRANCH  20  24
HETATM   24  C   UNL     1       1.096  -9.069  -2.550  1.00  0.00     0.036 A 
HETATM   25  C   UNL     1       1.630  -9.442  -1.313  1.00  0.00     0.029 A 
HETATM   26  C   UNL     1       2.082 -10.748  -1.099  1.00  0.00     0.002 A 
HETATM   27  C   UNL     1       1.983 -11.699  -2.110  1.00  0.00     0.000 A 
HETATM   28  C   UNL     1       1.412 -11.351  -3.331  1.00  0.00     0.002 A 
HETATM   29  C   UNL     1       0.961 -10.046  -3.544  1.00  0.00     0.029 A 
ENDBRANCH  20  24
ENDBRANCH   2  18
TORSDOF 5
