REMARK  5 active torsions:
REMARK  status: ('A' for Active; 'I' for Inactive)
REMARK    1  A    between atoms: C_4  and  C_5 
REMARK    2  A    between atoms: C_5  and  N_6 
REMARK    3  A    between atoms: C_7  and  N_8 
REMARK    4  A    between atoms: N_8  and  N_9 
REMARK       I    between atoms: N_9  and  C_10 
REMARK    5  A    between atoms: C_10  and  C_11 
ROOT
HETATM    1  N   UNL     1       3.383  -1.193  -0.332  1.00  0.00    -0.282 N 
HETATM    2  C   UNL     1       2.540  -2.304  -0.542  1.00  0.00     0.204 A 
HETATM    3  N   UNL     1       2.939  -3.553  -0.455  1.00  0.00    -0.217 NA
HETATM    4  C   UNL     1       4.290  -3.738  -0.181  1.00  0.00     0.090 A 
HETATM    5  C   UNL     1       5.163  -2.701   0.007  1.00  0.00     0.103 A 
HETATM    6  S   UNL     1       6.764  -3.225   0.311  1.00  0.00    -0.086 SA
HETATM    7  C   UNL     1       6.268  -4.822   0.175  1.00  0.00    -0.008 A 
HETATM    8  C   UNL     1       4.932  -4.977  -0.090  1.00  0.00    -0.015 A 
HETATM    9  C   UNL     1       4.570  -6.406  -0.213  1.00  0.00     0.042 C 
HETATM   10  C   UNL     1       5.838  -7.119   0.360  1.00  0.00     0.010 C 
HETATM   11  C   UNL     1       7.014  -6.096   0.276  1.00  0.00     0.047 C 
HETATM   12  C   UNL     1       4.751  -1.334  -0.051  1.00  0.00     0.269 A 
HETATM   13  O   UNL     1       5.508  -0.379   0.120  1.00  0.00    -0.266 OA
ENDROOT
BRANCH   2  14
HETATM   14  N   UNL     1       1.212  -2.055  -0.851  1.00  0.00    -0.170 NA
HETATM   15  H   UNL     1       1.035  -1.304  -1.519  1.00  0.00     0.156 HD
BRANCH  14  16
HETATM   16  N   UNL     1       0.406  -3.171  -1.123  1.00  0.00    -0.279 N 
HETATM   17  C   UNL     1      -0.592  -3.037  -2.067  1.00  0.00     0.289 C 
HETATM   18  O   UNL     1      -0.685  -2.017  -2.754  1.00  0.00    -0.264 OA
HETATM   19  H   UNL     1       0.554  -4.009  -0.565  1.00  0.00     0.184 HD
BRANCH  17  20
HETATM   20  C   UNL     1      -1.504  -4.153  -2.148  1.00  0.00     0.145 A 
HETATM   21  O   UNL     1      -1.415  -5.166  -1.229  1.00  0.00    -0.304 OA
HETATM   22  C   UNL     1      -2.436  -6.030  -1.483  1.00  0.00     0.086 A 
HETATM   23  C   UNL     1      -3.174  -5.600  -2.580  1.00  0.00     0.001 A 
HETATM   24  C   UNL     1      -2.724  -7.180  -0.751  1.00  0.00     0.038 A 
HETATM   25  C   UNL     1      -2.561  -4.395  -3.006  1.00  0.00     0.057 A 
HETATM   26  C   UNL     1      -4.278  -6.367  -2.990  1.00  0.00     0.014 A 
HETATM   27  C   UNL     1      -4.595  -7.528  -2.271  1.00  0.00     0.001 A 
HETATM   28  C   UNL     1      -3.831  -7.925  -1.169  1.00  0.00     0.003 A 
ENDBRANCH  17  20
ENDBRANCH  14  16
ENDBRANCH   2  14
BRANCH   1  29
HETATM   29  C   UNL     1       2.862   0.174  -0.279  1.00  0.00     0.173 C 
BRANCH  29  30
HETATM   30  C   UNL     1       2.287   0.520   1.080  1.00  0.00    -0.040 A 
HETATM   31  C   UNL     1       3.134   0.908   2.129  1.00  0.00     0.009 A 
HETATM   32  C   UNL     1       2.615   1.206   3.390  1.00  0.00     0.001 A 
HETATM   33  C   UNL     1       1.244   1.118   3.619  1.00  0.00     0.000 A 
HETATM   34  C   UNL     1       0.391   0.735   2.587  1.00  0.00     0.001 A 
HETATM   35  C   UNL     1       0.908   0.439   1.324  1.00  0.00     0.009 A 
ENDBRANCH  29  30
ENDBRANCH   1  29
TORSDOF 5
