REMARK  5 active torsions:
REMARK  status: ('A' for Active; 'I' for Inactive)
REMARK    1  A    between atoms: C_4  and  C_5 
REMARK       I    between atoms: C_5  and  N_6 
REMARK    2  A    between atoms: N_6  and  C_7 
REMARK    3  A    between atoms: C_7  and  C_8 
REMARK       I    between atoms: C_8  and  N_9 
REMARK    4  A    between atoms: N_9  and  C_10 
REMARK    5  A    between atoms: C_13  and  C_14 
ROOT
HETATM    1  C   UNL     1       2.516   5.520  -0.123  1.00  0.00     0.241 C 
HETATM    2  N   UNL     1       3.647   6.284  -0.285  1.00  0.00    -0.304 N 
HETATM    3  O   UNL     1       1.363   5.930  -0.016  1.00  0.00    -0.271 OA
HETATM    4  H   UNL     1       4.558   5.844  -0.211  1.00  0.00     0.171 HD
ENDROOT
BRANCH   2   5
HETATM    5  C   UNL     1       3.632   7.643  -0.385  1.00  0.00     0.173 A 
HETATM    6  S   UNL     1       5.182   8.333  -0.582  1.00  0.00    -0.061 SA
HETATM    7  C   UNL     1       4.463   9.892  -0.582  1.00  0.00     0.086 A 
HETATM    8  C   UNL     1       3.095   9.776  -0.432  1.00  0.00     0.078 A 
HETATM    9  N   UNL     1       2.626   8.474  -0.341  1.00  0.00    -0.223 NA
BRANCH   8  10
HETATM   10  C   UNL     1       2.120  10.861  -0.279  1.00  0.00     0.021 A 
HETATM   11  C   UNL     1       2.239  12.219  -0.712  1.00  0.00     0.004 A 
HETATM   12  C   UNL     1       1.084  12.880  -0.276  1.00  0.00     0.043 A 
HETATM   13  C   UNL     1       3.192  12.973  -1.433  1.00  0.00     0.014 A 
HETATM   14  C   UNL     1       0.855  14.245  -0.495  1.00  0.00     0.030 A 
HETATM   15  N   UNL     1       0.292  11.950   0.358  1.00  0.00    -0.364 N 
HETATM   16  C   UNL     1       1.826  14.964  -1.195  1.00  0.00     0.002 A 
HETATM   17  C   UNL     1       2.976  14.338  -1.664  1.00  0.00     0.001 A 
HETATM   18  H   UNL     1      -0.611  12.147   0.767  1.00  0.00     0.165 HD
HETATM   19  C   UNL     1       0.900  10.729   0.351  1.00  0.00     0.103 A 
ENDBRANCH   8  10
ENDBRANCH   2   5
BRANCH   1  20
HETATM   20  C   UNL     1       2.817   4.025   0.088  1.00  0.00     0.226 C 
BRANCH  20  21
HETATM   21  N   UNL     1       3.864   3.440  -0.745  1.00  0.00    -0.348 N 
HETATM   22  C   UNL     1       5.199   3.608  -0.464  1.00  0.00     0.252 C 
HETATM   23  O   UNL     1       5.588   4.441   0.349  1.00  0.00    -0.268 OA
HETATM   24  H   UNL     1       3.579   2.873  -1.533  1.00  0.00     0.163 HD
BRANCH  22  25
HETATM   25  C   UNL     1       6.169   2.812  -1.256  1.00  0.00     0.033 A 
HETATM   26  C   UNL     1       7.417   3.384  -1.534  1.00  0.00     0.023 A 
HETATM   27  C   UNL     1       8.375   2.672  -2.263  1.00  0.00    -0.061 A 
HETATM   28  C   UNL     1       9.700   3.293  -2.597  1.00  0.00     0.048 C 
HETATM   29  C   UNL     1       8.069   1.380  -2.709  1.00  0.00     0.013 A 
HETATM   30  C   UNL     1       6.834   0.785  -2.411  1.00  0.00    -0.061 A 
HETATM   31  C   UNL     1       5.879   1.512  -1.688  1.00  0.00     0.023 A 
HETATM   32  C   UNL     1       6.543  -0.607  -2.890  1.00  0.00     0.048 C 
ENDBRANCH  22  25
ENDBRANCH  20  21
ENDBRANCH   1  20
TORSDOF 5
