REMARK  6 active torsions:
REMARK  status: ('A' for Active; 'I' for Inactive)
REMARK    1  A    between atoms: C_2  and  C_3 
REMARK    2  A    between atoms: C_3  and  N_4 
REMARK    3  A    between atoms: C_3  and  C_15 
REMARK       I    between atoms: N_4  and  C_5 
REMARK    4  A    between atoms: C_5  and  C_6 
REMARK    5  A    between atoms: C_6  and  C_7 
REMARK    6  A    between atoms: C_16  and  O_17 
ROOT
HETATM    1  C   UNL     1       3.439  -1.130   1.131  1.00  0.00     0.128 C 
ENDROOT
BRANCH   1   2
HETATM    2  C   UNL     1       2.670  -2.377   0.545  1.00  0.00    -0.026 C 
HETATM    3  C   UNL     1       3.267  -3.725   0.992  1.00  0.00     0.016 C 
HETATM    4  C   UNL     1       2.709  -2.338  -1.000  1.00  0.00     0.016 C 
HETATM    5  C   UNL     1       1.183  -2.342   0.961  1.00  0.00     0.016 C 
ENDBRANCH   1   2
BRANCH   1   6
HETATM    6  N   UNL     1       4.861  -1.122   0.764  1.00  0.00    -0.351 N 
HETATM    7  C   UNL     1       5.365  -0.398  -0.298  1.00  0.00     0.222 C 
HETATM    8  O   UNL     1       4.665   0.242  -1.075  1.00  0.00    -0.273 OA
HETATM    9  H   UNL     1       5.500  -1.652   1.337  1.00  0.00     0.163 HD
BRANCH   7  10
HETATM   10  C   UNL     1       6.877  -0.512  -0.425  1.00  0.00     0.142 C 
BRANCH  10  11
HETATM   11  C   UNL     1       7.575   0.611  -1.153  1.00  0.00    -0.032 A 
HETATM   12  C   UNL     1       7.176   1.942  -1.044  1.00  0.00     0.126 A 
HETATM   13  N   UNL     1       7.825   2.981  -1.620  1.00  0.00    -0.248 NA
HETATM   14  C   UNL     1       8.920   2.678  -2.342  1.00  0.00     0.125 A 
HETATM   15 CL   UNL     1       9.707   4.025  -3.054  1.00  0.00    -0.063 Cl
HETATM   16  C   UNL     1       9.415   1.398  -2.509  1.00  0.00     0.045 A 
HETATM   17  C   UNL     1       8.733   0.351  -1.897  1.00  0.00     0.012 A 
ENDBRANCH  10  11
ENDBRANCH   7  10
ENDBRANCH   1   6
BRANCH   1  18
HETATM   18  C   UNL     1       3.306  -0.939   2.649  1.00  0.00    -0.001 A 
HETATM   19  C   UNL     1       2.438   0.041   3.181  1.00  0.00     0.076 A 
HETATM   20  C   UNL     1       2.334   0.203   4.569  1.00  0.00     0.037 A 
HETATM   21  C   UNL     1       3.081  -0.594   5.437  1.00  0.00     0.003 A 
HETATM   22  C   UNL     1       3.936  -1.562   4.928  1.00  0.00     0.001 A 
HETATM   23  C   UNL     1       4.047  -1.734   3.548  1.00  0.00     0.012 A 
BRANCH  19  24
HETATM   24  O   UNL     1       1.720   0.773   2.272  1.00  0.00    -0.355 OA
HETATM   25  C   UNL     1       0.943   1.860   2.758  1.00  0.00     0.210 C 
ENDBRANCH  19  24
ENDBRANCH   1  18
TORSDOF 6
