REMARK  9 active torsions:
REMARK  status: ('A' for Active; 'I' for Inactive)
REMARK    1  A    between atoms: C_3  and  C_4 
REMARK    2  A    between atoms: C_4  and  O_5 
REMARK    3  A    between atoms: C_8  and  N_9 
REMARK       I    between atoms: N_9  and  C_10 
REMARK    4  A    between atoms: C_10  and  C_11 
REMARK    5  A    between atoms: C_11  and  N_12 
REMARK    6  A    between atoms: C_14  and  C_15 
REMARK    7  A    between atoms: C_16  and  O_17 
REMARK    8  A    between atoms: C_21  and  O_22 
REMARK    9  A    between atoms: C_26  and  O_27 
ROOT
HETATM    1  N   UNL     1       6.262  -1.582   0.523  1.00  0.00    -0.054 N 
HETATM    2  H   UNL     1       5.738  -1.741  -0.348  1.00  0.00     0.281 HD
HETATM    3  C   UNL     1       5.618  -0.288   1.045  1.00  0.00     0.231 C 
HETATM    4  C   UNL     1       5.736  -0.181   2.594  1.00  0.00     0.055 C 
HETATM    5  C   UNL     1       5.534  -1.472   3.412  1.00  0.00     0.065 C 
HETATM    6  C   UNL     1       6.334  -2.618   2.800  1.00  0.00     0.066 C 
HETATM    7  C   UNL     1       5.986  -2.809   1.335  1.00  0.00     0.239 C 
HETATM    8  C   UNL     1       4.938   0.989   3.194  1.00  0.00     0.010 C 
HETATM    9  C   UNL     1       5.344   1.228   4.650  1.00  0.00     0.001 C 
HETATM   10  C   UNL     1       5.232  -0.034   5.501  1.00  0.00     0.003 C 
HETATM   11  C   UNL     1       5.962  -1.227   4.875  1.00  0.00     0.038 C 
ENDROOT
BRANCH   1  12
HETATM   12  C   UNL     1       7.691  -1.428  -0.015  1.00  0.00     0.338 C 
BRANCH  12  13
HETATM   13  C   UNL     1       8.738  -0.917   0.969  1.00  0.00     0.248 C 
HETATM   14  N   UNL     1       9.571  -1.904   1.475  1.00  0.00    -0.319 N 
HETATM   15  H   UNL     1       9.211  -2.840   1.611  1.00  0.00     0.169 HD
HETATM   16  O   UNL     1       8.743   0.262   1.319  1.00  0.00    -0.271 OA
BRANCH  14  17
HETATM   17  C   UNL     1      10.616  -1.553   2.305  1.00  0.00     0.094 C 
HETATM   18  C   UNL     1      11.590  -0.575   2.234  1.00  0.00     0.080 C 
HETATM   19  C   UNL     1      12.348  -0.549   3.485  1.00  0.00    -0.030 C 
HETATM   20  C   UNL     1      13.447   0.423   3.803  1.00  0.00     0.050 C 
HETATM   21  C   UNL     1      11.950  -1.566   4.347  1.00  0.00    -0.012 C 
HETATM   22  S   UNL     1      10.743  -2.557   3.659  1.00  0.00    -0.076 SA
HETATM   23  C   UNL     1      12.469  -1.883   5.715  1.00  0.00     0.057 C 
BRANCH  18  24
HETATM   24  C   UNL     1      11.821   0.223   1.017  1.00  0.00     0.296 C 
HETATM   25  O   UNL     1      11.283  -0.021  -0.060  1.00  0.00    -0.259 OA
BRANCH  24  26
HETATM   26  O   UNL     1      12.752   1.204   1.187  1.00  0.00    -0.322 OA
HETATM   27  C   UNL     1      13.114   1.916   0.002  1.00  0.00     0.213 C 
ENDBRANCH  24  26
ENDBRANCH  18  24
ENDBRANCH  14  17
ENDBRANCH  12  13
ENDBRANCH   1  12
BRANCH   3  28
HETATM   28  C   UNL     1       4.288  -0.044   0.327  1.00  0.00     0.009 A 
HETATM   29  C   UNL     1       4.275   0.689  -0.885  1.00  0.00     0.076 A 
HETATM   30  C   UNL     1       3.081   0.876  -1.588  1.00  0.00     0.040 A 
HETATM   31  C   UNL     1       1.890   0.341  -1.102  1.00  0.00     0.039 A 
HETATM   32  C   UNL     1       1.877  -0.383   0.084  1.00  0.00     0.069 A 
HETATM   33  C   UNL     1       3.072  -0.587   0.777  1.00  0.00     0.048 A 
BRANCH  29  34
HETATM   34  O   UNL     1       5.492   1.129  -1.342  1.00  0.00    -0.355 OA
HETATM   35  C   UNL     1       5.469   2.197  -2.290  1.00  0.00     0.210 C 
ENDBRANCH  29  34
BRANCH  32  36
HETATM   36  O   UNL     1       0.655  -0.877   0.445  1.00  0.00    -0.356 OA
HETATM   37  C   UNL     1       0.488  -1.235   1.812  1.00  0.00     0.210 C 
ENDBRANCH  32  36
ENDBRANCH   3  28
BRANCH   5  38
HETATM   38  O   UNL     1       4.169  -1.878   3.390  1.00  0.00    -0.389 OA
HETATM   39  H   UNL     1       3.834  -1.972   4.302  1.00  0.00     0.210 HD
ENDBRANCH   5  38
TORSDOF 9
