REMARK  3 active torsions:
REMARK  status: ('A' for Active; 'I' for Inactive)
REMARK    1  A    between atoms: C_12  and  C_13 
REMARK    2  A    between atoms: C_13  and  N_14 
REMARK    3  A    between atoms: C_18  and  C_19 
ROOT
HETATM    1  N   UNL     1      -5.034   0.040  -0.691  1.00  0.00    -0.067 N 
HETATM    2  H   UNL     1      -4.830  -0.523  -1.525  1.00  0.00     0.280 HD
HETATM    3  C   UNL     1      -5.102  -0.909   0.487  1.00  0.00     0.236 C 
HETATM    4  C   UNL     1      -6.275  -1.867   0.337  1.00  0.00     0.040 C 
HETATM    5  C   UNL     1      -7.608  -1.148   0.125  1.00  0.00     0.062 C 
HETATM    6  C   UNL     1      -7.496  -0.185  -1.058  1.00  0.00     0.040 C 
HETATM    7  C   UNL     1      -6.331   0.782  -0.926  1.00  0.00     0.236 C 
ENDROOT
BRANCH   1   8
HETATM    8  C   UNL     1      -3.899   1.041  -0.552  1.00  0.00     0.273 C 
BRANCH   8   9
HETATM    9  C   UNL     1      -2.532   0.417  -0.493  1.00  0.00    -0.028 A 
HETATM   10  C   UNL     1      -1.895   0.229   0.742  1.00  0.00     0.048 A 
HETATM   11  C   UNL     1      -0.639  -0.379   0.813  1.00  0.00     0.103 A 
HETATM   12  C   UNL     1      -0.002  -0.826  -0.347  1.00  0.00     0.119 A 
HETATM   13  O   UNL     1      -0.160  -0.609   2.073  1.00  0.00    -0.348 OA
HETATM   14  O   UNL     1       1.163  -1.542  -0.297  1.00  0.00    -0.347 OA
HETATM   15  C   UNL     1      -0.638  -0.651  -1.581  1.00  0.00     0.047 A 
HETATM   16  C   UNL     1       2.252  -0.781   0.226  1.00  0.00     0.178 C 
HETATM   17  C   UNL     1       2.261  -0.791   1.746  1.00  0.00     0.053 C 
HETATM   18  C   UNL     1       1.103   0.020   2.306  1.00  0.00     0.178 C 
HETATM   19 BR   UNL     1       0.155  -1.251  -3.198  1.00  0.00    -0.048 Br
HETATM   20  C   UNL     1      -1.889  -0.026  -1.658  1.00  0.00     0.031 A 
ENDBRANCH   8   9
ENDBRANCH   1   8
BRANCH   5  21
HETATM   21  C   UNL     1      -8.078  -0.467   1.371  1.00  0.00     0.151 A 
HETATM   22  N   UNL     1      -9.189  -0.828   2.012  1.00  0.00    -0.158 NA
HETATM   23  N   UNL     1      -9.199   0.022   3.052  1.00  0.00    -0.270 N 
HETATM   24  H   UNL     1      -9.952  -0.022   3.732  1.00  0.00     0.190 HD
HETATM   25  C   UNL     1      -8.120   0.850   3.008  1.00  0.00     0.227 A 
HETATM   26  N   UNL     1      -7.388   0.565   1.953  1.00  0.00    -0.225 NA
ENDBRANCH   5  21
TORSDOF 3
