REMARK  3 active torsions:
REMARK  status: ('A' for Active; 'I' for Inactive)
REMARK    1  A    between atoms: C_5  and  N_6 
REMARK       I    between atoms: N_6  and  C_7 
REMARK    2  A    between atoms: C_7  and  C_8 
REMARK    3  A    between atoms: C_9  and  C_10 
ROOT
HETATM    1  C   UNL     1       6.975  -2.130  -0.166  1.00  0.00     0.062 C 
HETATM    2  C   UNL     1       7.442  -3.403  -0.888  1.00  0.00     0.199 C 
HETATM    3  N   UNL     1       6.616  -4.541  -0.498  1.00  0.00    -0.092 N 
HETATM    4  C   UNL     1       5.787  -4.556   0.588  1.00  0.00     0.735 A 
HETATM    5  N   UNL     1       5.673  -3.440   1.337  1.00  0.00    -0.191 N 
HETATM    6  N   UNL     1       6.538  -5.703  -1.162  1.00  0.00     0.012 NA
HETATM    7  N   UNL     1       5.699  -6.440  -0.440  1.00  0.00     0.033 NA
HETATM    8  N   UNL     1       5.224  -5.737   0.654  1.00  0.00     0.030 NA
HETATM    9  C   UNL     1       6.188  -2.207   0.940  1.00  0.00     0.037 C 
HETATM   10  C   UNL     1       5.831  -1.044   1.832  1.00  0.00     0.070 C 
HETATM   11  H   UNL     1       5.029  -3.450   2.126  1.00  0.00     0.184 HD
ENDROOT
BRANCH   1  12
HETATM   12  C   UNL     1       7.464  -0.870  -0.807  1.00  0.00     0.256 C 
HETATM   13  N   UNL     1       6.513   0.124  -0.903  1.00  0.00    -0.323 N 
HETATM   14  H   UNL     1       5.596  -0.060  -0.519  1.00  0.00     0.169 HD
HETATM   15  O   UNL     1       8.596  -0.836  -1.269  1.00  0.00    -0.267 OA
BRANCH  13  16
HETATM   16  C   UNL     1       6.683   1.412  -1.460  1.00  0.00     0.035 A 
HETATM   17  C   UNL     1       7.821   1.818  -2.157  1.00  0.00     0.030 A 
HETATM   18  C   UNL     1       7.916   3.116  -2.670  1.00  0.00     0.009 A 
HETATM   19  C   UNL     1       6.877   4.033  -2.492  1.00  0.00    -0.062 A 
HETATM   20  C   UNL     1       7.014   5.435  -3.006  1.00  0.00     0.048 C 
HETATM   21  C   UNL     1       5.740   3.632  -1.785  1.00  0.00     0.009 A 
HETATM   22  C   UNL     1       5.639   2.329  -1.286  1.00  0.00     0.030 A 
ENDBRANCH  13  16
ENDBRANCH   1  12
BRANCH   2  23
HETATM   23  C   UNL     1       8.905  -3.732  -0.630  1.00  0.00    -0.011 A 
HETATM   24  C   UNL     1       9.394  -3.978   0.654  1.00  0.00     0.125 A 
HETATM   25  N   UNL     1      10.688  -4.243   0.941  1.00  0.00    -0.272 NA
HETATM   26  C   UNL     1      11.548  -4.265  -0.099  1.00  0.00     0.116 A 
HETATM   27  C   UNL     1      11.172  -4.041  -1.412  1.00  0.00     0.020 A 
HETATM   28  C   UNL     1       9.832  -3.773  -1.679  1.00  0.00     0.012 A 
ENDBRANCH   2  23
TORSDOF 3
