REMARK  8 active torsions:
REMARK  status: ('A' for Active; 'I' for Inactive)
REMARK    1  A    between atoms: C_2  and  C_3 
REMARK    2  A    between atoms: C_4  and  O_5 
REMARK    3  A    between atoms: O_5  and  C_6 
REMARK    4  A    between atoms: C_6  and  C_7 
REMARK    5  A    between atoms: C_15  and  O_16 
REMARK    6  A    between atoms: C_17  and  C_18 
REMARK    7  A    between atoms: C_22  and  N_23 
REMARK    8  A    between atoms: C_24  and  C_25 
ROOT
HETATM    1  C   UNL     1       2.822   0.436  -1.451  1.00  0.00    -0.024 A 
HETATM    2  C   UNL     1       3.163   1.697  -1.960  1.00  0.00     0.078 A 
HETATM    3  C   UNL     1       3.676   1.833  -3.253  1.00  0.00     0.074 A 
HETATM    4  C   UNL     1       3.787   0.710  -4.077  1.00  0.00     0.081 A 
HETATM    5  C   UNL     1       3.393  -0.553  -3.617  1.00  0.00     0.029 A 
HETATM    6  C   UNL     1       2.926  -0.680  -2.299  1.00  0.00     0.026 A 
ENDROOT
BRANCH   5   7
HETATM    7  C   UNL     1       3.410  -1.727  -4.486  1.00  0.00     0.107 A 
HETATM    8  N   UNL     1       2.542  -1.804  -5.512  1.00  0.00    -0.172 NA
HETATM    9  N   UNL     1       2.819  -2.979  -6.087  1.00  0.00    -0.262 N 
HETATM   10  H   UNL     1       2.288  -3.246  -6.905  1.00  0.00     0.191 HD
HETATM   11  C   UNL     1       3.797  -3.700  -5.460  1.00  0.00     0.131 A 
HETATM   12  C   UNL     1       4.200  -2.917  -4.393  1.00  0.00     0.076 A 
BRANCH  11  13
HETATM   13  N   UNL     1       4.158  -4.917  -5.923  1.00  0.00    -0.384 N 
HETATM   14  H   UNL     1       3.890  -5.264  -6.840  1.00  0.00     0.157 HD
HETATM   15  H   UNL     1       4.973  -5.390  -5.536  1.00  0.00     0.157 HD
ENDBRANCH  11  13
BRANCH  12  16
HETATM   16  C   UNL     1       5.241  -3.253  -3.366  1.00  0.00     0.114 A 
HETATM   17  S   UNL     1       6.134  -4.729  -3.346  1.00  0.00    -0.079 SA
HETATM   18  C   UNL     1       6.947  -4.225  -1.929  1.00  0.00     0.078 A 
HETATM   19  C   UNL     1       6.508  -2.972  -1.554  1.00  0.00     0.038 A 
HETATM   20  C   UNL     1       6.962  -2.182  -0.382  1.00  0.00     0.071 C 
HETATM   21  N   UNL     1       5.537  -2.431  -2.378  1.00  0.00    -0.245 NA
ENDBRANCH  12  16
ENDBRANCH   5   7
BRANCH   4  22
HETATM   22  O   UNL     1       4.304   0.853  -5.338  1.00  0.00    -0.360 OA
HETATM   23  H   UNL     1       4.441   1.795  -5.521  1.00  0.00     0.217 HD
ENDBRANCH   4  22
BRANCH   1  24
HETATM   24  C   UNL     1       2.356   0.247  -0.029  1.00  0.00     0.037 C 
HETATM   25  C   UNL     1       3.499   0.350   0.971  1.00  0.00     0.010 C 
ENDBRANCH   1  24
BRANCH   2  26
HETATM   26  O   UNL     1       3.041   2.794  -1.143  1.00  0.00    -0.346 OA
BRANCH  26  27
HETATM   27  C   UNL     1       2.067   3.716  -1.653  1.00  0.00     0.214 C 
BRANCH  27  28
HETATM   28  C   UNL     1       1.664   4.702  -0.578  1.00  0.00    -0.034 A 
HETATM   29  C   UNL     1       1.414   4.277   0.736  1.00  0.00     0.016 A 
HETATM   30  C   UNL     1       0.989   5.179   1.721  1.00  0.00    -0.061 A 
HETATM   31  C   UNL     1       0.705   4.713   3.118  1.00  0.00     0.048 C 
HETATM   32  C   UNL     1       0.793   6.521   1.376  1.00  0.00     0.007 A 
HETATM   33  C   UNL     1       1.029   6.955   0.072  1.00  0.00     0.001 A 
HETATM   34  C   UNL     1       1.457   6.050  -0.900  1.00  0.00     0.009 A 
ENDBRANCH  27  28
ENDBRANCH  26  27
ENDBRANCH   2  26
TORSDOF 8
