REMARK  7 active torsions:
REMARK  status: ('A' for Active; 'I' for Inactive)
REMARK    1  A    between atoms: C_1  and  C_2 
REMARK    2  A    between atoms: C_1  and  O_9 
REMARK    3  A    between atoms: C_2  and  N_3 
REMARK    4  A    between atoms: O_9  and  C_10 
REMARK    5  A    between atoms: C_15  and  C_31 
REMARK    6  A    between atoms: C_17  and  N_18 
REMARK    7  A    between atoms: N_18  and  C_19 
ROOT
HETATM    1  C   UNL     1       2.883   1.433   0.057  1.00  0.00     0.069 A 
HETATM    2  C   UNL     1       2.247   2.653  -0.133  1.00  0.00     0.039 A 
HETATM    3  C   UNL     1       2.997   3.835  -0.153  1.00  0.00     0.035 A 
HETATM    4  C   UNL     1       4.375   3.838   0.015  1.00  0.00     0.073 A 
HETATM    5  N   UNL     1       5.015   5.008  -0.023  1.00  0.00    -0.228 NA
HETATM    6  C   UNL     1       6.346   4.993   0.150  1.00  0.00     0.162 A 
HETATM    7  N   UNL     1       7.065   3.882   0.363  1.00  0.00    -0.210 NA
HETATM    8  C   UNL     1       6.417   2.705   0.393  1.00  0.00     0.143 A 
HETATM    9  C   UNL     1       5.026   2.617   0.215  1.00  0.00     0.041 A 
HETATM   10  C   UNL     1       4.266   1.419   0.240  1.00  0.00     0.054 A 
ENDROOT
BRANCH   8  11
HETATM   11  N   UNL     1       7.171   1.516   0.591  1.00  0.00    -0.340 N 
HETATM   12  H   UNL     1       7.017   0.893  -0.194  1.00  0.00     0.167 HD
BRANCH  11  13
HETATM   13  C   UNL     1       8.489   1.423   1.099  1.00  0.00     0.034 A 
HETATM   14  C   UNL     1       9.318   0.371   0.676  1.00  0.00     0.032 A 
HETATM   15  C   UNL     1      10.616   0.195   1.177  1.00  0.00     0.034 A 
HETATM   16  C   UNL     1      11.048   1.101   2.148  1.00  0.00     0.062 A 
HETATM   17  N   UNL     1      12.228   1.214   2.836  1.00  0.00    -0.278 N 
HETATM   18  C   UNL     1      10.251   2.135   2.619  1.00  0.00     0.013 A 
HETATM   19  H   UNL     1      13.050   0.628   2.753  1.00  0.00     0.189 HD
HETATM   20  N   UNL     1      12.256   2.228   3.719  1.00  0.00    -0.186 NA
HETATM   21  C   UNL     1      11.049   2.786   3.585  1.00  0.00     0.152 A 
HETATM   22  C   UNL     1       8.954   2.294   2.100  1.00  0.00     0.044 A 
ENDBRANCH  11  13
ENDBRANCH   8  11
BRANCH   6  23
HETATM   23  C   UNL     1       7.072   6.277   0.079  1.00  0.00     0.012 A 
HETATM   24  C   UNL     1       6.391   7.502  -0.067  1.00  0.00     0.015 A 
HETATM   25  C   UNL     1       7.080   8.717  -0.143  1.00  0.00     0.001 A 
HETATM   26  C   UNL     1       8.469   8.737  -0.077  1.00  0.00     0.000 A 
HETATM   27  C   UNL     1       9.170   7.544   0.067  1.00  0.00     0.001 A 
HETATM   28  C   UNL     1       8.479   6.331   0.145  1.00  0.00     0.015 A 
ENDBRANCH   6  23
BRANCH   1  29
HETATM   29  O   UNL     1       2.283   0.206   0.083  1.00  0.00    -0.349 OA
BRANCH  29  30
HETATM   30  C   UNL     1       0.866   0.176  -0.128  1.00  0.00     0.206 C 
BRANCH  30  31
HETATM   31  C   UNL     1       0.414  -1.294  -0.171  1.00  0.00     0.299 C 
BRANCH  31  32
HETATM   32  N   UNL     1      -1.048  -1.471  -0.246  1.00  0.00     0.094 N 
HETATM   33  C   UNL     1      -1.642  -0.996  -1.515  1.00  0.00     0.298 C 
HETATM   34  C   UNL     1      -1.340  -1.896  -2.726  1.00  0.00     0.198 C 
HETATM   35  O   UNL     1      -1.757  -3.245  -2.487  1.00  0.00    -0.388 OA
HETATM   36  C   UNL     1      -1.130  -3.771  -1.310  1.00  0.00     0.198 C 
HETATM   37  C   UNL     1      -1.421  -2.896  -0.077  1.00  0.00     0.298 C 
ENDBRANCH  31  32
ENDBRANCH  30  31
ENDBRANCH  29  30
ENDBRANCH   1  29
TORSDOF 7
