REMARK  6 active torsions:
REMARK  status: ('A' for Active; 'I' for Inactive)
REMARK    1  A    between atoms: N_1  and  C_2 
REMARK    2  A    between atoms: C_2  and  C_3 
REMARK    3  A    between atoms: C_2  and  C_11 
REMARK    4  A    between atoms: C_3  and  C_4 
REMARK       I    between atoms: C_11  and  N_13 
REMARK    5  A    between atoms: N_13  and  C_14 
REMARK    6  A    between atoms: C_17  and  C_20 
ROOT
HETATM    1  C   UNL     1       2.955  -1.557   0.026  1.00  0.00     0.255 C 
HETATM    2  O   UNL     1       2.395  -2.310   0.818  1.00  0.00    -0.271 OA
HETATM    3  N   UNL     1       3.928  -1.908  -0.892  1.00  0.00    -0.325 N 
HETATM    4  H   UNL     1       4.247  -1.120  -1.455  1.00  0.00     0.169 HD
ENDROOT
BRANCH   1   5
HETATM    5  C   UNL     1       2.635  -0.042  -0.015  1.00  0.00     0.313 C 
BRANCH   5   6
HETATM    6  N   UNL     1       3.126   0.553  -1.294  1.00  0.00     0.092 N 
HETATM    7  H   UNL     1       3.030   1.569  -1.212  1.00  0.00     0.313 HD
HETATM    8  H   UNL     1       2.471   0.294  -2.036  1.00  0.00     0.313 HD
ENDBRANCH   5   6
BRANCH   5   9
HETATM    9  C   UNL     1       1.121   0.155   0.192  1.00  0.00     0.083 C 
BRANCH   9  10
HETATM   10  C   UNL     1       0.695   1.602   0.295  1.00  0.00    -0.056 A 
HETATM   11  C   UNL     1       0.129   2.260  -0.806  1.00  0.00     0.009 A 
HETATM   12  C   UNL     1      -0.275   3.593  -0.700  1.00  0.00     0.024 A 
HETATM   13  C   UNL     1      -0.116   4.272   0.506  1.00  0.00     0.034 A 
HETATM   14 CL   UNL     1      -0.625   5.910   0.638  1.00  0.00    -0.084 Cl
HETATM   15  C   UNL     1       0.447   3.630   1.607  1.00  0.00     0.024 A 
HETATM   16  C   UNL     1       0.855   2.299   1.501  1.00  0.00     0.009 A 
ENDBRANCH   9  10
ENDBRANCH   5   9
ENDBRANCH   1   5
BRANCH   3  17
HETATM   17  C   UNL     1       4.407  -3.190  -1.205  1.00  0.00     0.034 A 
HETATM   18  C   UNL     1       5.285  -3.305  -2.287  1.00  0.00     0.030 A 
HETATM   19  C   UNL     1       5.760  -4.559  -2.695  1.00  0.00     0.014 A 
HETATM   20  C   UNL     1       5.371  -5.724  -2.023  1.00  0.00    -0.023 A 
HETATM   21  C   UNL     1       4.517  -5.598  -0.920  1.00  0.00     0.014 A 
HETATM   22  C   UNL     1       4.039  -4.345  -0.517  1.00  0.00     0.030 A 
BRANCH  20  23
HETATM   23  C   UNL     1       5.842  -7.026  -2.470  1.00  0.00     0.010 A 
HETATM   24  C   UNL     1       6.960  -7.388  -3.260  1.00  0.00     0.152 A 
HETATM   25  N   UNL     1       7.039  -8.704  -3.479  1.00  0.00    -0.187 NA
HETATM   26  N   UNL     1       5.970  -9.193  -2.833  1.00  0.00    -0.289 N 
HETATM   27  H   UNL     1       5.808 -10.194  -2.858  1.00  0.00     0.188 HD
HETATM   28  C   UNL     1       5.220  -8.232  -2.218  1.00  0.00     0.123 A 
ENDBRANCH  20  23
ENDBRANCH   3  17
TORSDOF 6
