REMARK  4 active torsions:
REMARK  status: ('A' for Active; 'I' for Inactive)
REMARK    1  A    between atoms: N_4  and  C_5 
REMARK    2  A    between atoms: C_16  and  C_17 
REMARK    3  A    between atoms: C_24  and  C_25 
REMARK    4  A    between atoms: C_25  and  O_26 
ROOT
HETATM    1  C   UNL     1       0.682  -8.793   3.100  1.00  0.00     0.073 C 
HETATM    2  C   UNL     1       0.573  -7.320   3.249  1.00  0.00     0.065 A 
HETATM    3  N   UNL     1      -0.315  -6.794   4.093  1.00  0.00    -0.170 NA
HETATM    4  N   UNL     1      -0.140  -5.438   4.006  1.00  0.00    -0.215 N 
HETATM    5  C   UNL     1       0.838  -5.119   3.062  1.00  0.00     0.165 A 
HETATM    6  C   UNL     1       1.327  -6.328   2.587  1.00  0.00     0.039 A 
HETATM    7  N   UNL     1       1.273  -3.897   2.677  1.00  0.00    -0.216 NA
HETATM    8  C   UNL     1       2.284  -3.920   1.778  1.00  0.00     0.137 A 
HETATM    9 CL   UNL     1       2.780  -2.319   1.370  1.00  0.00    -0.062 Cl
HETATM   10  C   UNL     1       2.889  -5.056   1.241  1.00  0.00     0.011 A 
HETATM   11  C   UNL     1       2.374  -6.301   1.653  1.00  0.00     0.030 A 
ENDROOT
BRANCH  10  12
HETATM   12  C   UNL     1       4.079  -5.001   0.298  1.00  0.00     0.164 C 
HETATM   13  N   UNL     1       5.233  -5.597   0.957  1.00  0.00    -0.330 N 
HETATM   14  C   UNL     1       5.727  -6.829   0.683  1.00  0.00     0.321 C 
HETATM   15  H   UNL     1       5.580  -5.186   1.814  1.00  0.00     0.165 HD
HETATM   16  O   UNL     1       6.558  -7.364   1.407  1.00  0.00    -0.247 OA
HETATM   17  N   UNL     1       5.267  -7.422  -0.454  1.00  0.00    -0.312 N 
HETATM   18  C   UNL     1       4.386  -6.855  -1.347  1.00  0.00     0.024 C 
HETATM   19  H   UNL     1       5.699  -8.316  -0.661  1.00  0.00     0.170 HD
HETATM   20  C   UNL     1       4.160  -7.618  -2.622  1.00  0.00     0.069 C 
HETATM   21  C   UNL     1       3.821  -5.674  -1.026  1.00  0.00     0.067 C 
BRANCH  21  22
HETATM   22  C   UNL     1       2.886  -5.005  -1.961  1.00  0.00     0.293 C 
HETATM   23  O   UNL     1       2.093  -5.586  -2.684  1.00  0.00    -0.259 OA
BRANCH  22  24
HETATM   24  O   UNL     1       3.071  -3.664  -1.902  1.00  0.00    -0.323 OA
HETATM   25  C   UNL     1       2.262  -2.920  -2.816  1.00  0.00     0.213 C 
ENDBRANCH  22  24
ENDBRANCH  21  22
ENDBRANCH  10  12
BRANCH   4  26
HETATM   26  C   UNL     1      -0.904  -4.577   4.853  1.00  0.00     0.060 A 
HETATM   27  C   UNL     1      -1.797  -5.146   5.779  1.00  0.00     0.031 A 
HETATM   28  C   UNL     1      -2.540  -4.337   6.642  1.00  0.00     0.002 A 
HETATM   29  C   UNL     1      -2.405  -2.953   6.587  1.00  0.00     0.000 A 
HETATM   30  C   UNL     1      -1.528  -2.378   5.670  1.00  0.00     0.002 A 
HETATM   31  C   UNL     1      -0.778  -3.183   4.805  1.00  0.00     0.031 A 
ENDBRANCH   4  26
TORSDOF 4
