REMARK  7 active torsions:
REMARK  status: ('A' for Active; 'I' for Inactive)
REMARK    1  A    between atoms: C_2  and  N_3 
REMARK       I    between atoms: N_3  and  C_4 
REMARK    2  A    between atoms: N_3  and  C_21 
REMARK    3  A    between atoms: C_4  and  C_5 
REMARK    4  A    between atoms: C_14  and  O_15 
REMARK    5  A    between atoms: C_21  and  C_22 
REMARK       I    between atoms: C_22  and  N_23 
REMARK    6  A    between atoms: N_23  and  C_24 
REMARK    7  A    between atoms: C_27  and  N_28 
REMARK       I    between atoms: N_28  and  C_29 
ROOT
HETATM    1  N   UNL     1       3.539  -1.430  -0.382  1.00  0.00    -0.339 N 
HETATM    2  C   UNL     1       3.097  -2.766  -0.284  1.00  0.00     0.261 C 
HETATM    3  O   UNL     1       2.413  -3.071   0.699  1.00  0.00    -0.267 OA
ENDROOT
BRANCH   1   4
HETATM    4  C   UNL     1       2.961  -0.462   0.561  1.00  0.00     0.122 C 
HETATM    5  C   UNL     1       1.494  -0.166   0.274  1.00  0.00     0.026 C 
ENDBRANCH   1   4
BRANCH   1   6
HETATM    6  C   UNL     1       4.778  -1.009  -1.049  1.00  0.00     0.229 C 
BRANCH   6   7
HETATM    7  C   UNL     1       4.577  -0.324  -2.411  1.00  0.00     0.240 C 
HETATM    8  N   UNL     1       3.312  -0.510  -2.936  1.00  0.00    -0.326 N 
HETATM    9  H   UNL     1       2.663  -1.004  -2.334  1.00  0.00     0.169 HD
HETATM   10  O   UNL     1       5.523   0.225  -2.967  1.00  0.00    -0.271 OA
BRANCH   8  11
HETATM   11  C   UNL     1       2.850  -0.184  -4.224  1.00  0.00     0.034 A 
HETATM   12  C   UNL     1       3.597   0.514  -5.170  1.00  0.00     0.032 A 
HETATM   13  C   UNL     1       3.075   0.771  -6.446  1.00  0.00     0.032 A 
HETATM   14  C   UNL     1       1.799   0.332  -6.797  1.00  0.00     0.034 A 
HETATM   15  C   UNL     1       1.046  -0.362  -5.843  1.00  0.00     0.032 A 
HETATM   16  C   UNL     1       1.565  -0.614  -4.568  1.00  0.00     0.032 A 
BRANCH  14  17
HETATM   17  N   UNL     1       1.209   0.535  -8.061  1.00  0.00    -0.328 N 
HETATM   18  C   UNL     1       1.760   1.182  -9.152  1.00  0.00     0.218 C 
HETATM   19  C   UNL     1       0.843   1.202 -10.352  1.00  0.00     0.117 C 
HETATM   20  O   UNL     1       2.869   1.701  -9.218  1.00  0.00    -0.274 OA
HETATM   21  H   UNL     1       0.278   0.155  -8.177  1.00  0.00     0.169 HD
ENDBRANCH  14  17
ENDBRANCH   8  11
ENDBRANCH   6   7
ENDBRANCH   1   6
BRANCH   2  22
HETATM   22  C   UNL     1       3.327  -3.726  -1.376  1.00  0.00     0.074 A 
HETATM   23  S   UNL     1       2.421  -5.204  -1.286  1.00  0.00    -0.084 SA
HETATM   24  C   UNL     1       2.930  -5.730  -2.812  1.00  0.00     0.023 A 
HETATM   25  C   UNL     1       3.844  -4.864  -3.372  1.00  0.00    -0.038 A 
HETATM   26  C   UNL     1       2.473  -6.958  -3.472  1.00  0.00    -0.012 A 
HETATM   27  C   UNL     1       4.423  -5.132  -4.729  1.00  0.00     0.044 C 
HETATM   28  C   UNL     1       4.075  -3.720  -2.543  1.00  0.00     0.033 A 
HETATM   29  C   UNL     1       4.433  -6.637  -5.061  1.00  0.00     0.044 C 
HETATM   30  C   UNL     1       3.182  -7.379  -4.620  1.00  0.00    -0.044 A 
HETATM   31  C   UNL     1       2.780  -8.540  -5.297  1.00  0.00     0.044 A 
HETATM   32  C   UNL     1       1.675  -9.277  -4.861  1.00  0.00     0.068 A 
HETATM   33  C   UNL     1       0.965  -8.848  -3.741  1.00  0.00     0.037 A 
HETATM   34  C   UNL     1       1.362  -7.698  -3.050  1.00  0.00     0.016 A 
BRANCH  32  35
HETATM   35  O   UNL     1       1.393 -10.386  -5.611  1.00  0.00    -0.356 OA
HETATM   36  C   UNL     1       0.377 -11.250  -5.116  1.00  0.00     0.210 C 
ENDBRANCH  32  35
ENDBRANCH   2  22
TORSDOF 7
