REMARK  9 active torsions:
REMARK  status: ('A' for Active; 'I' for Inactive)
REMARK       I    between atoms: C_2  and  N_3 
REMARK    1  A    between atoms: N_3  and  C_4 
REMARK    2  A    between atoms: C_7  and  O_8 
REMARK    3  A    between atoms: O_8  and  C_9 
REMARK    4  A    between atoms: C_9  and  C_10 
REMARK    5  A    between atoms: C_11  and  O_12 
REMARK    6  A    between atoms: C_16  and  C_17 
REMARK    7  A    between atoms: C_31  and  O_32 
REMARK    8  A    between atoms: O_32  and  C_33 
REMARK    9  A    between atoms: C_33  and  C_34 
ROOT
HETATM    1  C   UNL     1      -0.139   3.533 -11.260  1.00  0.00     0.269 C 
HETATM    2  N   UNL     1       1.200   3.941 -11.830  1.00  0.00    -0.061 N 
HETATM    3  H   UNL     1       1.016   4.524 -12.652  1.00  0.00     0.278 HD
HETATM    4  H   UNL     1       1.685   3.097 -12.152  1.00  0.00     0.278 HD
HETATM    5  C   UNL     1       2.088   4.711 -10.880  1.00  0.00     0.238 C 
HETATM    6  C   UNL     1       1.430   6.035 -10.452  1.00  0.00     0.069 C 
HETATM    7  C   UNL     1      -0.006   5.823 -10.115  1.00  0.00    -0.019 A 
HETATM    8  C   UNL     1      -0.696   4.690 -10.506  1.00  0.00     0.052 A 
HETATM    9  N   UNL     1      -1.988   4.804 -10.062  1.00  0.00    -0.356 N 
HETATM   10  H   UNL     1      -2.731   4.124 -10.175  1.00  0.00     0.166 HD
HETATM   11  C   UNL     1      -2.139   5.993  -9.382  1.00  0.00     0.043 A 
HETATM   12  C   UNL     1      -0.904   6.646  -9.385  1.00  0.00     0.002 A 
HETATM   13  C   UNL     1      -3.272   6.531  -8.766  1.00  0.00     0.033 A 
HETATM   14  C   UNL     1      -3.127   7.757  -8.110  1.00  0.00     0.039 A 
HETATM   15  C   UNL     1      -1.899   8.416  -8.060  1.00  0.00     0.070 A 
HETATM   16  C   UNL     1      -0.786   7.885  -8.722  1.00  0.00     0.051 A 
ENDROOT
BRANCH   1  17
HETATM   17  C   UNL     1      -0.021   2.239 -10.475  1.00  0.00    -0.021 A 
HETATM   18  C   UNL     1      -0.124   1.013 -11.151  1.00  0.00     0.012 A 
HETATM   19  C   UNL     1       0.061  -0.199 -10.475  1.00  0.00     0.038 A 
HETATM   20  C   UNL     1       0.354  -0.216  -9.110  1.00  0.00     0.076 A 
HETATM   21  C   UNL     1       0.440   0.997  -8.405  1.00  0.00    -0.000 A 
HETATM   22  C   UNL     1       0.266   2.211  -9.100  1.00  0.00     0.021 A 
BRANCH  20  23
HETATM   23  O   UNL     1       0.595  -1.350  -8.383  1.00  0.00    -0.355 OA
HETATM   24  C   UNL     1       0.363  -2.606  -9.009  1.00  0.00     0.210 C 
ENDBRANCH  20  23
BRANCH  21  25
HETATM   25  C   UNL     1       0.792   1.018  -6.927  1.00  0.00     0.217 C 
BRANCH  25  26
HETATM   26  O   UNL     1       0.017   2.023  -6.261  1.00  0.00    -0.347 OA
BRANCH  26  27
HETATM   27  C   UNL     1       0.120   2.040  -4.896  1.00  0.00     0.069 A 
HETATM   28  C   UNL     1      -0.914   2.693  -4.225  1.00  0.00     0.039 A 
HETATM   29  C   UNL     1      -0.919   2.770  -2.827  1.00  0.00     0.032 A 
HETATM   30  C   UNL     1       0.120   2.207  -2.078  1.00  0.00     0.034 A 
HETATM   31  C   UNL     1       1.161   1.570  -2.755  1.00  0.00     0.032 A 
HETATM   32  C   UNL     1       1.162   1.487  -4.154  1.00  0.00     0.039 A 
BRANCH  30  33
HETATM   33  N   UNL     1       0.047   2.320  -0.675  1.00  0.00    -0.328 N 
HETATM   34  C   UNL     1       0.958   1.849   0.255  1.00  0.00     0.218 C 
HETATM   35  C   UNL     1       0.527   2.144   1.670  1.00  0.00     0.117 C 
HETATM   36  O   UNL     1       2.000   1.246   0.026  1.00  0.00    -0.274 OA
HETATM   37  H   UNL     1      -0.768   2.795  -0.307  1.00  0.00     0.169 HD
ENDBRANCH  30  33
ENDBRANCH  26  27
ENDBRANCH  25  26
ENDBRANCH  21  25
ENDBRANCH   1  17
BRANCH  15  38
HETATM   38  O   UNL     1      -1.901   9.586  -7.350  1.00  0.00    -0.347 OA
BRANCH  38  39
HETATM   39  C   UNL     1      -0.648   9.977  -6.781  1.00  0.00     0.214 C 
BRANCH  39  40
HETATM   40  C   UNL     1      -0.892  10.868  -5.587  1.00  0.00    -0.034 A 
HETATM   41  C   UNL     1      -1.822  10.501  -4.602  1.00  0.00     0.009 A 
HETATM   42  C   UNL     1      -2.010  11.296  -3.470  1.00  0.00     0.001 A 
HETATM   43  C   UNL     1      -1.264  12.461  -3.306  1.00  0.00     0.000 A 
HETATM   44  C   UNL     1      -0.330  12.831  -4.271  1.00  0.00     0.001 A 
HETATM   45  C   UNL     1      -0.141  12.038  -5.405  1.00  0.00     0.009 A 
ENDBRANCH  39  40
ENDBRANCH  38  39
ENDBRANCH  15  38
TORSDOF 9
