REMARK  7 active torsions:
REMARK  status: ('A' for Active; 'I' for Inactive)
REMARK    1  A    between atoms: C_2  and  N_3 
REMARK    2  A    between atoms: C_2  and  C_12 
REMARK       I    between atoms: N_3  and  C_4 
REMARK    3  A    between atoms: C_4  and  C_5 
REMARK    4  A    between atoms: N_17  and  C_19 
REMARK    5  A    between atoms: C_19  and  C_20 
REMARK    6  A    between atoms: C_22  and  C_23 
REMARK    7  A    between atoms: C_23  and  N_24 
ROOT
HETATM    1  C   UNL     1       3.052   1.178  -0.498  1.00  0.00     0.152 A 
HETATM    2  N   UNL     1       3.177   2.423   0.085  1.00  0.00    -0.317 N 
HETATM    3  C   UNL     1       3.462   3.290  -0.942  1.00  0.00     0.131 A 
HETATM    4  C   UNL     1       3.589   4.764  -0.840  1.00  0.00     0.108 C 
HETATM    5  C   UNL     1       2.380   5.356  -0.131  1.00  0.00     0.243 C 
HETATM    6  N   UNL     1       2.477   5.271   1.391  1.00  0.00    -0.065 N 
HETATM    7  H   UNL     1       2.970   6.126   1.681  1.00  0.00     0.280 HD
HETATM    8  C   UNL     1       3.329   4.134   1.954  1.00  0.00     0.255 C 
HETATM    9  C   UNL     1       2.924   2.741   1.472  1.00  0.00     0.159 C 
HETATM   10  N   UNL     1       3.509   2.618  -2.067  1.00  0.00    -0.135 NA
HETATM   11  N   UNL     1       3.247   1.308  -1.795  1.00  0.00    -0.133 NA
ENDROOT
BRANCH   6  12
HETATM   12  C   UNL     1       1.102   5.367   2.053  1.00  0.00     0.280 C 
BRANCH  12  13
HETATM   13  C   UNL     1       0.385   6.653   1.735  1.00  0.00     0.009 A 
HETATM   14  S   UNL     1      -1.042   6.639   0.779  1.00  0.00    -0.096 SA
HETATM   15  C   UNL     1      -1.190   8.346   0.822  1.00  0.00     0.009 A 
HETATM   16  C   UNL     1      -0.186   8.912   1.584  1.00  0.00     0.017 A 
HETATM   17  C   UNL     1       0.710   7.939   2.121  1.00  0.00     0.017 A 
BRANCH  15  18
HETATM   18  C   UNL     1      -2.291   9.040   0.069  1.00  0.00     0.280 C 
BRANCH  18  19
HETATM   19  N   UNL     1      -3.653   8.944   0.726  1.00  0.00    -0.067 N 
HETATM   20  H   UNL     1      -3.826   7.944   0.891  1.00  0.00     0.280 HD
HETATM   21  C   UNL     1      -3.713   9.650   2.062  1.00  0.00     0.235 C 
HETATM   22  C   UNL     1      -5.083   9.446   2.693  1.00  0.00     0.028 C 
HETATM   23  C   UNL     1      -6.203   9.911   1.772  1.00  0.00     0.003 C 
HETATM   24  C   UNL     1      -6.103   9.234   0.412  1.00  0.00     0.028 C 
HETATM   25  C   UNL     1      -4.733   9.436  -0.218  1.00  0.00     0.235 C 
ENDBRANCH  18  19
ENDBRANCH  15  18
ENDBRANCH  12  13
ENDBRANCH   6  12
BRANCH   1  26
HETATM   26  C   UNL     1       2.670  -0.098   0.198  1.00  0.00     0.152 C 
HETATM   27  C   UNL     1       3.574  -1.250  -0.228  1.00  0.00     0.040 C 
BRANCH  26  28
HETATM   28  N   UNL     1       1.285  -0.377  -0.151  1.00  0.00    -0.349 N 
HETATM   29  C   UNL     1       0.237   0.201   0.520  1.00  0.00     0.222 C 
HETATM   30  O   UNL     1       0.400   0.860   1.545  1.00  0.00    -0.273 OA
HETATM   31  H   UNL     1       1.125  -0.772  -1.072  1.00  0.00     0.163 HD
BRANCH  29  32
HETATM   32  C   UNL     1      -1.129   0.010  -0.140  1.00  0.00     0.082 C 
HETATM   33  C   UNL     1      -2.262   0.514   0.760  1.00  0.00     0.040 C 
HETATM   34  C   UNL     1      -2.309   2.038   0.829  1.00  0.00     0.168 C 
HETATM   35  O   UNL     1      -2.331   2.639  -0.466  1.00  0.00    -0.391 OA
HETATM   36  C   UNL     1      -1.231   2.249  -1.286  1.00  0.00     0.168 C 
HETATM   37  C   UNL     1      -1.192   0.739  -1.486  1.00  0.00     0.040 C 
ENDBRANCH  29  32
ENDBRANCH  26  28
ENDBRANCH   1  26
TORSDOF 7
