REMARK  4 active torsions:
REMARK  status: ('A' for Active; 'I' for Inactive)
REMARK    1  A    between atoms: C_5  and  C_6 
REMARK    2  A    between atoms: C_14  and  C_15 
REMARK       I    between atoms: C_15  and  N_16 
REMARK    3  A    between atoms: N_16  and  C_17 
REMARK    4  A    between atoms: C_23  and  N_24 
ROOT
HETATM    1  C   UNL     1       2.038  -2.850  -0.466  1.00  0.00     0.262 C 
HETATM    2  N   UNL     1       2.510  -3.531  -1.563  1.00  0.00    -0.301 N 
HETATM    3  O   UNL     1       1.118  -3.207   0.259  1.00  0.00    -0.267 OA
HETATM    4  H   UNL     1       3.151  -3.101  -2.208  1.00  0.00     0.171 HD
ENDROOT
BRANCH   1   5
HETATM    5  C   UNL     1       2.706  -1.578  -0.236  1.00  0.00     0.095 A 
HETATM    6  C   UNL     1       2.126  -0.486   0.378  1.00  0.00     0.093 A 
HETATM    7  C   UNL     1       0.790  -0.216   0.945  1.00  0.00     0.080 C 
HETATM    8  O   UNL     1       3.021   0.532   0.439  1.00  0.00    -0.217 OA
HETATM    9  N   UNL     1       4.218   0.130  -0.115  1.00  0.00    -0.127 NA
HETATM   10  C   UNL     1       4.040  -1.141  -0.502  1.00  0.00     0.116 A 
BRANCH  10  11
HETATM   11  C   UNL     1       5.156  -1.883  -1.078  1.00  0.00     0.039 A 
HETATM   12  C   UNL     1       5.892  -2.794  -0.302  1.00  0.00     0.048 A 
HETATM   13 CL   UNL     1       5.523  -3.103   1.359  1.00  0.00    -0.083 Cl
HETATM   14  C   UNL     1       6.956  -3.510  -0.864  1.00  0.00     0.025 A 
HETATM   15  C   UNL     1       7.300  -3.325  -2.201  1.00  0.00     0.003 A 
HETATM   16  C   UNL     1       6.576  -2.428  -2.983  1.00  0.00     0.025 A 
HETATM   17  C   UNL     1       5.510  -1.712  -2.428  1.00  0.00     0.048 A 
HETATM   18 CL   UNL     1       4.609  -0.687  -3.493  1.00  0.00    -0.083 Cl
ENDBRANCH  10  11
ENDBRANCH   1   5
BRANCH   2  19
HETATM   19  C   UNL     1       2.065  -4.776  -1.903  1.00  0.00     0.174 A 
HETATM   20  S   UNL     1       2.757  -5.378  -3.340  1.00  0.00    -0.050 SA
HETATM   21  C   UNL     1       1.832  -6.823  -3.167  1.00  0.00     0.039 A 
HETATM   22  C   UNL     1       1.067  -6.729  -2.000  1.00  0.00     0.077 A 
HETATM   23  C   UNL     1       1.789  -7.952  -4.004  1.00  0.00     0.057 A 
HETATM   24  N   UNL     1       1.221  -5.556  -1.287  1.00  0.00    -0.223 NA
HETATM   25  C   UNL     1       0.223  -7.804  -1.652  1.00  0.00     0.035 A 
HETATM   26  C   UNL     1       0.158  -8.938  -2.470  1.00  0.00     0.038 A 
HETATM   27  C   UNL     1       0.934  -9.004  -3.631  1.00  0.00     0.104 A 
BRANCH  27  28
HETATM   28  N   UNL     1       0.858 -10.198  -4.487  1.00  0.00    -0.116 N 
HETATM   29  O   UNL     1       1.542 -10.209  -5.520  1.00  0.00    -0.532 OA
HETATM   30  O   UNL     1       0.114 -11.120  -4.124  1.00  0.00    -0.532 OA
ENDBRANCH  27  28
ENDBRANCH   2  19
TORSDOF 4
