REMARK  9 active torsions:
REMARK  status: ('A' for Active; 'I' for Inactive)
REMARK    1  A    between atoms: C_6  and  C_7 
REMARK       I    between atoms: C_7  and  N_8 
REMARK    2  A    between atoms: N_8  and  C_9 
REMARK    3  A    between atoms: C_9  and  C_10 
REMARK    4  A    between atoms: N_15  and  C_17 
REMARK    5  A    between atoms: C_17  and  C_18 
REMARK    6  A    between atoms: C_21  and  C_22 
REMARK    7  A    between atoms: C_22  and  C_23 
REMARK    8  A    between atoms: C_23  and  C_24 
REMARK    9  A    between atoms: C_24  and  O_25 
ROOT
HETATM    1  C   UNL     1       8.515   0.808  -0.114  1.00  0.00     0.140 C 
HETATM    2  O   UNL     1       8.973  -0.463   0.391  1.00  0.00    -0.373 OA
HETATM    3  C   UNL     1       9.222  -0.365   1.807  1.00  0.00     0.064 C 
HETATM    4  C   UNL     1      10.701  -0.707   2.023  1.00  0.00     0.066 C 
HETATM    5  C   UNL     1      10.998  -2.138   1.591  1.00  0.00     0.238 C 
HETATM    6  N   UNL     1      10.107  -3.121   2.314  1.00  0.00    -0.067 N 
HETATM    7  H   UNL     1      10.266  -4.018   1.840  1.00  0.00     0.280 HD
HETATM    8  C   UNL     1       8.645  -2.803   2.089  1.00  0.00     0.238 C 
HETATM    9  C   UNL     1       8.337  -1.381   2.535  1.00  0.00     0.066 C 
HETATM   10  C   UNL     1       8.891   1.073   2.211  1.00  0.00     0.041 C 
HETATM   11  C   UNL     1       8.989   1.829   0.906  1.00  0.00     0.036 C 
ENDROOT
BRANCH   1  12
HETATM   12  C   UNL     1       6.983   0.792  -0.286  1.00  0.00     0.155 C 
BRANCH  12  13
HETATM   13  N   UNL     1       6.558  -0.151  -1.307  1.00  0.00    -0.353 N 
HETATM   14  C   UNL     1       6.256  -1.467  -1.031  1.00  0.00     0.270 C 
HETATM   15  O   UNL     1       6.274  -1.916   0.113  1.00  0.00    -0.266 OA
HETATM   16  H   UNL     1       6.504   0.173  -2.262  1.00  0.00     0.162 HD
BRANCH  14  17
HETATM   17  C   UNL     1       5.924  -2.270  -2.185  1.00  0.00     0.122 A 
HETATM   18  N   UNL     1       5.320  -3.505  -2.124  1.00  0.00    -0.269 N 
HETATM   19  N   UNL     1       5.161  -4.094  -3.323  1.00  0.00    -0.177 NA
HETATM   20  C   UNL     1       4.840  -4.195  -0.948  1.00  0.00     0.180 C 
HETATM   21  C   UNL     1       5.630  -3.200  -4.196  1.00  0.00     0.053 A 
HETATM   22  C   UNL     1       5.610  -3.480  -5.652  1.00  0.00     0.072 C 
HETATM   23  C   UNL     1       6.119  -2.049  -3.540  1.00  0.00     0.065 A 
ENDBRANCH  14  17
ENDBRANCH  12  13
ENDBRANCH   1  12
BRANCH   6  24
HETATM   24  C   UNL     1      10.449  -3.384   3.763  1.00  0.00     0.273 C 
BRANCH  24  25
HETATM   25  C   UNL     1      11.845  -3.910   3.960  1.00  0.00    -0.033 A 
HETATM   26  C   UNL     1      12.842  -3.086   4.507  1.00  0.00     0.010 A 
HETATM   27  C   UNL     1      14.153  -3.550   4.635  1.00  0.00     0.021 A 
HETATM   28  C   UNL     1      14.479  -4.841   4.223  1.00  0.00     0.017 A 
HETATM   29  C   UNL     1      13.492  -5.675   3.695  1.00  0.00     0.021 A 
HETATM   30  C   UNL     1      12.180  -5.214   3.565  1.00  0.00     0.010 A 
BRANCH  28  31
HETATM   31  C   UNL     1      15.824  -5.307   4.328  1.00  0.00    -0.064 C 
BRANCH  31  32
HETATM   32  C   UNL     1      17.049  -5.748   4.398  1.00  0.00    -0.064 C 
BRANCH  32  33
HETATM   33  C   UNL     1      18.477  -6.262   4.480  1.00  0.00     0.114 C 
HETATM   34  C   UNL     1      19.454  -5.093   4.560  1.00  0.00     0.060 C 
HETATM   35  C   UNL     1      18.629  -7.191   5.679  1.00  0.00     0.060 C 
BRANCH  33  36
HETATM   36  O   UNL     1      18.750  -7.013   3.301  1.00  0.00    -0.378 OA
HETATM   37  H   UNL     1      18.607  -6.422   2.543  1.00  0.00     0.211 HD
ENDBRANCH  33  36
ENDBRANCH  32  33
ENDBRANCH  31  32
ENDBRANCH  28  31
ENDBRANCH  24  25
ENDBRANCH   6  24
TORSDOF 9
