REMARK  7 active torsions:
REMARK  status: ('A' for Active; 'I' for Inactive)
REMARK    1  A    between atoms: C_7  and  C_8 
REMARK    2  A    between atoms: C_8  and  C_9 
REMARK    3  A    between atoms: C_9  and  C_10 
REMARK    4  A    between atoms: C_10  and  O_11 
REMARK    5  A    between atoms: C_13  and  C_14 
REMARK    6  A    between atoms: C_22  and  C_23 
REMARK       I    between atoms: C_23  and  N_24 
REMARK    7  A    between atoms: N_24  and  C_25 
ROOT
HETATM    1  C   UNL     1       1.054   0.115   0.531  1.00  0.00     0.070 C 
HETATM    2  C   UNL     1       2.529   0.064   0.214  1.00  0.00     0.037 C 
HETATM    3  N   UNL     1       3.183   1.293   0.178  1.00  0.00    -0.192 N 
HETATM    4  C   UNL     1       4.522   1.410   0.107  1.00  0.00     0.726 A 
HETATM    5  N   UNL     1       5.273   0.299  -0.147  1.00  0.00    -0.083 N 
HETATM    6  N   UNL     1       6.592   0.557  -0.036  1.00  0.00    -0.140 NA
HETATM    7  C   UNL     1       6.566   1.870   0.241  1.00  0.00     0.166 A 
HETATM    8  N   UNL     1       5.311   2.430   0.316  1.00  0.00    -0.046 NA
HETATM    9  C   UNL     1       4.718  -1.052  -0.305  1.00  0.00     0.204 C 
HETATM   10  C   UNL     1       3.228  -1.085   0.015  1.00  0.00     0.062 C 
HETATM   11  H   UNL     1       2.644   2.115   0.442  1.00  0.00     0.184 HD
ENDROOT
BRANCH  10  12
HETATM   12  C   UNL     1       2.539  -2.408   0.063  1.00  0.00     0.256 C 
HETATM   13  N   UNL     1       3.221  -3.377   0.770  1.00  0.00    -0.323 N 
HETATM   14  H   UNL     1       4.151  -3.177   1.109  1.00  0.00     0.169 HD
HETATM   15  O   UNL     1       1.465  -2.553  -0.511  1.00  0.00    -0.267 OA
BRANCH  13  16
HETATM   16  C   UNL     1       2.750  -4.663   1.118  1.00  0.00     0.035 A 
HETATM   17  C   UNL     1       1.421  -5.072   0.973  1.00  0.00     0.032 A 
HETATM   18  C   UNL     1       1.024  -6.344   1.396  1.00  0.00     0.044 A 
HETATM   19  C   UNL     1       1.958  -7.209   1.952  1.00  0.00     0.116 A 
HETATM   20  F   UNL     1       1.574  -8.425   2.359  1.00  0.00    -0.206 F 
HETATM   21  C   UNL     1       3.284  -6.825   2.095  1.00  0.00     0.044 A 
HETATM   22  C   UNL     1       3.678  -5.550   1.685  1.00  0.00     0.032 A 
ENDBRANCH  13  16
ENDBRANCH  10  12
BRANCH   9  23
HETATM   23  C   UNL     1       5.045  -1.582  -1.700  1.00  0.00    -0.005 A 
HETATM   24  C   UNL     1       5.904  -2.682  -1.912  1.00  0.00     0.064 A 
HETATM   25 CL   UNL     1       6.596  -3.528  -0.561  1.00  0.00    -0.082 Cl
HETATM   26  C   UNL     1       6.192  -3.107  -3.222  1.00  0.00     0.056 A 
HETATM   27 CL   UNL     1       7.243  -4.441  -3.559  1.00  0.00    -0.083 Cl
HETATM   28  C   UNL     1       5.626  -2.453  -4.319  1.00  0.00     0.026 A 
HETATM   29  C   UNL     1       4.769  -1.375  -4.122  1.00  0.00     0.002 A 
HETATM   30  C   UNL     1       4.482  -0.944  -2.828  1.00  0.00     0.011 A 
ENDBRANCH   9  23
BRANCH   7  31
HETATM   31  C   UNL     1       7.795   2.638   0.560  1.00  0.00     0.085 C 
BRANCH  31  32
HETATM   32  C   UNL     1       8.031   2.775   2.065  1.00  0.00     0.034 C 
BRANCH  32  33
HETATM   33  C   UNL     1       8.276   1.439   2.758  1.00  0.00     0.164 C 
BRANCH  33  34
HETATM   34  O   UNL     1       8.564   1.658   4.135  1.00  0.00    -0.401 OA
HETATM   35  H   UNL     1       9.382   2.181   4.184  1.00  0.00     0.209 HD
ENDBRANCH  33  34
ENDBRANCH  32  33
ENDBRANCH  31  32
ENDBRANCH   7  31
TORSDOF 7
