REMARK  7 active torsions:
REMARK  status: ('A' for Active; 'I' for Inactive)
REMARK    1  A    between atoms: C_2  and  O_3 
REMARK    2  A    between atoms: O_3  and  C_4 
REMARK    3  A    between atoms: C_5  and  N_6 
REMARK       I    between atoms: N_6  and  C_7 
REMARK    4  A    between atoms: C_7  and  C_8 
REMARK    5  A    between atoms: C_8  and  S_9 
REMARK    6  A    between atoms: S_9  and  C_10 
REMARK    7  A    between atoms: N_11  and  C_12 
ROOT
HETATM    1  C   UNL     1       9.298  -0.550  -0.574  1.00  0.00     0.177 A 
HETATM    2  N   UNL     1       9.522  -1.907  -0.250  1.00  0.00    -0.276 N 
HETATM    3  C   UNL     1      10.860  -2.292   0.131  1.00  0.00     0.124 A 
HETATM    4  N   UNL     1      11.211  -3.540   0.376  1.00  0.00    -0.384 N 
HETATM    5  H   UNL     1      12.162  -3.775   0.617  1.00  0.00     0.157 HD
HETATM    6  H   UNL     1      10.529  -4.283   0.301  1.00  0.00     0.157 HD
HETATM    7  C   UNL     1      11.829  -1.245   0.189  1.00  0.00     0.081 A 
HETATM    8  C   UNL     1      11.441   0.042  -0.168  1.00  0.00     0.187 A 
HETATM    9  N   UNL     1      12.435   0.915  -0.076  1.00  0.00    -0.153 NA
HETATM   10  N   UNL     1      13.467   0.169   0.358  1.00  0.00    -0.280 N 
HETATM   11  H   UNL     1      14.356   0.635   0.516  1.00  0.00     0.189 HD
HETATM   12  C   UNL     1      13.162  -1.166   0.523  1.00  0.00     0.042 A 
HETATM   13  C   UNL     1      14.176  -2.146   0.970  1.00  0.00     0.071 C 
HETATM   14  N   UNL     1      10.171   0.416  -0.587  1.00  0.00    -0.202 NA
ENDROOT
BRANCH   1  15
HETATM   15  S   UNL     1       7.662  -0.033  -1.074  1.00  0.00    -0.082 SA
BRANCH  15  16
HETATM   16  C   UNL     1       7.520   1.502  -0.116  1.00  0.00     0.185 C 
BRANCH  16  17
HETATM   17  C   UNL     1       7.391   1.197   1.368  1.00  0.00     0.232 C 
HETATM   18  N   UNL     1       6.204   1.666   1.915  1.00  0.00    -0.324 N 
HETATM   19  H   UNL     1       5.381   1.580   1.332  1.00  0.00     0.169 HD
HETATM   20  O   UNL     1       8.232   0.541   1.983  1.00  0.00    -0.272 OA
BRANCH  18  21
HETATM   21  C   UNL     1       5.995   1.778   3.305  1.00  0.00     0.068 A 
HETATM   22  C   UNL     1       6.946   2.349   4.169  1.00  0.00     0.095 A 
HETATM   23  C   UNL     1       6.676   2.455   5.536  1.00  0.00     0.039 A 
HETATM   24  C   UNL     1       5.466   1.981   6.048  1.00  0.00     0.003 A 
HETATM   25  C   UNL     1       4.508   1.443   5.190  1.00  0.00     0.002 A 
HETATM   26  C   UNL     1       4.763   1.360   3.819  1.00  0.00     0.032 A 
BRANCH  22  27
HETATM   27  O   UNL     1       8.029   3.010   3.641  1.00  0.00    -0.349 OA
BRANCH  27  28
HETATM   28  C   UNL     1       9.284   2.446   4.030  1.00  0.00     0.171 C 
HETATM   29  C   UNL     1      10.101   3.484   4.776  1.00  0.00     0.034 C 
ENDBRANCH  27  28
ENDBRANCH  22  27
ENDBRANCH  18  21
ENDBRANCH  16  17
ENDBRANCH  15  16
ENDBRANCH   1  15
BRANCH   2  30
HETATM   30  C   UNL     1       8.478  -2.878  -0.278  1.00  0.00     0.043 A 
HETATM   31  C   UNL     1       7.947  -3.332  -1.495  1.00  0.00     0.031 A 
HETATM   32  C   UNL     1       6.978  -4.339  -1.514  1.00  0.00     0.021 A 
HETATM   33  C   UNL     1       6.546  -4.906  -0.316  1.00  0.00     0.011 A 
HETATM   34 BR   UNL     1       5.248  -6.278  -0.343  1.00  0.00    -0.051 Br
HETATM   35  C   UNL     1       7.069  -4.472   0.900  1.00  0.00     0.021 A 
HETATM   36  C   UNL     1       8.032  -3.460   0.919  1.00  0.00     0.031 A 
ENDBRANCH   2  30
TORSDOF 7
