REMARK  7 active torsions:
REMARK  status: ('A' for Active; 'I' for Inactive)
REMARK       I    between atoms: N_2  and  C_3 
REMARK    1  A    between atoms: N_2  and  C_24 
REMARK    2  A    between atoms: C_3  and  C_4 
REMARK    3  A    between atoms: C_7  and  N_8 
REMARK    4  A    between atoms: C_11  and  N_12 
REMARK       I    between atoms: N_12  and  C_13 
REMARK    5  A    between atoms: C_13  and  C_14 
REMARK    6  A    between atoms: C_24  and  C_25 
REMARK    7  A    between atoms: C_27  and  O_28 
ROOT
HETATM    1  C   UNL     1       4.745   0.893   1.244  1.00  0.00     0.032 A 
HETATM    2  C   UNL     1       5.373   2.070   0.819  1.00  0.00     0.019 A 
HETATM    3  C   UNL     1       6.758   2.118   0.663  1.00  0.00     0.032 A 
HETATM    4  C   UNL     1       7.537   0.979   0.913  1.00  0.00     0.058 A 
HETATM    5  C   UNL     1       6.919  -0.184   1.395  1.00  0.00     0.032 A 
HETATM    6  C   UNL     1       5.527  -0.215   1.585  1.00  0.00     0.019 A 
ENDROOT
BRANCH   4   7
HETATM    7  N   UNL     1       8.932   1.031   0.628  1.00  0.00    -0.243 N 
HETATM    8  N   UNL     1       9.517   2.205   0.283  1.00  0.00    -0.178 NA
HETATM    9  C   UNL     1      10.763   1.878  -0.060  1.00  0.00     0.170 A 
HETATM   10  C   UNL     1      11.008   0.498   0.060  1.00  0.00     0.071 A 
HETATM   11  C   UNL     1       9.835  -0.015   0.568  1.00  0.00     0.149 A 
BRANCH  10  12
HETATM   12  N   UNL     1      12.120  -0.260  -0.267  1.00  0.00    -0.324 N 
HETATM   13  C   UNL     1      13.241   0.266  -0.890  1.00  0.00     0.228 C 
HETATM   14  O   UNL     1      13.415   1.454  -1.144  1.00  0.00    -0.273 OA
HETATM   15  H   UNL     1      12.051  -1.258  -0.123  1.00  0.00     0.169 HD
BRANCH  13  16
HETATM   16  C   UNL     1      14.229  -0.799  -1.323  1.00  0.00     0.104 C 
HETATM   17  C   UNL     1      15.478  -0.218  -1.964  1.00  0.00     0.181 C 
HETATM   18  O   UNL     1      16.531  -1.174  -1.760  1.00  0.00    -0.390 OA
HETATM   19  C   UNL     1      16.093  -2.138  -0.798  1.00  0.00     0.168 C 
HETATM   20  C   UNL     1      14.818  -1.602  -0.185  1.00  0.00     0.042 C 
ENDBRANCH  13  16
ENDBRANCH  10  12
ENDBRANCH   4   7
BRANCH   1  21
HETATM   21  C   UNL     1       3.264   0.940   1.341  1.00  0.00     0.253 C 
HETATM   22  N   UNL     1       2.467   0.009   0.671  1.00  0.00    -0.348 N 
HETATM   23  C   UNL     1       1.038   0.282   0.567  1.00  0.00     0.153 C 
HETATM   24  O   UNL     1       2.787   1.895   1.954  1.00  0.00    -0.267 OA
BRANCH  22  25
HETATM   25  C   UNL     1       2.914  -1.272   0.120  1.00  0.00     0.164 C 
BRANCH  25  26
HETATM   26  C   UNL     1       2.746  -2.450   1.065  1.00  0.00    -0.038 A 
HETATM   27  C   UNL     1       2.300  -2.309   2.394  1.00  0.00     0.045 A 
HETATM   28  C   UNL     1       2.124  -3.420   3.222  1.00  0.00     0.068 A 
HETATM   29  C   UNL     1       2.434  -4.688   2.734  1.00  0.00     0.037 A 
HETATM   30  C   UNL     1       2.895  -4.850   1.428  1.00  0.00     0.003 A 
HETATM   31  C   UNL     1       3.046  -3.739   0.597  1.00  0.00     0.009 A 
BRANCH  28  32
HETATM   32  O   UNL     1       1.667  -3.390   4.511  1.00  0.00    -0.356 OA
HETATM   33  C   UNL     1       1.114  -2.159   4.965  1.00  0.00     0.210 C 
ENDBRANCH  28  32
ENDBRANCH  25  26
ENDBRANCH  22  25
ENDBRANCH   1  21
TORSDOF 7
