REMARK  2 active torsions:
REMARK  status: ('A' for Active; 'I' for Inactive)
REMARK    1  A    between atoms: O_2  and  C_3 
REMARK    2  A    between atoms: C_7  and  N_8 
REMARK       I    between atoms: N_8  and  C_9 
REMARK       I    between atoms: C_9  and  N_10 
ROOT
HETATM    1  N   UNL     1       4.986   7.093  -1.462  1.00  0.00    -0.309 N 
HETATM    2  C   UNL     1       4.321   5.942  -1.106  1.00  0.00     0.323 C 
HETATM    3  N   UNL     1       3.076   6.135  -0.518  1.00  0.00    -0.328 N 
HETATM    4  C   UNL     1       2.269   4.930  -0.275  1.00  0.00     0.185 C 
HETATM    5  C   UNL     1       0.834   5.289  -0.455  1.00  0.00     0.035 A 
HETATM    6  C   UNL     1       0.302   6.559  -0.560  1.00  0.00    -0.020 A 
HETATM    7  C   UNL     1       1.175   7.765  -0.511  1.00  0.00     0.061 C 
HETATM    8  C   UNL     1       2.549   7.384   0.081  1.00  0.00     0.132 C 
HETATM    9  N   UNL     1      -0.189   4.388  -0.555  1.00  0.00    -0.357 N 
HETATM   10  H   UNL     1      -0.095   3.382  -0.521  1.00  0.00     0.166 HD
HETATM   11  C   UNL     1      -1.382   5.056  -0.734  1.00  0.00     0.043 A 
HETATM   12  C   UNL     1      -1.100   6.426  -0.744  1.00  0.00    -0.001 A 
HETATM   13  C   UNL     1      -2.678   4.552  -0.896  1.00  0.00     0.030 A 
HETATM   14  C   UNL     1      -3.715   5.472  -1.077  1.00  0.00     0.002 A 
HETATM   15  C   UNL     1      -3.463   6.842  -1.094  1.00  0.00     0.001 A 
HETATM   16  C   UNL     1      -2.162   7.332  -0.929  1.00  0.00     0.014 A 
HETATM   17  O   UNL     1       4.753   4.808  -1.302  1.00  0.00    -0.247 OA
HETATM   18  H   UNL     1       4.462   7.947  -1.397  1.00  0.00     0.170 HD
ENDROOT
BRANCH   1  19
HETATM   19  C   UNL     1       6.245   7.208  -2.092  1.00  0.00     0.038 A 
HETATM   20  C   UNL     1       7.062   6.127  -2.428  1.00  0.00     0.056 A 
HETATM   21  C   UNL     1       8.280   6.336  -3.086  1.00  0.00     0.069 A 
HETATM   22  C   UNL     1       8.697   7.630  -3.421  1.00  0.00     0.090 A 
HETATM   23 CL   UNL     1       9.234   4.955  -3.503  1.00  0.00    -0.081 Cl
HETATM   24  C   UNL     1       7.903   8.716  -3.049  1.00  0.00     0.041 A 
HETATM   25  C   UNL     1       6.683   8.503  -2.398  1.00  0.00     0.032 A 
BRANCH  22  26
HETATM   26  O   UNL     1       9.905   7.784  -4.050  1.00  0.00    -0.354 OA
HETATM   27  C   UNL     1       9.897   8.743  -5.104  1.00  0.00     0.210 C 
ENDBRANCH  22  26
ENDBRANCH   1  19
TORSDOF 2
