REMARK  8 active torsions:
REMARK  status: ('A' for Active; 'I' for Inactive)
REMARK    1  A    between atoms: C_2  and  O_3 
REMARK    2  A    between atoms: C_2  and  C_4 
REMARK    3  A    between atoms: C_2  and  C_29 
REMARK    4  A    between atoms: N_11  and  C_13 
REMARK    5  A    between atoms: C_13  and  C_14 
REMARK    6  A    between atoms: C_16  and  S_17 
REMARK    7  A    between atoms: S_17  and  C_18 
REMARK    8  A    between atoms: C_29  and  N_30 
ROOT
HETATM    1  C   UNL     1       2.863  -0.418   1.424  1.00  0.00    -0.022 A 
HETATM    2  C   UNL     1       2.807   0.880   1.980  1.00  0.00     0.022 A 
HETATM    3  C   UNL     1       3.255   1.171   3.281  1.00  0.00     0.002 A 
HETATM    4  C   UNL     1       3.800   0.138   4.037  1.00  0.00     0.076 A 
HETATM    5  O   UNL     1       4.236   0.338   5.315  1.00  0.00    -0.349 OA
HETATM    6  C   UNL     1       5.398   1.175   5.354  1.00  0.00     0.203 C 
HETATM    7  C   UNL     1       5.014   2.649   5.500  1.00  0.00     0.262 C 
HETATM    8  N   UNL     1       4.399   3.236   4.243  1.00  0.00    -0.059 N 
HETATM    9  H   UNL     1       4.111   4.188   4.498  1.00  0.00     0.280 HD
HETATM   10  C   UNL     1       3.103   2.554   3.851  1.00  0.00     0.276 C 
HETATM   11  C   UNL     1       3.860  -1.155   3.530  1.00  0.00     0.038 A 
HETATM   12  C   UNL     1       3.410  -1.428   2.233  1.00  0.00     0.013 A 
ENDROOT
BRANCH   8  13
HETATM   13  C   UNL     1       5.383   3.415   3.106  1.00  0.00     0.299 C 
BRANCH  13  14
HETATM   14  C   UNL     1       4.920   4.376   2.073  1.00  0.00     0.080 A 
HETATM   15  O   UNL     1       4.088   3.884   1.112  1.00  0.00    -0.306 OA
HETATM   16  C   UNL     1       3.736   4.924   0.292  1.00  0.00     0.120 A 
HETATM   17  C   UNL     1       4.389   6.066   0.709  1.00  0.00     0.047 A 
HETATM   18  C   UNL     1       5.144   5.719   1.857  1.00  0.00     0.038 A 
BRANCH  16  19
HETATM   19  S   UNL     1       2.642   4.741  -1.053  1.00  0.00    -0.025 SA
BRANCH  19  20
HETATM   20  C   UNL     1       1.209   4.405  -0.145  1.00  0.00     0.197 A 
HETATM   21  N   UNL     1      -0.048   4.750  -0.554  1.00  0.00    -0.322 N 
HETATM   22  C   UNL     1      -0.445   5.464  -1.740  1.00  0.00     0.159 C 
HETATM   23  C   UNL     1      -0.888   4.287   0.417  1.00  0.00     0.235 A 
HETATM   24  N   UNL     1      -0.191   3.676   1.350  1.00  0.00    -0.143 NA
HETATM   25  N   UNL     1       1.133   3.758   0.998  1.00  0.00    -0.123 NA
ENDBRANCH  19  20
ENDBRANCH  16  19
ENDBRANCH  13  14
ENDBRANCH   8  13
BRANCH   1  26
HETATM   26  C   UNL     1       2.380  -0.670  -0.019  1.00  0.00     0.105 C 
HETATM   27  C   UNL     1       1.038   0.034  -0.299  1.00  0.00     0.053 C 
BRANCH  26  28
HETATM   28  O   UNL     1       3.361  -0.090  -0.892  1.00  0.00    -0.384 OA
HETATM   29  H   UNL     1       3.669   0.749  -0.501  1.00  0.00     0.211 HD
ENDBRANCH  26  28
BRANCH  26  30
HETATM   30  C   UNL     1       2.259  -2.196  -0.382  1.00  0.00     0.276 C 
BRANCH  30  31
HETATM   31  N   UNL     1       1.796  -2.509  -1.812  1.00  0.00    -0.076 N 
HETATM   32  H   UNL     1       0.922  -2.003  -1.995  1.00  0.00     0.279 HD
HETATM   33  C   UNL     1       2.779  -2.075  -2.871  1.00  0.00     0.269 C 
HETATM   34  C   UNL     1       1.462  -3.971  -1.960  1.00  0.00     0.269 C 
ENDBRANCH  30  31
ENDBRANCH  26  30
ENDBRANCH   1  26
TORSDOF 8
