REMARK  3 active torsions:
REMARK  status: ('A' for Active; 'I' for Inactive)
REMARK    1  A    between atoms: C_2  and  C_3 
REMARK    2  A    between atoms: C_8  and  C_9 
REMARK       I    between atoms: C_9  and  N_10 
REMARK    3  A    between atoms: N_10  and  C_11 
ROOT
HETATM    1  C   UNL     1       3.515  -1.174   0.017  1.00  0.00     0.104 A 
HETATM    2  N   UNL     1       4.569  -0.338   0.069  1.00  0.00    -0.174 NA
HETATM    3  N   UNL     1       5.636  -1.118  -0.129  1.00  0.00    -0.288 N 
HETATM    4  H   UNL     1       6.553  -0.682  -0.160  1.00  0.00     0.188 HD
HETATM    5  C   UNL     1       5.326  -2.430  -0.259  1.00  0.00     0.128 A 
HETATM    6  C   UNL     1       3.951  -2.531  -0.136  1.00  0.00     0.080 A 
ENDROOT
BRANCH   6   7
HETATM    7  C   UNL     1       3.247  -3.810  -0.189  1.00  0.00     0.260 C 
HETATM    8  N   UNL     1       2.081  -3.861   0.552  1.00  0.00    -0.323 N 
HETATM    9  H   UNL     1       1.833  -3.029   1.071  1.00  0.00     0.169 HD
HETATM   10  O   UNL     1       3.734  -4.745  -0.816  1.00  0.00    -0.267 OA
BRANCH   8  11
HETATM   11  C   UNL     1       1.211  -4.962   0.710  1.00  0.00     0.035 A 
HETATM   12  C   UNL     1       1.425  -6.216   0.130  1.00  0.00     0.037 A 
HETATM   13  C   UNL     1       0.506  -7.229   0.364  1.00  0.00    -0.050 A 
HETATM   14  C   UNL     1      -0.617  -7.022   1.168  1.00  0.00    -0.052 A 
HETATM   15  C   UNL     1       0.570  -8.649  -0.110  1.00  0.00     0.039 C 
HETATM   16  C   UNL     1      -1.412  -8.281   1.307  1.00  0.00     0.039 C 
HETATM   17  C   UNL     1      -0.845  -5.793   1.756  1.00  0.00     0.010 A 
HETATM   18  C   UNL     1      -0.876  -9.107   0.128  1.00  0.00     0.009 C 
HETATM   19  C   UNL     1       0.071  -4.761   1.519  1.00  0.00     0.030 A 
ENDBRANCH   8  11
ENDBRANCH   6   7
BRANCH   1  20
HETATM   20  C   UNL     1       2.164  -0.612   0.104  1.00  0.00    -0.002 A 
HETATM   21  C   UNL     1       1.911   0.454   0.984  1.00  0.00     0.017 A 
HETATM   22  C   UNL     1       0.642   1.032   1.064  1.00  0.00     0.040 A 
HETATM   23  C   UNL     1      -0.386   0.551   0.260  1.00  0.00     0.102 A 
HETATM   24  C   UNL     1      -0.153  -0.524  -0.605  1.00  0.00     0.103 A 
HETATM   25  O   UNL     1      -1.599   1.180   0.368  1.00  0.00    -0.346 OA
HETATM   26  C   UNL     1       1.121  -1.088  -0.702  1.00  0.00     0.053 A 
HETATM   27  O   UNL     1      -1.128  -1.069  -1.401  1.00  0.00    -0.346 OA
HETATM   28  C   UNL     1      -2.435  -0.641  -0.998  1.00  0.00     0.202 C 
HETATM   29  C   UNL     1      -2.451   0.856  -0.737  1.00  0.00     0.202 C 
ENDBRANCH   1  20
TORSDOF 3
