REMARK  5 active torsions:
REMARK  status: ('A' for Active; 'I' for Inactive)
REMARK    1  A    between atoms: O_2  and  C_3 
REMARK    2  A    between atoms: C_7  and  C_8 
REMARK       I    between atoms: C_8  and  N_9 
REMARK    3  A    between atoms: N_9  and  C_10 
REMARK    4  A    between atoms: C_10  and  C_11 
REMARK    5  A    between atoms: C_11  and  C_12 
ROOT
HETATM    1  C   UNL     1       5.301  -4.941   2.823  1.00  0.00     0.251 C 
HETATM    2  N   UNL     1       6.356  -4.529   2.043  1.00  0.00    -0.356 N 
HETATM    3  O   UNL     1       4.932  -4.346   3.830  1.00  0.00    -0.268 OA
HETATM    4  H   UNL     1       6.717  -5.109   1.295  1.00  0.00     0.162 HD
ENDROOT
BRANCH   2   5
HETATM    5  C   UNL     1       7.209  -3.422   2.436  1.00  0.00     0.130 C 
BRANCH   5   6
HETATM    6  C   UNL     1       8.424  -3.889   3.238  1.00  0.00     0.098 C 
BRANCH   6   7
HETATM    7  C   UNL     1       9.400  -4.633   2.383  1.00  0.00     0.106 A 
HETATM    8  N   UNL     1       9.128  -5.562   1.486  1.00  0.00    -0.233 NA
HETATM    9  C   UNL     1      10.343  -5.933   0.959  1.00  0.00     0.085 A 
HETATM   10  C   UNL     1      11.379  -5.216   1.547  1.00  0.00     0.062 A 
HETATM   11  C   UNL     1      10.643  -6.878  -0.032  1.00  0.00     0.034 A 
HETATM   12  N   UNL     1      10.754  -4.404   2.456  1.00  0.00    -0.343 N 
HETATM   13  C   UNL     1      12.721  -5.380   1.200  1.00  0.00     0.032 A 
HETATM   14  H   UNL     1      11.211  -3.745   3.069  1.00  0.00     0.167 HD
HETATM   15  C   UNL     1      13.001  -6.326   0.207  1.00  0.00     0.002 A 
HETATM   16  C   UNL     1      11.983  -7.065  -0.400  1.00  0.00     0.002 A 
ENDBRANCH   6   7
ENDBRANCH   5   6
ENDBRANCH   2   5
BRANCH   1  17
HETATM   17  C   UNL     1       4.569  -6.159   2.384  1.00  0.00     0.035 A 
HETATM   18  C   UNL     1       5.185  -7.191   1.669  1.00  0.00     0.044 A 
HETATM   19  C   UNL     1       4.436  -8.304   1.276  1.00  0.00     0.070 A 
HETATM   20  C   UNL     1       3.079  -8.409   1.613  1.00  0.00     0.111 A 
HETATM   21 CL   UNL     1       5.233  -9.541   0.369  1.00  0.00    -0.081 Cl
HETATM   22  C   UNL     1       2.466  -7.368   2.320  1.00  0.00     0.070 A 
HETATM   23  C   UNL     1       3.211  -6.257   2.717  1.00  0.00     0.044 A 
HETATM   24 CL   UNL     1       0.784  -7.399   2.708  1.00  0.00    -0.081 Cl
BRANCH  20  25
HETATM   25  O   UNL     1       2.346  -9.482   1.171  1.00  0.00    -0.352 OA
HETATM   26  C   UNL     1       2.298 -10.509   2.164  1.00  0.00     0.210 C 
ENDBRANCH  20  25
ENDBRANCH   1  17
TORSDOF 5
