REMARK  7 active torsions:
REMARK  status: ('A' for Active; 'I' for Inactive)
REMARK    1  A    between atoms: C_4  and  C_5 
REMARK    2  A    between atoms: C_5  and  N_6 
REMARK    3  A    between atoms: C_14  and  C_15 
REMARK    4  A    between atoms: C_18  and  O_19 
REMARK    5  A    between atoms: O_19  and  C_20 
REMARK    6  A    between atoms: C_20  and  C_21 
REMARK    7  A    between atoms: C_22  and  C_23 
ROOT
HETATM    1  N   UNL     1       3.383  -1.339  -0.335  1.00  0.00    -0.063 N 
HETATM    2  H   UNL     1       4.125  -1.442   0.368  1.00  0.00     0.280 HD
HETATM    3  C   UNL     1       2.450  -2.516  -0.095  1.00  0.00     0.282 C 
HETATM    4  C   UNL     1       3.182  -3.788  -0.357  1.00  0.00     0.018 A 
HETATM    5  C   UNL     1       4.335  -3.894  -1.114  1.00  0.00    -0.023 A 
HETATM    6  C   UNL     1       4.794  -5.250  -1.167  1.00  0.00     0.073 A 
HETATM    7  C   UNL     1       3.980  -6.092  -0.449  1.00  0.00     0.088 A 
HETATM    8  N   UNL     1       4.214  -7.410  -0.306  1.00  0.00    -0.358 N 
HETATM    9  C   UNL     1       5.201  -8.072  -1.132  1.00  0.00     0.219 C 
HETATM   10  N   UNL     1       6.136  -7.142  -1.714  1.00  0.00    -0.332 N 
HETATM   11  C   UNL     1       5.960  -5.794  -1.833  1.00  0.00     0.256 C 
HETATM   12  O   UNL     1       6.749  -5.094  -2.458  1.00  0.00    -0.267 OA
HETATM   13  S   UNL     1       2.657  -5.286   0.253  1.00  0.00    -0.074 SA
HETATM   14  C   UNL     1       4.989  -2.691  -1.730  1.00  0.00     0.068 C 
HETATM   15  C   UNL     1       4.069  -1.455  -1.692  1.00  0.00     0.240 C 
HETATM   16  H   UNL     1       3.477  -8.016   0.044  1.00  0.00     0.162 HD
HETATM   17  H   UNL     1       6.921  -7.520  -2.223  1.00  0.00     0.165 HD
ENDROOT
BRANCH   9  18
HETATM   18  C   UNL     1       4.517  -8.949  -2.163  1.00  0.00    -0.016 A 
HETATM   19  C   UNL     1       3.943  -8.420  -3.333  1.00  0.00     0.014 A 
HETATM   20  C   UNL     1       3.279  -9.248  -4.245  1.00  0.00     0.038 A 
HETATM   21  C   UNL     1       3.160 -10.607  -3.976  1.00  0.00     0.079 A 
HETATM   22  C   UNL     1       3.737 -11.157  -2.832  1.00  0.00     0.038 A 
HETATM   23  C   UNL     1       4.404 -10.331  -1.927  1.00  0.00     0.014 A 
BRANCH  21  24
HETATM   24  O   UNL     1       2.520 -11.524  -4.832  1.00  0.00    -0.276 OA
BRANCH  24  25
HETATM   25  C   UNL     1       1.368 -11.181  -5.525  1.00  0.00     0.288 C 
HETATM   26  O   UNL     1       0.815 -10.092  -5.550  1.00  0.00    -0.260 OA
BRANCH  25  27
HETATM   27  C   UNL     1       0.838 -12.346  -6.267  1.00  0.00     0.085 C 
HETATM   28  C   UNL     1       1.257 -13.607  -6.087  1.00  0.00     0.043 C 
BRANCH  28  29
HETATM   29  C   UNL     1       0.664 -14.680  -6.806  1.00  0.00     0.075 A 
HETATM   30  O   UNL     1      -0.288 -14.520  -7.790  1.00  0.00    -0.323 OA
HETATM   31  C   UNL     1      -0.634 -15.745  -8.256  1.00  0.00     0.142 A 
HETATM   32  C   UNL     1       0.068 -16.722  -7.599  1.00  0.00     0.027 A 
HETATM   33  C   UNL     1       0.899 -16.045  -6.675  1.00  0.00     0.039 A 
ENDBRANCH  28  29
ENDBRANCH  25  27
ENDBRANCH  24  25
ENDBRANCH  21  24
ENDBRANCH   9  18
BRANCH   1  34
HETATM   34  C   UNL     1       2.753   0.001  -0.061  1.00  0.00     0.273 C 
BRANCH  34  35
HETATM   35  C   UNL     1       1.611   0.386  -0.962  1.00  0.00    -0.033 A 
HETATM   36  C   UNL     1       0.286   0.093  -0.601  1.00  0.00     0.009 A 
HETATM   37  C   UNL     1      -0.770   0.431  -1.448  1.00  0.00     0.001 A 
HETATM   38  C   UNL     1      -0.517   1.069  -2.659  1.00  0.00     0.000 A 
HETATM   39  C   UNL     1       0.791   1.378  -3.024  1.00  0.00     0.001 A 
HETATM   40  C   UNL     1       1.850   1.042  -2.180  1.00  0.00     0.009 A 
ENDBRANCH  34  35
ENDBRANCH   1  34
TORSDOF 7
