REMARK  3 active torsions:
REMARK  status: ('A' for Active; 'I' for Inactive)
REMARK    1  A    between atoms: C_7  and  C_8 
REMARK    2  A    between atoms: N_11  and  C_13 
REMARK    3  A    between atoms: C_13  and  C_14 
ROOT
HETATM    1  C   UNL     1      -2.054  -1.893   0.239  1.00  0.00     0.024 C 
HETATM    2  C   UNL     1      -2.736  -1.893  -1.145  1.00  0.00     0.037 C 
HETATM    3  C   UNL     1      -2.587  -0.548  -1.846  1.00  0.00     0.236 C 
HETATM    4  N   UNL     1      -3.143   0.571  -0.993  1.00  0.00    -0.067 N 
HETATM    5  H   UNL     1      -4.162   0.446  -0.925  1.00  0.00     0.280 HD
HETATM    6  C   UNL     1      -2.597   0.573   0.419  1.00  0.00     0.236 C 
HETATM    7  C   UNL     1      -2.758  -0.803   1.050  1.00  0.00     0.037 C 
ENDROOT
BRANCH   1   8
HETATM    8  C   UNL     1      -0.537  -1.771   0.140  1.00  0.00    -0.026 A 
HETATM    9  C   UNL     1       0.410  -1.063   0.977  1.00  0.00    -0.001 A 
HETATM   10  C   UNL     1       1.673  -1.207   0.390  1.00  0.00     0.045 A 
HETATM   11  C   UNL     1       0.340  -0.297   2.167  1.00  0.00     0.017 A 
HETATM   12  C   UNL     1       2.830  -0.592   0.888  1.00  0.00     0.072 A 
HETATM   13  N   UNL     1       1.536  -2.049  -0.683  1.00  0.00    -0.365 N 
HETATM   14  C   UNL     1       2.702   0.183   2.034  1.00  0.00     0.118 A 
HETATM   15  C   UNL     1       1.486   0.326   2.679  1.00  0.00     0.043 A 
HETATM   16  F   UNL     1       3.783   0.797   2.533  1.00  0.00    -0.206 F 
HETATM   17  C   UNL     1       0.225  -2.399  -0.835  1.00  0.00     0.096 A 
HETATM   18  H   UNL     1       2.303  -2.374  -1.259  1.00  0.00     0.165 HD
ENDBRANCH   1   8
BRANCH   4  19
HETATM   19  C   UNL     1      -2.930   1.907  -1.694  1.00  0.00     0.282 C 
BRANCH  19  20
HETATM   20  C   UNL     1      -3.478   3.076  -0.960  1.00  0.00     0.027 A 
HETATM   21  S   UNL     1      -5.169   3.329  -0.799  1.00  0.00    -0.084 SA
HETATM   22  C   UNL     1      -4.854   4.751   0.109  1.00  0.00     0.166 A 
HETATM   23  N   UNL     1      -3.586   5.034   0.302  1.00  0.00    -0.265 NA
HETATM   24  C   UNL     1      -2.797   4.096  -0.325  1.00  0.00     0.133 A 
ENDBRANCH  19  20
ENDBRANCH   4  19
TORSDOF 3
