REMARK  2 active torsions:
REMARK  status: ('A' for Active; 'I' for Inactive)
REMARK    1  A    between atoms: C_15  and  C_16 
REMARK    2  A    between atoms: C_19  and  O_20 
ROOT
HETATM    1  C   UNL     1       1.102   0.688  -0.709  1.00  0.00     0.048 C 
HETATM    2  C   UNL     1       2.416   0.503  -0.006  1.00  0.00    -0.061 A 
HETATM    3  C   UNL     1       3.501   1.340  -0.320  1.00  0.00     0.021 A 
HETATM    4  C   UNL     1       4.742   1.147   0.317  1.00  0.00    -0.000 A 
HETATM    5  C   UNL     1       4.858   0.125   1.265  1.00  0.00     0.043 A 
HETATM    6  N   UNL     1       6.144   0.162   1.763  1.00  0.00    -0.353 N 
HETATM    7  H   UNL     1       6.522  -0.462   2.463  1.00  0.00     0.166 HD
HETATM    8  C   UNL     1       6.859   1.099   1.084  1.00  0.00     0.066 A 
HETATM    9  C   UNL     1       6.019   1.764   0.210  1.00  0.00    -0.017 A 
HETATM   10  C   UNL     1       6.511   2.874  -0.679  1.00  0.00     0.043 C 
HETATM   11  C   UNL     1       7.986   3.274  -0.359  1.00  0.00     0.018 C 
HETATM   12  C   UNL     1       8.840   2.025  -0.061  1.00  0.00     0.065 A 
HETATM   13  C   UNL     1       8.244   1.409   1.166  1.00  0.00     0.082 A 
HETATM   14  N   UNL     1       8.983   1.344   2.221  1.00  0.00    -0.203 NA
HETATM   15  C   UNL     1      10.280   2.226   0.423  1.00  0.00     0.121 A 
HETATM   16  N   UNL     1      10.187   1.853   1.852  1.00  0.00    -0.207 NA
HETATM   17  C   UNL     1       3.802  -0.738   1.574  1.00  0.00     0.031 A 
HETATM   18  C   UNL     1       2.585  -0.536   0.914  1.00  0.00     0.009 A 
HETATM   19  H   UNL     1      10.489   2.610   2.467  1.00  0.00     0.149 HD
ENDROOT
BRANCH  15  20
HETATM   20  C   UNL     1      11.279   1.337  -0.322  1.00  0.00    -0.038 A 
HETATM   21  C   UNL     1      11.230   1.204  -1.721  1.00  0.00     0.011 A 
HETATM   22  C   UNL     1      12.071   0.308  -2.393  1.00  0.00     0.037 A 
HETATM   23  C   UNL     1      12.996  -0.448  -1.678  1.00  0.00     0.068 A 
HETATM   24  C   UNL     1      13.133  -0.253  -0.308  1.00  0.00     0.037 A 
HETATM   25  C   UNL     1      12.281   0.628   0.365  1.00  0.00     0.011 A 
BRANCH  23  26
HETATM   26  O   UNL     1      13.836  -1.367  -2.245  1.00  0.00    -0.356 OA
HETATM   27  C   UNL     1      13.186  -2.225  -3.181  1.00  0.00     0.210 C 
ENDBRANCH  23  26
ENDBRANCH  15  20
TORSDOF 2
