REMARK  7 active torsions:
REMARK  status: ('A' for Active; 'I' for Inactive)
REMARK    1  A    between atoms: N_3  and  C_4 
REMARK    2  A    between atoms: C_12  and  C_13 
REMARK       I    between atoms: C_13  and  N_14 
REMARK    3  A    between atoms: N_14  and  C_15 
REMARK    4  A    between atoms: C_15  and  C_16 
REMARK    5  A    between atoms: C_16  and  O_17 
REMARK    6  A    between atoms: C_16  and  C_18 
REMARK    7  A    between atoms: C_21  and  O_22 
ROOT
HETATM    1  C   UNL     1       0.348   0.054   3.172  1.00  0.00     0.255 C 
HETATM    2  N   UNL     1       0.378  -0.086   1.807  1.00  0.00    -0.350 N 
HETATM    3  O   UNL     1       0.418  -0.910   3.929  1.00  0.00    -0.268 OA
HETATM    4  H   UNL     1       0.516   0.735   1.233  1.00  0.00     0.163 HD
ENDROOT
BRANCH   2   5
HETATM    5  C   UNL     1       0.525  -1.383   1.144  1.00  0.00     0.114 C 
HETATM    6  C   UNL     1      -0.754  -2.214   1.316  1.00  0.00     0.035 C 
BRANCH   5   7
HETATM    7  C   UNL     1       0.868  -1.205  -0.368  1.00  0.00     0.173 C 
BRANCH   7   8
HETATM    8  O   UNL     1      -0.217  -0.516  -1.012  1.00  0.00    -0.389 OA
HETATM    9  H   UNL     1      -0.963  -1.136  -1.064  1.00  0.00     0.210 HD
ENDBRANCH   7   8
BRANCH   7  10
HETATM   10  C   UNL     1       2.163  -0.458  -0.669  1.00  0.00    -0.028 A 
HETATM   11  C   UNL     1       3.313  -0.618   0.118  1.00  0.00     0.012 A 
HETATM   12  C   UNL     1       4.500   0.053  -0.200  1.00  0.00     0.037 A 
HETATM   13  C   UNL     1       4.577   0.885  -1.317  1.00  0.00     0.068 A 
HETATM   14  C   UNL     1       3.451   1.039  -2.120  1.00  0.00     0.037 A 
HETATM   15  C   UNL     1       2.263   0.369  -1.801  1.00  0.00     0.012 A 
BRANCH  13  16
HETATM   16  O   UNL     1       5.794   1.475  -1.513  1.00  0.00    -0.356 OA
HETATM   17  C   UNL     1       5.920   2.322  -2.649  1.00  0.00     0.210 C 
ENDBRANCH  13  16
ENDBRANCH   7  10
ENDBRANCH   5   7
ENDBRANCH   2   5
BRANCH   1  18
HETATM   18  C   UNL     1       0.278   1.415   3.687  1.00  0.00     0.075 C 
HETATM   19  C   UNL     1      -0.054   2.628   3.086  1.00  0.00     0.051 C 
HETATM   20  C   UNL     1      -0.556   2.944   1.719  1.00  0.00     0.071 C 
HETATM   21  N   UNL     1       0.143   3.612   4.060  1.00  0.00    -0.220 N 
HETATM   22  N   UNL     1       0.399   3.057   5.278  1.00  0.00    -0.177 NA
HETATM   23  C   UNL     1       0.508   1.756   5.036  1.00  0.00     0.158 C 
BRANCH  21  24
HETATM   24  C   UNL     1       0.117   5.043   3.914  1.00  0.00     0.150 A 
HETATM   25  N   UNL     1       0.013   5.586   2.671  1.00  0.00    -0.241 NA
HETATM   26  C   UNL     1       0.019   6.935   2.576  1.00  0.00     0.119 A 
HETATM   27  C   UNL     1       0.119   7.785   3.663  1.00  0.00     0.019 A 
HETATM   28  C   UNL     1       0.224   7.222   4.927  1.00  0.00     0.005 A 
HETATM   29  C   UNL     1       0.229   5.835   5.060  1.00  0.00     0.052 A 
ENDBRANCH  21  24
ENDBRANCH   1  18
TORSDOF 7
