REMARK  6 active torsions:
REMARK  status: ('A' for Active; 'I' for Inactive)
REMARK    1  A    between atoms: C_7  and  C_8 
REMARK    2  A    between atoms: N_9  and  N_10 
REMARK       I    between atoms: N_10  and  C_11 
REMARK    3  A    between atoms: C_11  and  C_12 
REMARK    4  A    between atoms: C_12  and  N_13 
REMARK       I    between atoms: N_13  and  C_14 
REMARK    5  A    between atoms: C_14  and  C_15 
REMARK    6  A    between atoms: C_16  and  C_17 
ROOT
HETATM    1  N   UNL     1       3.353  -4.718  -0.036  1.00  0.00    -0.246 N 
HETATM    2  C   UNL     1       4.001  -5.945  -0.044  1.00  0.00     0.255 C 
HETATM    3  O   UNL     1       3.457  -7.048  -0.049  1.00  0.00    -0.270 OA
HETATM    4  H   UNL     1       3.906  -3.860   0.033  1.00  0.00     0.192 HD
ENDROOT
BRANCH   1   5
HETATM    5  N   UNL     1       1.991  -4.665  -0.028  1.00  0.00    -0.184 NA
HETATM    6  C   UNL     1       1.477  -3.479   0.002  1.00  0.00     0.153 C 
BRANCH   6   7
HETATM    7  C   UNL     1       0.034  -3.314   0.008  1.00  0.00     0.018 A 
HETATM    8  C   UNL     1      -0.612  -2.084   0.008  1.00  0.00     0.018 A 
HETATM    9  C   UNL     1      -0.077  -0.698   0.001  1.00  0.00     0.069 C 
HETATM   10  N   UNL     1      -1.965  -2.324   0.011  1.00  0.00    -0.358 N 
HETATM   11  H   UNL     1      -2.683  -1.613   0.010  1.00  0.00     0.166 HD
HETATM   12  C   UNL     1      -2.220  -3.673   0.013  1.00  0.00     0.043 A 
HETATM   13  C   UNL     1      -0.987  -4.324   0.010  1.00  0.00     0.004 A 
HETATM   14  C   UNL     1      -3.443  -4.356   0.015  1.00  0.00     0.030 A 
HETATM   15  C   UNL     1      -0.983  -5.737   0.011  1.00  0.00     0.014 A 
HETATM   16  C   UNL     1      -2.195  -6.437   0.014  1.00  0.00     0.001 A 
HETATM   17  C   UNL     1      -3.407  -5.753   0.015  1.00  0.00     0.002 A 
ENDBRANCH   6   7
ENDBRANCH   1   5
BRANCH   2  18
HETATM   18  C   UNL     1       5.522  -5.807  -0.083  1.00  0.00     0.227 C 
BRANCH  18  19
HETATM   19  N   UNL     1       6.059  -5.252   1.149  1.00  0.00    -0.349 N 
HETATM   20  C   UNL     1       6.064  -3.904   1.386  1.00  0.00     0.241 C 
HETATM   21  O   UNL     1       5.550  -3.090   0.626  1.00  0.00    -0.269 OA
HETATM   22  H   UNL     1       6.389  -5.902   1.850  1.00  0.00     0.163 HD
BRANCH  20  23
HETATM   23  C   UNL     1       6.716  -3.535   2.664  1.00  0.00     0.075 C 
HETATM   24  C   UNL     1       6.969  -2.246   2.935  1.00  0.00     0.017 C 
BRANCH  24  25
HETATM   25  C   UNL     1       7.609  -1.762   4.169  1.00  0.00    -0.036 A 
HETATM   26  C   UNL     1       8.543  -2.521   4.888  1.00  0.00     0.011 A 
HETATM   27  C   UNL     1       9.143  -2.007   6.041  1.00  0.00     0.001 A 
HETATM   28  C   UNL     1       8.828  -0.723   6.480  1.00  0.00     0.000 A 
HETATM   29  C   UNL     1       7.917   0.049   5.765  1.00  0.00     0.001 A 
HETATM   30  C   UNL     1       7.315  -0.466   4.613  1.00  0.00     0.011 A 
ENDBRANCH  24  25
ENDBRANCH  20  23
ENDBRANCH  18  19
ENDBRANCH   2  18
TORSDOF 6
