REMARK  10 active torsions:
REMARK  status: ('A' for Active; 'I' for Inactive)
REMARK    1  A    between atoms: C_2  and  C_3 
REMARK    2  A    between atoms: C_3  and  C_4 
REMARK    3  A    between atoms: C_4  and  O_5 
REMARK    4  A    between atoms: O_5  and  C_6 
REMARK    5  A    between atoms: C_8  and  C_9 
REMARK       I    between atoms: C_9  and  N_10 
REMARK    6  A    between atoms: N_10  and  C_11 
REMARK    7  A    between atoms: C_11  and  N_12 
REMARK    8  A    between atoms: N_12  and  C_13 
REMARK    9  A    between atoms: C_15  and  O_16 
REMARK   10  A    between atoms: C_17  and  C_18 
ROOT
HETATM    1  N   UNL     1      12.276   4.950   1.931  1.00  0.00    -0.333 N 
HETATM    2  H   UNL     1      12.878   4.411   1.312  1.00  0.00     0.168 HD
ENDROOT
BRANCH   1   3
HETATM    3  C   UNL     1      11.006   5.059   1.431  1.00  0.00     0.179 C 
HETATM    4  S   UNL     1      10.653   4.151   0.069  1.00  0.00    -0.040 SA
BRANCH   3   5
HETATM    5  N   UNL     1      10.167   5.960   2.037  1.00  0.00    -0.299 N 
HETATM    6  C   UNL     1       8.788   6.025   1.879  1.00  0.00     0.257 C 
HETATM    7  O   UNL     1       8.048   5.048   1.920  1.00  0.00    -0.267 OA
HETATM    8  H   UNL     1      10.639   6.810   2.311  1.00  0.00     0.171 HD
BRANCH   6   9
HETATM    9  C   UNL     1       8.195   7.386   1.882  1.00  0.00     0.035 A 
HETATM   10  C   UNL     1       8.838   8.465   1.266  1.00  0.00     0.053 A 
HETATM   11  C   UNL     1       8.247   9.733   1.270  1.00  0.00     0.069 A 
HETATM   12  C   UNL     1       7.009   9.913   1.888  1.00  0.00     0.037 A 
HETATM   13  C   UNL     1       6.355   8.832   2.484  1.00  0.00     0.004 A 
HETATM   14  C   UNL     1       6.943   7.569   2.477  1.00  0.00     0.017 A 
BRANCH  11  15
HETATM   15  O   UNL     1       8.966  10.688   0.609  1.00  0.00    -0.351 OA
BRANCH  15  16
HETATM   16  C   UNL     1       8.560  12.051   0.704  1.00  0.00     0.175 C 
BRANCH  16  17
HETATM   17  C   UNL     1       7.517  12.455  -0.342  1.00  0.00     0.026 C 
BRANCH  17  18
HETATM   18  C   UNL     1       7.957  12.251  -1.794  1.00  0.00    -0.002 C 
HETATM   19  C   UNL     1       7.769  10.827  -2.297  1.00  0.00     0.005 C 
ENDBRANCH  17  18
ENDBRANCH  16  17
ENDBRANCH  15  16
ENDBRANCH  11  15
ENDBRANCH   6   9
ENDBRANCH   3   5
ENDBRANCH   1   3
BRANCH   1  20
HETATM   20  C   UNL     1      12.815   5.199   3.213  1.00  0.00     0.036 A 
HETATM   21  C   UNL     1      12.077   5.585   4.333  1.00  0.00     0.067 A 
HETATM   22  C   UNL     1      12.694   5.702   5.592  1.00  0.00     0.082 A 
HETATM   23  C   UNL     1      14.057   5.416   5.769  1.00  0.00     0.050 A 
HETATM   24  C   UNL     1      14.789   5.048   4.628  1.00  0.00     0.021 A 
HETATM   25  C   UNL     1      14.180   4.943   3.372  1.00  0.00     0.030 A 
BRANCH  22  26
HETATM   26  O   UNL     1      11.921   6.077   6.659  1.00  0.00    -0.360 OA
HETATM   27  H   UNL     1      10.991   6.151   6.393  1.00  0.00     0.217 HD
ENDBRANCH  22  26
BRANCH  23  28
HETATM   28  C   UNL     1      14.754   5.399   7.060  1.00  0.00     0.183 A 
HETATM   29  O   UNL     1      14.058   5.792   8.176  1.00  0.00    -0.289 OA
HETATM   30  C   UNL     1      14.924   5.576   9.205  1.00  0.00     0.106 A 
HETATM   31  C   UNL     1      16.101   5.082   8.672  1.00  0.00     0.093 A 
HETATM   32  C   UNL     1      14.695   5.787  10.559  1.00  0.00     0.040 A 
HETATM   33  N   UNL     1      15.990   4.991   7.308  1.00  0.00    -0.221 NA
HETATM   34  C   UNL     1      17.154   4.756   9.537  1.00  0.00     0.034 A 
HETATM   35  C   UNL     1      16.960   4.945  10.914  1.00  0.00     0.002 A 
HETATM   36  C   UNL     1      15.753   5.452  11.413  1.00  0.00     0.003 A 
ENDBRANCH  23  28
ENDBRANCH   1  20
TORSDOF 10
