REMARK  8 active torsions:
REMARK  status: ('A' for Active; 'I' for Inactive)
REMARK    1  A    between atoms: C_6  and  S_7 
REMARK    2  A    between atoms: S_7  and  C_8 
REMARK    3  A    between atoms: C_8  and  C_9 
REMARK       I    between atoms: C_9  and  N_10 
REMARK    4  A    between atoms: N_10  and  C_11 
REMARK    5  A    between atoms: C_24  and  C_25 
REMARK    6  A    between atoms: C_25  and  C_26 
REMARK       I    between atoms: C_26  and  N_27 
REMARK    7  A    between atoms: N_27  and  C_28 
REMARK    8  A    between atoms: C_28  and  C_29 
ROOT
HETATM    1  C   UNL     1      -0.983   1.778  -0.314  1.00  0.00     0.001 A 
HETATM    2  C   UNL     1       0.392   1.992  -0.398  1.00  0.00     0.018 A 
HETATM    3  C   UNL     1       1.264   0.939  -0.111  1.00  0.00     0.039 A 
HETATM    4  C   UNL     1       0.789  -0.322   0.255  1.00  0.00     0.073 A 
HETATM    5  N   UNL     1       1.651  -1.393   0.529  1.00  0.00    -0.223 NA
HETATM    6  C   UNL     1       2.927  -1.198   0.449  1.00  0.00     0.178 A 
HETATM    7  N   UNL     1       3.493   0.021   0.097  1.00  0.00    -0.241 N 
HETATM    8  C   UNL     1       2.716   1.096  -0.190  1.00  0.00     0.147 A 
HETATM    9  N   UNL     1       3.313   2.200  -0.508  1.00  0.00    -0.256 NA
HETATM   10  C   UNL     1       4.808   0.424  -0.007  1.00  0.00     0.257 A 
HETATM   11  O   UNL     1       5.829  -0.178   0.284  1.00  0.00    -0.270 OA
HETATM   12  C   UNL     1       4.762   1.858  -0.506  1.00  0.00     0.211 A 
HETATM   13  C   UNL     1      -0.589  -0.522   0.337  1.00  0.00     0.032 A 
HETATM   14  C   UNL     1      -1.473   0.523   0.053  1.00  0.00     0.002 A 
ENDROOT
BRANCH  12  15
HETATM   15  C   UNL     1       5.527   2.786   0.424  1.00  0.00     0.140 C 
BRANCH  15  16
HETATM   16  C   UNL     1       5.714   4.155  -0.191  1.00  0.00     0.220 C 
HETATM   17  N   UNL     1       6.000   5.128   0.743  1.00  0.00    -0.357 N 
HETATM   18  H   UNL     1       6.392   4.838   1.628  1.00  0.00     0.162 HD
HETATM   19  O   UNL     1       5.653   4.377  -1.395  1.00  0.00    -0.274 OA
BRANCH  17  20
HETATM   20  C   UNL     1       6.196   6.500   0.331  1.00  0.00     0.161 C 
BRANCH  20  21
HETATM   21  C   UNL     1       6.065   7.505   1.453  1.00  0.00    -0.038 A 
HETATM   22  C   UNL     1       6.509   8.820   1.219  1.00  0.00     0.048 A 
HETATM   23  C   UNL     1       6.351   9.758   2.218  1.00  0.00     0.105 A 
HETATM   24  C   UNL     1       5.780   9.440   3.426  1.00  0.00     0.105 A 
HETATM   25  O   UNL     1       6.712  11.067   2.143  1.00  0.00    -0.323 OA
HETATM   26  O   UNL     1       5.715  10.506   4.267  1.00  0.00    -0.323 OA
HETATM   27  C   UNL     1       5.326   8.169   3.698  1.00  0.00     0.040 A 
HETATM   28  C   UNL     1       6.282  11.540   3.437  1.00  0.00     0.352 A 
HETATM   29  C   UNL     1       5.458   7.200   2.695  1.00  0.00     0.012 A 
ENDBRANCH  20  21
ENDBRANCH  17  20
ENDBRANCH  15  16
ENDBRANCH  12  15
BRANCH   6  30
HETATM   30  S   UNL     1       3.969  -2.568   0.745  1.00  0.00    -0.082 SA
BRANCH  30  31
HETATM   31  C   UNL     1       3.178  -3.256   2.231  1.00  0.00     0.185 C 
BRANCH  31  32
HETATM   32  C   UNL     1       1.870  -4.011   1.999  1.00  0.00     0.231 C 
HETATM   33  N   UNL     1       1.641  -4.410   0.697  1.00  0.00    -0.327 N 
HETATM   34  H   UNL     1       2.309  -4.059   0.020  1.00  0.00     0.169 HD
HETATM   35  O   UNL     1       1.143  -4.259   2.961  1.00  0.00    -0.272 OA
BRANCH  33  36
HETATM   36  C   UNL     1       0.514  -5.071   0.176  1.00  0.00     0.034 A 
HETATM   37  C   UNL     1      -0.521  -5.590   0.959  1.00  0.00     0.032 A 
HETATM   38  C   UNL     1      -1.617  -6.217   0.356  1.00  0.00     0.044 A 
HETATM   39  C   UNL     1      -1.675  -6.323  -1.027  1.00  0.00     0.116 A 
HETATM   40  F   UNL     1      -2.728  -6.918  -1.602  1.00  0.00    -0.206 F 
HETATM   41  C   UNL     1      -0.656  -5.819  -1.822  1.00  0.00     0.044 A 
HETATM   42  C   UNL     1       0.440  -5.196  -1.220  1.00  0.00     0.032 A 
ENDBRANCH  33  36
ENDBRANCH  31  32
ENDBRANCH  30  31
ENDBRANCH   6  30
TORSDOF 8
