REMARK  6 active torsions:
REMARK  status: ('A' for Active; 'I' for Inactive)
REMARK    1  A    between atoms: C_3  and  C_4 
REMARK    2  A    between atoms: C_4  and  N_5 
REMARK    3  A    between atoms: N_5  and  C_6 
REMARK    4  A    between atoms: C_8  and  N_9 
REMARK    5  A    between atoms: C_11  and  N_12 
REMARK    6  A    between atoms: C_18  and  N_19 
ROOT
HETATM    1  C   UNL     1       0.793   5.028  -0.662  1.00  0.00     0.110 A 
HETATM    2  N   UNL     1       0.035   5.925  -0.016  1.00  0.00    -0.206 NA
HETATM    3  C   UNL     1       0.469   7.186   0.024  1.00  0.00     0.202 A 
HETATM    4  N   UNL     1       1.585   7.626  -0.550  1.00  0.00    -0.199 NA
HETATM    5  C   UNL     1       2.325   6.702  -1.206  1.00  0.00     0.156 A 
HETATM    6  C   UNL     1       1.959   5.375  -1.300  1.00  0.00     0.096 A 
ENDROOT
BRANCH   1   7
HETATM    7  N   UNL     1       0.282   3.725  -0.670  1.00  0.00    -0.273 NA
HETATM    8  H   UNL     1      -0.552   3.820  -0.090  1.00  0.00     0.129 HD
BRANCH   7   9
HETATM    9  C   UNL     1       1.191   2.718  -0.119  1.00  0.00     0.134 C 
BRANCH   9  10
HETATM   10  C   UNL     1       0.589   1.318  -0.036  1.00  0.00    -0.018 A 
HETATM   11  C   UNL     1      -0.809   1.149  -0.183  1.00  0.00     0.011 A 
HETATM   12  C   UNL     1      -1.416  -0.108  -0.157  1.00  0.00     0.001 A 
HETATM   13  C   UNL     1      -0.643  -1.243   0.013  1.00  0.00     0.002 A 
HETATM   14  C   UNL     1       0.737  -1.120   0.159  1.00  0.00     0.030 A 
HETATM   15  C   UNL     1       1.369   0.144   0.150  1.00  0.00     0.047 A 
BRANCH  15  16
HETATM   16  N   UNL     1       2.789   0.145   0.324  1.00  0.00    -0.315 N 
HETATM   17  C   UNL     1       3.594   1.100   0.906  1.00  0.00     0.214 A 
HETATM   18  N   UNL     1       4.869   0.778   0.888  1.00  0.00    -0.254 NA
HETATM   19  C   UNL     1       4.915  -0.455   0.311  1.00  0.00     0.135 A 
HETATM   20  C   UNL     1       3.652  -0.879  -0.024  1.00  0.00     0.117 A 
ENDBRANCH  15  16
ENDBRANCH   9  10
ENDBRANCH   7   9
ENDBRANCH   1   7
BRANCH   3  21
HETATM   21  N   UNL     1      -0.319   8.110   0.676  1.00  0.00    -0.271 NA
HETATM   22  H   UNL     1      -1.278   7.790   0.692  1.00  0.00     0.127 HD
HETATM   23  H   UNL     1      -0.149   9.033   0.302  1.00  0.00     0.127 HD
ENDBRANCH   3  21
BRANCH   5  24
HETATM   24  N   UNL     1       3.539   7.130  -1.818  1.00  0.00    -0.227 N 
HETATM   25  N   UNL     1       4.357   6.276  -2.493  1.00  0.00    -0.179 NA
HETATM   26  C   UNL     1       5.379   7.038  -2.887  1.00  0.00     0.141 A 
HETATM   27  C   UNL     1       5.242   8.377  -2.490  1.00  0.00     0.040 A 
HETATM   28  C   UNL     1       4.051   8.412  -1.806  1.00  0.00     0.122 A 
ENDBRANCH   5  24
TORSDOF 6
