REMARK  5 active torsions:
REMARK  status: ('A' for Active; 'I' for Inactive)
REMARK    1  A    between atoms: C_5  and  C_6 
REMARK    2  A    between atoms: C_14  and  C_15 
REMARK       I    between atoms: C_15  and  N_16 
REMARK    3  A    between atoms: N_16  and  C_17 
REMARK    4  A    between atoms: C_20  and  C_21 
REMARK    5  A    between atoms: C_23  and  N_24 
ROOT
HETATM    1  C   UNL     1       2.587  -2.718  -0.756  1.00  0.00     0.262 C 
HETATM    2  N   UNL     1       2.318  -3.513   0.335  1.00  0.00    -0.301 N 
HETATM    3  O   UNL     1       2.260  -2.989  -1.906  1.00  0.00    -0.267 OA
HETATM    4  H   UNL     1       2.318  -3.122   1.263  1.00  0.00     0.171 HD
ENDROOT
BRANCH   1   5
HETATM    5  C   UNL     1       3.251  -1.452  -0.467  1.00  0.00     0.095 A 
HETATM    6  C   UNL     1       3.920  -1.032   0.670  1.00  0.00     0.093 A 
HETATM    7  C   UNL     1       4.256  -1.616   1.984  1.00  0.00     0.080 C 
HETATM    8  O   UNL     1       4.391   0.228   0.476  1.00  0.00    -0.217 OA
HETATM    9  N   UNL     1       4.076   0.659  -0.790  1.00  0.00    -0.127 NA
HETATM   10  C   UNL     1       3.406  -0.347  -1.369  1.00  0.00     0.117 A 
BRANCH  10  11
HETATM   11  C   UNL     1       2.946  -0.232  -2.745  1.00  0.00     0.056 A 
HETATM   12  C   UNL     1       1.853   0.565  -3.108  1.00  0.00     0.049 A 
HETATM   13 CL   UNL     1       0.956   1.490  -1.952  1.00  0.00    -0.083 Cl
HETATM   14  C   UNL     1       1.427   0.615  -4.443  1.00  0.00     0.025 A 
HETATM   15  C   UNL     1       2.081  -0.136  -5.421  1.00  0.00     0.005 A 
HETATM   16  C   UNL     1       3.168  -0.930  -5.069  1.00  0.00     0.043 A 
HETATM   17  C   UNL     1       3.596  -0.967  -3.743  1.00  0.00     0.130 A 
HETATM   18  F   UNL     1       4.649  -1.742  -3.437  1.00  0.00    -0.205 F 
ENDBRANCH  10  11
ENDBRANCH   1   5
BRANCH   2  19
HETATM   19  C   UNL     1       1.853  -4.805   0.288  1.00  0.00     0.173 A 
HETATM   20  S   UNL     1       1.934  -5.755  -1.126  1.00  0.00    -0.061 SA
HETATM   21  C   UNL     1       1.254  -7.072  -0.275  1.00  0.00     0.085 A 
HETATM   22  C   UNL     1       1.032  -6.714   1.040  1.00  0.00     0.076 A 
HETATM   23  N   UNL     1       1.396  -5.411   1.359  1.00  0.00    -0.223 NA
BRANCH  22  24
HETATM   24  C   UNL     1       0.427  -7.601   2.028  1.00  0.00    -0.004 A 
HETATM   25  C   UNL     1       0.590  -8.992   1.963  1.00  0.00     0.050 A 
HETATM   26  C   UNL     1      -0.039  -9.814   2.911  1.00  0.00     0.103 A 
HETATM   27  C   UNL     1      -0.827  -9.263   3.928  1.00  0.00     0.036 A 
HETATM   28  C   UNL     1      -0.977  -7.879   4.001  1.00  0.00     0.003 A 
HETATM   29  C   UNL     1      -0.351  -7.056   3.060  1.00  0.00     0.014 A 
BRANCH  26  30
HETATM   30  N   UNL     1       0.128 -11.271   2.829  1.00  0.00    -0.116 N 
HETATM   31  O   UNL     1       0.808 -11.721   1.895  1.00  0.00    -0.532 OA
HETATM   32  O   UNL     1      -0.424 -11.964   3.695  1.00  0.00    -0.532 OA
ENDBRANCH  26  30
ENDBRANCH  22  24
ENDBRANCH   2  19
TORSDOF 5
