REMARK  9 active torsions:
REMARK  status: ('A' for Active; 'I' for Inactive)
REMARK    1  A    between atoms: C_2  and  N_3 
REMARK    2  A    between atoms: N_3  and  C_5 
REMARK    3  A    between atoms: N_3  and  C_33 
REMARK    4  A    between atoms: C_5  and  C_6 
REMARK    5  A    between atoms: C_6  and  N_7 
REMARK       I    between atoms: N_7  and  C_8 
REMARK    6  A    between atoms: C_8  and  C_9 
REMARK    7  A    between atoms: N_15  and  C_16 
REMARK    8  A    between atoms: C_16  and  C_17 
REMARK       I    between atoms: C_17  and  N_18 
REMARK    9  A    between atoms: N_18  and  C_19 
ROOT
HETATM    1  C   UNL     1      -2.295  -2.116  -3.015  1.00  0.00     0.081 A 
HETATM    2  S   UNL     1      -3.120  -0.612  -2.971  1.00  0.00    -0.063 SA
HETATM    3  C   UNL     1      -3.976  -1.035  -1.569  1.00  0.00     0.116 A 
HETATM    4  C   UNL     1      -3.658  -2.301  -1.132  1.00  0.00     0.075 A 
HETATM    5  C   UNL     1      -4.271  -2.748   0.114  1.00  0.00     0.262 A 
HETATM    6  O   UNL     1      -4.031  -3.841   0.620  1.00  0.00    -0.267 OA
HETATM    7  N   UNL     1      -5.132  -1.817   0.691  1.00  0.00    -0.299 N 
HETATM    8  C   UNL     1      -5.347  -0.576   0.122  1.00  0.00     0.214 A 
HETATM    9  N   UNL     1      -4.829  -0.157  -0.988  1.00  0.00    -0.235 NA
HETATM   10  C   UNL     1      -2.720  -2.972  -2.003  1.00  0.00    -0.021 A 
HETATM   11  C   UNL     1      -2.210  -4.366  -1.794  1.00  0.00     0.051 C 
ENDROOT
BRANCH   7  12
HETATM   12  C   UNL     1      -5.660  -2.104   2.016  1.00  0.00     0.236 C 
BRANCH  12  13
HETATM   13  C   UNL     1      -4.644  -1.646   3.071  1.00  0.00     0.240 C 
HETATM   14  N   UNL     1      -4.889  -2.185   4.325  1.00  0.00    -0.326 N 
HETATM   15  H   UNL     1      -5.683  -2.808   4.419  1.00  0.00     0.169 HD
HETATM   16  O   UNL     1      -3.765  -0.834   2.794  1.00  0.00    -0.271 OA
BRANCH  14  17
HETATM   17  C   UNL     1      -4.142  -1.972   5.505  1.00  0.00     0.036 A 
HETATM   18  C   UNL     1      -2.975  -1.209   5.568  1.00  0.00     0.053 A 
HETATM   19  C   UNL     1      -2.287  -1.057   6.779  1.00  0.00     0.042 A 
HETATM   20 CL   UNL     1      -0.840  -0.109   6.770  1.00  0.00    -0.084 Cl
HETATM   21  C   UNL     1      -2.756  -1.660   7.954  1.00  0.00    -0.040 A 
HETATM   22  C   UNL     1      -2.035  -1.518   9.265  1.00  0.00     0.050 C 
HETATM   23  C   UNL     1      -3.926  -2.427   7.886  1.00  0.00     0.011 A 
HETATM   24  C   UNL     1      -4.609  -2.582   6.675  1.00  0.00     0.030 A 
ENDBRANCH  14  17
ENDBRANCH  12  13
ENDBRANCH   7  12
BRANCH   1  25
HETATM   25  C   UNL     1      -1.303  -2.350  -4.052  1.00  0.00     0.259 C 
HETATM   26  N   UNL     1      -0.601  -1.229  -4.470  1.00  0.00    -0.355 N 
HETATM   27  H   UNL     1      -0.715  -0.419  -3.866  1.00  0.00     0.162 HD
HETATM   28  O   UNL     1      -1.068  -3.441  -4.565  1.00  0.00    -0.267 OA
BRANCH  26  29
HETATM   29  C   UNL     1       0.657  -1.347  -5.197  1.00  0.00     0.150 C 
BRANCH  29  30
HETATM   30  C   UNL     1       0.561  -2.067  -6.556  1.00  0.00     0.254 C 
BRANCH  30  31
HETATM   31  N   UNL     1      -0.699  -1.666  -7.317  1.00  0.00    -0.070 N 
HETATM   32  H   UNL     1      -1.451  -1.812  -6.627  1.00  0.00     0.279 HD
BRANCH  31  33
HETATM   33  C   UNL     1      -1.010  -2.591  -8.475  1.00  0.00     0.230 C 
HETATM   34  C   UNL     1      -1.627  -3.889  -7.984  1.00  0.00     0.034 C 
ENDBRANCH  31  33
BRANCH  31  35
HETATM   35  C   UNL     1      -0.789  -0.203  -7.691  1.00  0.00     0.230 C 
HETATM   36  C   UNL     1       0.292   0.217  -8.670  1.00  0.00     0.034 C 
ENDBRANCH  31  35
ENDBRANCH  30  31
ENDBRANCH  29  30
ENDBRANCH  26  29
ENDBRANCH   1  25
TORSDOF 9
