REMARK  6 active torsions:
REMARK  status: ('A' for Active; 'I' for Inactive)
REMARK    1  A    between atoms: C_2  and  C_3 
REMARK    2  A    between atoms: C_3  and  C_4 
REMARK    3  A    between atoms: C_4  and  C_5 
REMARK    4  A    between atoms: C_4  and  C_21 
REMARK       I    between atoms: C_5  and  N_6 
REMARK    5  A    between atoms: N_6  and  C_7 
REMARK    6  A    between atoms: C_14  and  C_15 
REMARK       I    between atoms: C_15  and  N_16 
ROOT
HETATM    1  C   UNL     1       3.679  -5.344   0.732  1.00  0.00     0.035 A 
HETATM    2  C   UNL     1       3.038  -6.546   0.402  1.00  0.00     0.046 A 
HETATM    3  C   UNL     1       3.404  -7.736   1.068  1.00  0.00     0.030 A 
HETATM    4  C   UNL     1       4.412  -7.686   2.023  1.00  0.00     0.063 A 
HETATM    5  N   UNL     1       4.552  -8.970   2.469  1.00  0.00    -0.277 N 
HETATM    6  H   UNL     1       5.207  -9.310   3.164  1.00  0.00     0.189 HD
HETATM    7  N   UNL     1       3.701  -9.849   1.915  1.00  0.00    -0.168 NA
HETATM    8  C   UNL     1       2.980  -9.099   1.050  1.00  0.00     0.156 A 
HETATM    9  C   UNL     1       5.071  -6.507   2.375  1.00  0.00     0.034 A 
HETATM   10  C   UNL     1       4.671  -5.335   1.721  1.00  0.00     0.032 A 
ENDROOT
BRANCH   1  11
HETATM   11  N   UNL     1       3.351  -4.104   0.140  1.00  0.00    -0.327 N 
HETATM   12  C   UNL     1       2.641  -3.911  -1.037  1.00  0.00     0.231 C 
HETATM   13  O   UNL     1       2.324  -4.804  -1.820  1.00  0.00    -0.272 OA
HETATM   14  H   UNL     1       3.768  -3.288   0.565  1.00  0.00     0.169 HD
BRANCH  12  15
HETATM   15  C   UNL     1       2.353  -2.421  -1.337  1.00  0.00     0.115 C 
BRANCH  15  16
HETATM   16  C   UNL     1       3.211  -1.939  -2.547  1.00  0.00    -0.001 C 
HETATM   17  C   UNL     1       2.872  -0.498  -2.962  1.00  0.00     0.011 C 
BRANCH  16  18
HETATM   18  C   UNL     1       4.735  -2.075  -2.303  1.00  0.00     0.001 C 
HETATM   19  C   UNL     1       5.306  -1.190  -1.202  1.00  0.00     0.005 C 
ENDBRANCH  16  18
ENDBRANCH  15  16
BRANCH  15  20
HETATM   20  C   UNL     1       0.854  -2.186  -1.525  1.00  0.00    -0.045 A 
HETATM   21  C   UNL     1       0.174  -1.295  -0.678  1.00  0.00     0.008 A 
HETATM   22  C   UNL     1      -1.190  -1.049  -0.849  1.00  0.00     0.001 A 
HETATM   23  C   UNL     1      -1.894  -1.691  -1.865  1.00  0.00     0.000 A 
HETATM   24  C   UNL     1      -1.234  -2.578  -2.712  1.00  0.00     0.001 A 
HETATM   25  C   UNL     1       0.130  -2.821  -2.546  1.00  0.00     0.008 A 
ENDBRANCH  15  20
ENDBRANCH  12  15
ENDBRANCH   1  11
BRANCH   8  26
HETATM   26  C   UNL     1       1.900  -9.693   0.248  1.00  0.00     0.270 C 
HETATM   27  N   UNL     1       1.726 -11.035   0.452  1.00  0.00    -0.365 N 
HETATM   28  H   UNL     1       2.316 -11.502   1.131  1.00  0.00     0.159 HD
HETATM   29  H   UNL     1       0.986 -11.519  -0.030  1.00  0.00     0.159 HD
HETATM   30  O   UNL     1       1.186  -9.073  -0.533  1.00  0.00    -0.266 OA
ENDBRANCH   8  26
TORSDOF 6
