REMARK  4 active torsions:
REMARK  status: ('A' for Active; 'I' for Inactive)
REMARK    1  A    between atoms: N_2  and  C_3 
REMARK    2  A    between atoms: C_5  and  C_6 
REMARK    3  A    between atoms: C_6  and  C_7 
REMARK    4  A    between atoms: C_13  and  O_14 
ROOT
HETATM    1  C   UNL     1       6.839  -4.870   1.167  1.00  0.00     0.113 A 
HETATM    2  N   UNL     1       5.855  -4.077   1.638  1.00  0.00    -0.223 NA
HETATM    3  C   UNL     1       6.112  -2.754   1.810  1.00  0.00     0.106 A 
HETATM    4  N   UNL     1       7.303  -2.192   1.539  1.00  0.00    -0.347 N 
HETATM    5  H   UNL     1       7.456  -1.198   1.735  1.00  0.00     0.167 HD
HETATM    6  C   UNL     1       8.275  -2.971   1.075  1.00  0.00     0.020 A 
HETATM    7  C   UNL     1       8.069  -4.325   0.871  1.00  0.00     0.005 A 
HETATM    8  C   UNL     1       9.319  -4.974   0.371  1.00  0.00     0.044 C 
HETATM    9  C   UNL     1      10.137  -3.751  -0.084  1.00  0.00     0.011 C 
HETATM   10  C   UNL     1       9.678  -2.558   0.771  1.00  0.00     0.058 C 
ENDROOT
BRANCH   3  11
HETATM   11  C   UNL     1       5.022  -1.884   2.365  1.00  0.00     0.085 C 
BRANCH  11  12
HETATM   12  C   UNL     1       5.140  -1.588   3.884  1.00  0.00     0.021 C 
HETATM   13  C   UNL     1       6.561  -1.268   4.349  1.00  0.00     0.181 C 
HETATM   14  O   UNL     1       7.134  -0.279   3.484  1.00  0.00    -0.347 OA
HETATM   15  C   UNL     1       6.379   0.875   3.434  1.00  0.00     0.108 A 
HETATM   16  C   UNL     1       5.016   0.901   3.781  1.00  0.00    -0.021 A 
HETATM   17  C   UNL     1       6.995   2.026   2.936  1.00  0.00     0.102 A 
HETATM   18  C   UNL     1       4.304  -0.349   4.237  1.00  0.00     0.048 C 
HETATM   19  C   UNL     1       4.309   2.107   3.684  1.00  0.00     0.010 A 
HETATM   20  C   UNL     1       4.937   3.256   3.197  1.00  0.00     0.003 A 
HETATM   21  C   UNL     1       6.274   3.212   2.804  1.00  0.00     0.039 A 
BRANCH  17  22
HETATM   22  O   UNL     1       8.291   1.995   2.493  1.00  0.00    -0.353 OA
HETATM   23  C   UNL     1       9.190   2.183   3.589  1.00  0.00     0.210 C 
ENDBRANCH  17  22
ENDBRANCH  11  12
ENDBRANCH   3  11
BRANCH   1  24
HETATM   24  N   UNL     1       6.597  -6.213   0.901  1.00  0.00    -0.281 NA
HETATM   25  C   UNL     1       5.267  -6.707   1.226  1.00  0.00     0.114 C 
HETATM   26  H   UNL     1       7.327  -6.816   1.270  1.00  0.00     0.128 HD
ENDBRANCH   1  24
TORSDOF 4
