REMARK  8 active torsions:
REMARK  status: ('A' for Active; 'I' for Inactive)
REMARK    1  A    between atoms: C_2  and  N_3 
REMARK    2  A    between atoms: N_3  and  C_5 
REMARK    3  A    between atoms: N_3  and  C_29 
REMARK    4  A    between atoms: C_5  and  C_6 
REMARK    5  A    between atoms: C_6  and  N_7 
REMARK       I    between atoms: N_7  and  C_8 
REMARK    6  A    between atoms: C_8  and  C_9 
REMARK    7  A    between atoms: C_9  and  O_10 
REMARK    8  A    between atoms: N_11  and  C_12 
ROOT
HETATM    1  C   UNL     1      -2.365   2.967   0.282  1.00  0.00     0.256 C 
HETATM    2  N   UNL     1      -3.686   3.466  -0.157  1.00  0.00    -0.254 N 
HETATM    3  C   UNL     1      -4.773   3.426   0.711  1.00  0.00     0.330 C 
HETATM    4  O   UNL     1      -5.854   3.983   0.531  1.00  0.00    -0.246 OA
HETATM    5  N   UNL     1      -4.658   2.692   1.849  1.00  0.00    -0.308 N 
HETATM    6  C   UNL     1      -3.528   2.028   2.287  1.00  0.00     0.048 A 
HETATM    7  C   UNL     1      -2.362   2.140   1.551  1.00  0.00     0.034 A 
HETATM    8  C   UNL     1      -3.572   1.292   3.472  1.00  0.00     0.030 A 
HETATM    9  C   UNL     1      -2.421   0.658   3.935  1.00  0.00     0.002 A 
HETATM   10  C   UNL     1      -1.229   0.782   3.226  1.00  0.00     0.001 A 
HETATM   11  C   UNL     1      -1.195   1.529   2.047  1.00  0.00     0.015 A 
HETATM   12  H   UNL     1      -5.492   2.699   2.426  1.00  0.00     0.170 HD
ENDROOT
BRANCH   1  13
HETATM   13  C   UNL     1      -1.789   2.014  -0.878  1.00  0.00     0.279 C 
HETATM   14  N   UNL     1      -2.666   1.046  -1.369  1.00  0.00    -0.355 N 
HETATM   15  H   UNL     1      -3.645   1.239  -1.164  1.00  0.00     0.162 HD
HETATM   16  O   UNL     1      -0.618   2.039  -1.260  1.00  0.00    -0.268 OA
BRANCH  14  17
HETATM   17  C   UNL     1      -2.394   0.396  -2.644  1.00  0.00     0.150 C 
BRANCH  17  18
HETATM   18  C   UNL     1      -1.092  -0.429  -2.771  1.00  0.00     0.254 C 
BRANCH  18  19
HETATM   19  N   UNL     1      -0.979  -1.628  -1.827  1.00  0.00    -0.070 N 
HETATM   20  H   UNL     1      -0.123  -2.104  -2.138  1.00  0.00     0.279 HD
BRANCH  19  21
HETATM   21  C   UNL     1      -2.096  -2.643  -1.932  1.00  0.00     0.230 C 
HETATM   22  C   UNL     1      -2.131  -3.275  -3.312  1.00  0.00     0.034 C 
ENDBRANCH  19  21
BRANCH  19  23
HETATM   23  C   UNL     1      -0.693  -1.208  -0.396  1.00  0.00     0.230 C 
HETATM   24  C   UNL     1       0.085  -2.289   0.336  1.00  0.00     0.034 C 
ENDBRANCH  19  23
ENDBRANCH  18  19
ENDBRANCH  17  18
ENDBRANCH  14  17
ENDBRANCH   1  13
BRANCH   1  25
HETATM   25  O   UNL     1      -1.562   4.091   0.587  1.00  0.00    -0.359 OA
HETATM   26  H   UNL     1      -2.133   4.865   0.446  1.00  0.00     0.213 HD
ENDBRANCH   1  25
BRANCH   2  27
HETATM   27  C   UNL     1      -3.818   4.070  -1.480  1.00  0.00     0.043 A 
HETATM   28  C   UNL     1      -2.707   4.553  -2.198  1.00  0.00     0.031 A 
HETATM   29  C   UNL     1      -2.836   5.077  -3.493  1.00  0.00     0.026 A 
HETATM   30  C   UNL     1      -4.083   5.128  -4.102  1.00  0.00     0.034 A 
HETATM   31 CL   UNL     1      -4.238   5.749  -5.695  1.00  0.00    -0.084 Cl
HETATM   32  C   UNL     1      -5.199   4.661  -3.423  1.00  0.00     0.026 A 
HETATM   33  C   UNL     1      -5.064   4.136  -2.130  1.00  0.00     0.031 A 
ENDBRANCH   2  27
TORSDOF 8
