REMARK  4 active torsions:
REMARK  status: ('A' for Active; 'I' for Inactive)
REMARK    1  A    between atoms: O_2  and  C_3 
REMARK    2  A    between atoms: C_7  and  N_8 
REMARK       I    between atoms: N_8  and  C_9 
REMARK    3  A    between atoms: C_9  and  C_10 
REMARK    4  A    between atoms: C_12  and  C_13 
ROOT
HETATM    1  N   UNL     1       4.982   4.498   1.934  1.00  0.00    -0.320 N 
HETATM    2  C   UNL     1       4.537   5.805   1.864  1.00  0.00     0.256 C 
HETATM    3  O   UNL     1       5.175   6.796   2.202  1.00  0.00    -0.267 OA
HETATM    4  H   UNL     1       4.329   3.752   1.725  1.00  0.00     0.169 HD
ENDROOT
BRANCH   2   5
HETATM    5  C   UNL     1       3.150   6.001   1.337  1.00  0.00     0.033 A 
HETATM    6  C   UNL     1       2.527   5.080   0.479  1.00  0.00     0.029 A 
HETATM    7  C   UNL     1       1.230   5.313  -0.007  1.00  0.00    -0.023 A 
HETATM    8  C   UNL     1       0.575   6.498   0.361  1.00  0.00     0.012 A 
HETATM    9  C   UNL     1       1.195   7.426   1.199  1.00  0.00     0.002 A 
HETATM   10  C   UNL     1       2.477   7.179   1.685  1.00  0.00     0.017 A 
BRANCH   7  11
HETATM   11  C   UNL     1       0.595   4.337  -0.886  1.00  0.00    -0.002 A 
HETATM   12  C   UNL     1      -0.770   4.205  -1.058  1.00  0.00     0.153 A 
HETATM   13  O   UNL     1      -1.057   3.199  -1.924  1.00  0.00    -0.334 OA
HETATM   14  C   UNL     1       0.126   2.668  -2.317  1.00  0.00     0.142 A 
HETATM   15  C   UNL     1       1.170   3.326  -1.709  1.00  0.00     0.038 A 
ENDBRANCH   7  11
ENDBRANCH   2   5
BRANCH   1  16
HETATM   16  C   UNL     1       6.274   4.052   2.297  1.00  0.00     0.077 A 
HETATM   17  C   UNL     1       7.322   4.886   2.679  1.00  0.00     0.077 A 
HETATM   18  C   UNL     1       8.573   4.344   2.989  1.00  0.00     0.152 A 
HETATM   19  C   UNL     1       8.807   2.967   2.919  1.00  0.00     0.109 A 
HETATM   20  F   UNL     1       9.540   5.196   3.358  1.00  0.00    -0.203 F 
HETATM   21  C   UNL     1       7.754   2.129   2.548  1.00  0.00     0.084 A 
HETATM   22  C   UNL     1       6.509   2.673   2.244  1.00  0.00     0.145 A 
HETATM   23  F   UNL     1       5.514   1.850   1.873  1.00  0.00    -0.204 F 
BRANCH  19  24
HETATM   24  O   UNL     1       9.979   2.310   3.177  1.00  0.00    -0.353 OA
HETATM   25  C   UNL     1      11.124   3.112   3.448  1.00  0.00     0.210 C 
ENDBRANCH  19  24
ENDBRANCH   1  16
TORSDOF 4
