REMARK  3 active torsions:
REMARK  status: ('A' for Active; 'I' for Inactive)
REMARK    1  A    between atoms: C_7  and  N_8 
REMARK    2  A    between atoms: N_8  and  C_9 
REMARK    3  A    between atoms: C_9  and  C_10 
ROOT
HETATM    1  C   UNL     1       1.804   5.118  -0.050  1.00  0.00    -0.041 A 
HETATM    2  C   UNL     1       0.981   5.568  -1.092  1.00  0.00     0.035 A 
HETATM    3  C   UNL     1       0.581   6.907  -1.151  1.00  0.00     0.070 A 
HETATM    4 CL   UNL     1      -0.450   7.396  -2.448  1.00  0.00    -0.081 Cl
HETATM    5  C   UNL     1       1.026   7.822  -0.191  1.00  0.00     0.123 A 
HETATM    6  C   UNL     1       1.859   7.379   0.841  1.00  0.00     0.104 A 
HETATM    7  O   UNL     1       2.270   8.190   1.865  1.00  0.00    -0.348 OA
HETATM    8  C   UNL     1       3.103   9.256   1.405  1.00  0.00     0.178 C 
HETATM    9  C   UNL     1       2.290  10.424   0.866  1.00  0.00     0.053 C 
HETATM   10  C   UNL     1       1.596  10.058  -0.437  1.00  0.00     0.178 C 
HETATM   11  O   UNL     1       0.552   9.108  -0.227  1.00  0.00    -0.346 OA
HETATM   12  C   UNL     1       2.235   6.036   0.919  1.00  0.00     0.048 A 
ENDROOT
BRANCH   1  13
HETATM   13  C   UNL     1       2.248   3.675   0.015  1.00  0.00     0.132 C 
BRANCH  13  14
HETATM   14  N   UNL     1       3.619   3.591  -0.455  1.00  0.00    -0.272 NA
HETATM   15  H   UNL     1       3.827   4.173  -1.257  1.00  0.00     0.129 HD
BRANCH  14  16
HETATM   16  C   UNL     1       4.136   2.302  -0.583  1.00  0.00     0.117 A 
HETATM   17  C   UNL     1       5.287   2.039  -1.356  1.00  0.00     0.040 A 
HETATM   18  C   UNL     1       6.167   2.880  -2.124  1.00  0.00     0.025 A 
HETATM   19  C   UNL     1       5.700   0.717  -1.415  1.00  0.00     0.112 A 
HETATM   20  C   UNL     1       7.183   2.173  -2.728  1.00  0.00     0.053 A 
HETATM   21  S   UNL     1       7.090   0.502  -2.379  1.00  0.00    -0.081 SA
HETATM   22  N   UNL     1       5.119  -0.329  -0.806  1.00  0.00    -0.234 NA
HETATM   23  C   UNL     1       4.053   0.034  -0.090  1.00  0.00     0.236 A 
HETATM   24  N   UNL     1       3.540   1.267   0.051  1.00  0.00    -0.229 NA
ENDBRANCH  14  16
ENDBRANCH  13  14
ENDBRANCH   1  13
TORSDOF 3
