REMARK  8 active torsions:
REMARK  status: ('A' for Active; 'I' for Inactive)
REMARK    1  A    between atoms: O_2  and  C_3 
REMARK    2  A    between atoms: C_4  and  N_5 
REMARK    3  A    between atoms: N_5  and  C_6 
REMARK    4  A    between atoms: C_6  and  N_7 
REMARK    5  A    between atoms: N_7  and  N_8 
REMARK       I    between atoms: N_8  and  C_9 
REMARK    6  A    between atoms: C_9  and  C_10 
REMARK    7  A    between atoms: N_13  and  C_15 
REMARK    8  A    between atoms: C_15  and  C_16 
ROOT
HETATM    1  N   UNL     1       6.026   1.088  -4.836  1.00  0.00    -0.268 N 
HETATM    2  C   UNL     1       5.078   1.985  -5.280  1.00  0.00     0.240 C 
HETATM    3  O   UNL     1       3.874   1.829  -5.089  1.00  0.00    -0.271 OA
HETATM    4  H   UNL     1       7.013   1.308  -4.746  1.00  0.00     0.190 HD
ENDROOT
BRANCH   1   5
HETATM    5  N   UNL     1       5.582  -0.063  -4.144  1.00  0.00    -0.274 N 
HETATM    6  H   UNL     1       5.033   0.145  -3.309  1.00  0.00     0.189 HD
BRANCH   5   7
HETATM    7  C   UNL     1       5.127  -1.174  -4.830  1.00  0.00     0.191 C 
HETATM    8  S   UNL     1       5.245  -1.423  -6.485  1.00  0.00    -0.039 SA
BRANCH   7   9
HETATM    9  N   UNL     1       4.478  -2.119  -4.088  1.00  0.00    -0.330 N 
HETATM   10  H   UNL     1       3.871  -2.742  -4.617  1.00  0.00     0.168 HD
BRANCH   9  11
HETATM   11  C   UNL     1       4.541  -2.438  -2.713  1.00  0.00     0.068 A 
HETATM   12  C   UNL     1       3.528  -3.277  -2.200  1.00  0.00     0.095 A 
HETATM   13  C   UNL     1       3.575  -3.679  -0.863  1.00  0.00     0.039 A 
HETATM   14  C   UNL     1       4.620  -3.257  -0.040  1.00  0.00     0.003 A 
HETATM   15  C   UNL     1       5.626  -2.440  -0.549  1.00  0.00     0.002 A 
HETATM   16  C   UNL     1       5.590  -2.033  -1.883  1.00  0.00     0.032 A 
BRANCH  12  17
HETATM   17  O   UNL     1       2.551  -3.643  -3.096  1.00  0.00    -0.354 OA
HETATM   18  C   UNL     1       1.384  -4.254  -2.555  1.00  0.00     0.210 C 
ENDBRANCH  12  17
ENDBRANCH   9  11
ENDBRANCH   7   9
ENDBRANCH   5   7
ENDBRANCH   1   5
BRANCH   2  19
HETATM   19  C   UNL     1       5.610   3.205  -6.041  1.00  0.00     0.082 C 
HETATM   20  C   UNL     1       4.452   3.893  -6.781  1.00  0.00     0.042 C 
HETATM   21  C   UNL     1       3.878   3.001  -7.881  1.00  0.00     0.236 C 
HETATM   22  N   UNL     1       4.968   2.602  -8.855  1.00  0.00    -0.067 N 
HETATM   23  H   UNL     1       5.235   3.450  -9.368  1.00  0.00     0.280 HD
HETATM   24  C   UNL     1       6.199   2.024  -8.207  1.00  0.00     0.236 C 
HETATM   25  C   UNL     1       6.701   2.894  -7.066  1.00  0.00     0.042 C 
BRANCH  22  26
HETATM   26  C   UNL     1       4.456   1.615  -9.899  1.00  0.00     0.273 C 
BRANCH  26  27
HETATM   27  C   UNL     1       3.314   2.130 -10.729  1.00  0.00    -0.033 A 
HETATM   28  C   UNL     1       3.529   3.083 -11.734  1.00  0.00     0.009 A 
HETATM   29  C   UNL     1       2.458   3.555 -12.496  1.00  0.00     0.001 A 
HETATM   30  C   UNL     1       1.169   3.083 -12.258  1.00  0.00     0.000 A 
HETATM   31  C   UNL     1       0.945   2.137 -11.262  1.00  0.00     0.001 A 
HETATM   32  C   UNL     1       2.010   1.661 -10.499  1.00  0.00     0.009 A 
ENDBRANCH  26  27
ENDBRANCH  22  26
ENDBRANCH   2  19
TORSDOF 8
