REMARK  12 active torsions:
REMARK  status: ('A' for Active; 'I' for Inactive)
REMARK    1  A    between atoms: C_2  and  C_3 
REMARK    2  A    between atoms: C_3  and  N_4 
REMARK    3  A    between atoms: C_3  and  C_25 
REMARK    4  A    between atoms: N_4  and  C_6 
REMARK    5  A    between atoms: N_4  and  C_21 
REMARK    6  A    between atoms: C_6  and  C_7 
REMARK    7  A    between atoms: C_8  and  O_9 
REMARK    8  A    between atoms: C_21  and  C_22 
REMARK    9  A    between atoms: C_22  and  C_23 
REMARK   10  A    between atoms: C_23  and  O_24 
REMARK   11  A    between atoms: N_26  and  C_27 
REMARK   12  A    between atoms: C_27  and  C_28 
ROOT
HETATM    1  N   UNL     1       4.354  -0.876  -0.479  1.00  0.00    -0.055 N 
HETATM    2  H   UNL     1       4.598  -0.530   0.453  1.00  0.00     0.281 HD
ENDROOT
BRANCH   1   3
HETATM    3  C   UNL     1       2.819  -1.037  -0.451  1.00  0.00     0.263 C 
BRANCH   3   4
HETATM    4  C   UNL     1       2.264  -1.665   0.868  1.00  0.00     0.016 C 
HETATM    5  C   UNL     1       2.818  -0.995   2.132  1.00  0.00     0.012 C 
HETATM    6  C   UNL     1       2.359  -3.187   1.015  1.00  0.00     0.012 C 
ENDBRANCH   3   4
BRANCH   3   7
HETATM    7  C   UNL     1       2.169  -1.610  -1.669  1.00  0.00     0.168 A 
HETATM    8  N   UNL     1       1.095  -1.075  -2.343  1.00  0.00    -0.257 N 
HETATM    9  N   UNL     1       0.743  -1.891  -3.349  1.00  0.00    -0.003 NA
HETATM   10  N   UNL     1       1.589  -2.904  -3.296  1.00  0.00     0.018 NA
HETATM   11  N   UNL     1       2.464  -2.749  -2.261  1.00  0.00    -0.145 NA
BRANCH   8  12
HETATM   12  C   UNL     1       0.353   0.154  -2.130  1.00  0.00     0.186 C 
BRANCH  12  13
HETATM   13  C   UNL     1       1.056   1.367  -2.697  1.00  0.00    -0.039 A 
HETATM   14  C   UNL     1       1.714   1.333  -3.939  1.00  0.00     0.009 A 
HETATM   15  C   UNL     1       2.283   2.488  -4.477  1.00  0.00     0.001 A 
HETATM   16  C   UNL     1       2.188   3.697  -3.795  1.00  0.00     0.000 A 
HETATM   17  C   UNL     1       1.521   3.754  -2.573  1.00  0.00     0.001 A 
HETATM   18  C   UNL     1       0.953   2.599  -2.030  1.00  0.00     0.009 A 
ENDBRANCH  12  13
ENDBRANCH   8  12
ENDBRANCH   3   7
ENDBRANCH   1   3
BRANCH   1  19
HETATM   19  C   UNL     1       5.237  -2.130  -0.566  1.00  0.00     0.278 C 
BRANCH  19  20
HETATM   20  C   UNL     1       5.286  -2.955  -1.813  1.00  0.00     0.021 A 
HETATM   21  C   UNL     1       5.021  -4.316  -1.768  1.00  0.00     0.170 A 
HETATM   22  N   UNL     1       5.037  -5.169  -2.802  1.00  0.00    -0.224 NA
HETATM   23  C   UNL     1       5.332  -4.670  -4.011  1.00  0.00     0.072 A 
HETATM   24  C   UNL     1       5.671  -3.300  -4.192  1.00  0.00    -0.004 A 
HETATM   25  C   UNL     1       5.316  -5.511  -5.117  1.00  0.00     0.072 A 
HETATM   26  C   UNL     1       5.662  -2.462  -3.065  1.00  0.00     0.027 A 
HETATM   27  C   UNL     1       5.998  -2.802  -5.465  1.00  0.00     0.053 A 
HETATM   28  C   UNL     1       5.961  -3.676  -6.527  1.00  0.00     0.106 A 
HETATM   29  C   UNL     1       5.627  -4.995  -6.357  1.00  0.00     0.107 A 
HETATM   30  O   UNL     1       6.231  -3.367  -7.821  1.00  0.00    -0.323 OA
HETATM   31  O   UNL     1       5.644  -5.687  -7.527  1.00  0.00    -0.323 OA
HETATM   32  C   UNL     1       6.014  -4.647  -8.457  1.00  0.00     0.352 A 
BRANCH  21  33
HETATM   33  O   UNL     1       4.714  -4.928  -0.598  1.00  0.00    -0.344 OA
HETATM   34  H   UNL     1       4.567  -5.839  -0.927  1.00  0.00     0.219 HD
ENDBRANCH  21  33
ENDBRANCH  19  20
ENDBRANCH   1  19
BRANCH   1  35
HETATM   35  C   UNL     1       4.835   0.233  -1.407  1.00  0.00     0.238 C 
BRANCH  35  36
HETATM   36  C   UNL     1       4.594   1.612  -0.790  1.00  0.00     0.054 C 
BRANCH  36  37
HETATM   37  C   UNL     1       5.263   2.699  -1.621  1.00  0.00     0.165 C 
BRANCH  37  38
HETATM   38  O   UNL     1       6.658   2.440  -1.647  1.00  0.00    -0.401 OA
HETATM   39  H   UNL     1       7.090   3.214  -2.058  1.00  0.00     0.209 HD
ENDBRANCH  37  38
ENDBRANCH  36  37
ENDBRANCH  35  36
ENDBRANCH   1  35
TORSDOF 12
