REMARK  5 active torsions:
REMARK  status: ('A' for Active; 'I' for Inactive)
REMARK    1  A    between atoms: C_8  and  C_9 
REMARK    2  A    between atoms: C_9  and  N_10 
REMARK    3  A    between atoms: N_10  and  C_13 
REMARK    4  A    between atoms: C_16  and  O_17 
REMARK    5  A    between atoms: O_17  and  C_18 
ROOT
HETATM    1  C   UNL     1       5.551  -8.489  -0.233  1.00  0.00     0.164 A 
HETATM    2  N   UNL     1       4.861  -9.386  -0.967  1.00  0.00    -0.236 NA
HETATM    3  C   UNL     1       5.539 -10.484  -1.387  1.00  0.00     0.142 A 
HETATM    4  C   UNL     1       6.878 -10.718  -1.112  1.00  0.00     0.062 A 
HETATM    5  C   UNL     1       7.521 -11.899  -1.591  1.00  0.00     0.101 C 
HETATM    6  N   UNL     1       8.041 -12.858  -1.986  1.00  0.00    -0.191 NA
HETATM    7  C   UNL     1       7.566  -9.765  -0.362  1.00  0.00     0.028 A 
HETATM    8  C   UNL     1       6.894  -8.625   0.079  1.00  0.00     0.059 A 
ENDROOT
BRANCH   1   9
HETATM    9  O   UNL     1       4.922  -7.335   0.196  1.00  0.00    -0.329 OA
BRANCH   9  10
HETATM   10  C   UNL     1       3.493  -7.454   0.272  1.00  0.00     0.130 C 
HETATM   11  C   UNL     1       3.027  -6.540   1.417  1.00  0.00     0.034 C 
HETATM   12  C   UNL     1       3.232  -5.054   1.110  1.00  0.00     0.035 C 
HETATM   13  C   UNL     1       2.563  -4.668  -0.211  1.00  0.00     0.186 C 
HETATM   14  C   UNL     1       3.074  -5.536  -1.358  1.00  0.00     0.035 C 
HETATM   15  C   UNL     1       2.848  -7.019  -1.053  1.00  0.00     0.034 C 
BRANCH  13  16
HETATM   16  N   UNL     1       2.835  -3.220  -0.473  1.00  0.00    -0.067 N 
HETATM   17  H   UNL     1       3.844  -3.034  -0.536  1.00  0.00     0.277 HD
HETATM   18  H   UNL     1       2.503  -2.679   0.340  1.00  0.00     0.277 HD
BRANCH  16  19
HETATM   19  C   UNL     1       2.155  -2.627  -1.667  1.00  0.00     0.274 C 
BRANCH  19  20
HETATM   20  C   UNL     1       2.151  -1.131  -1.635  1.00  0.00     0.004 A 
HETATM   21  C   UNL     1       1.549  -0.441  -0.594  1.00  0.00     0.113 A 
HETATM   22  C   UNL     1       1.483   0.932  -0.561  1.00  0.00     0.105 A 
HETATM   23  O   UNL     1       0.977  -1.012   0.505  1.00  0.00    -0.322 OA
HETATM   24  C   UNL     1       2.023   1.705  -1.564  1.00  0.00     0.040 A 
HETATM   25  O   UNL     1       0.846   1.395   0.544  1.00  0.00    -0.323 OA
HETATM   26  C   UNL     1       2.642   1.047  -2.629  1.00  0.00     0.003 A 
HETATM   27  C   UNL     1       2.704  -0.359  -2.669  1.00  0.00     0.012 A 
HETATM   28  C   UNL     1       0.457   0.165   1.181  1.00  0.00     0.352 A 
ENDBRANCH  19  20
ENDBRANCH  16  19
ENDBRANCH  13  16
ENDBRANCH   9  10
ENDBRANCH   1   9
TORSDOF 5
