REMARK  5 active torsions:
REMARK  status: ('A' for Active; 'I' for Inactive)
REMARK    1  A    between atoms: C_4  and  N_5 
REMARK    2  A    between atoms: C_9  and  C_10 
REMARK    3  A    between atoms: C_13  and  O_14 
REMARK    4  A    between atoms: C_17  and  C_18 
REMARK       I    between atoms: C_18  and  N_19 
REMARK    5  A    between atoms: N_19  and  C_20 
ROOT
HETATM    1  N   UNL     1       5.245   2.668  -0.136  1.00  0.00    -0.292 N 
HETATM    2  C   UNL     1       4.705   3.951   0.109  1.00  0.00     0.179 C 
HETATM    3  S   UNL     1       3.180   4.345   0.703  1.00  0.00    -0.040 SA
HETATM    4  N   UNL     1       5.526   5.016  -0.115  1.00  0.00    -0.354 N 
HETATM    5  C   UNL     1       6.800   4.983  -0.790  1.00  0.00     0.158 C 
HETATM    6  C   UNL     1       7.346   3.593  -0.798  1.00  0.00     0.060 C 
HETATM    7  C   UNL     1       6.602   2.500  -0.514  1.00  0.00     0.030 C 
HETATM    8  C   UNL     1       7.165   1.093  -0.566  1.00  0.00     0.070 C 
HETATM    9  H   UNL     1       5.112   5.925   0.052  1.00  0.00     0.163 HD
ENDROOT
BRANCH   6  10
HETATM   10  C   UNL     1       8.830   3.562  -0.950  1.00  0.00     0.257 C 
HETATM   11  N   UNL     1       9.281   2.847  -2.031  1.00  0.00    -0.306 N 
HETATM   12  H   UNL     1       8.617   2.477  -2.694  1.00  0.00     0.170 HD
HETATM   13  O   UNL     1       9.505   4.187  -0.139  1.00  0.00    -0.267 OA
BRANCH  11  14
HETATM   14  C   UNL     1      10.595   2.433  -2.167  1.00  0.00     0.160 A 
HETATM   15  N   UNL     1      11.606   2.767  -1.358  1.00  0.00    -0.110 NA
HETATM   16  O   UNL     1      12.706   2.060  -1.791  1.00  0.00    -0.216 OA
HETATM   17  C   UNL     1      12.359   1.294  -2.857  1.00  0.00     0.078 A 
HETATM   18  C   UNL     1      13.412   0.422  -3.403  1.00  0.00     0.079 C 
HETATM   19  C   UNL     1      11.039   1.522  -3.159  1.00  0.00     0.087 A 
ENDBRANCH  11  14
ENDBRANCH   6  10
BRANCH   5  20
HETATM   20  C   UNL     1       6.672   5.568  -2.191  1.00  0.00    -0.031 A 
HETATM   21  C   UNL     1       7.565   6.567  -2.617  1.00  0.00     0.012 A 
HETATM   22  C   UNL     1       7.456   7.127  -3.894  1.00  0.00     0.037 A 
HETATM   23  C   UNL     1       6.457   6.684  -4.753  1.00  0.00     0.065 A 
HETATM   24  C   UNL     1       5.573   5.687  -4.362  1.00  0.00     0.037 A 
HETATM   25  C   UNL     1       5.680   5.129  -3.087  1.00  0.00     0.012 A 
BRANCH  23  26
HETATM   26  O   UNL     1       6.308   7.208  -6.003  1.00  0.00    -0.361 OA
HETATM   27  H   UNL     1       6.944   7.934  -6.112  1.00  0.00     0.217 HD
ENDBRANCH  23  26
ENDBRANCH   5  20
BRANCH   1  28
HETATM   28  C   UNL     1       4.395   1.532   0.103  1.00  0.00     0.048 A 
HETATM   29  C   UNL     1       3.383   1.265  -0.839  1.00  0.00     0.037 A 
HETATM   30  C   UNL     1       2.504   0.190  -0.669  1.00  0.00    -0.060 A 
HETATM   31  C   UNL     1       1.412  -0.061  -1.666  1.00  0.00     0.048 C 
HETATM   32  C   UNL     1       2.682  -0.661   0.423  1.00  0.00     0.007 A 
HETATM   33  C   UNL     1       3.684  -0.405   1.363  1.00  0.00     0.009 A 
HETATM   34  C   UNL     1       4.533   0.706   1.235  1.00  0.00    -0.035 A 
HETATM   35  C   UNL     1       5.533   0.952   2.330  1.00  0.00     0.050 C 
ENDBRANCH   1  28
TORSDOF 5
