REMARK  2 active torsions:
REMARK  status: ('A' for Active; 'I' for Inactive)
REMARK    1  A    between atoms: C_2  and  N_3 
REMARK    2  A    between atoms: N_3  and  C_4 
ROOT
HETATM    1  C   UNL     1      -5.210   0.042  -0.861  1.00  0.00     0.143 A 
HETATM    2  N   UNL     1      -5.224  -1.292  -1.110  1.00  0.00    -0.223 NA
HETATM    3  C   UNL     1      -6.372  -1.901  -1.425  1.00  0.00     0.236 A 
HETATM    4  N   UNL     1      -7.574  -1.345  -1.532  1.00  0.00    -0.234 NA
HETATM    5  C   UNL     1      -7.551  -0.027  -1.283  1.00  0.00     0.114 A 
HETATM    6  C   UNL     1      -6.442   0.747  -0.953  1.00  0.00     0.053 A 
HETATM    7  S   UNL     1      -9.000   0.863  -1.354  1.00  0.00    -0.073 SA
HETATM    8  C   UNL     1      -8.208   2.299  -0.929  1.00  0.00    -0.008 A 
HETATM    9  C   UNL     1      -6.841   2.135  -0.768  1.00  0.00    -0.028 A 
HETATM   10  C   UNL     1      -5.969   3.301  -0.386  1.00  0.00     0.041 C 
HETATM   11  C   UNL     1      -6.688   4.655  -0.507  1.00  0.00     0.005 C 
HETATM   12  C   UNL     1      -8.126   4.597   0.016  1.00  0.00     0.005 C 
HETATM   13  C   UNL     1      -8.960   3.586  -0.780  1.00  0.00     0.047 C 
ENDROOT
BRANCH   1  14
HETATM   14  N   UNL     1      -3.995   0.677  -0.564  1.00  0.00    -0.340 N 
HETATM   15  H   UNL     1      -4.042   1.681  -0.551  1.00  0.00     0.167 HD
BRANCH  14  16
HETATM   16  C   UNL     1      -2.708   0.166  -0.317  1.00  0.00     0.036 A 
HETATM   17  C   UNL     1      -2.463  -1.159   0.062  1.00  0.00     0.032 A 
HETATM   18  C   UNL     1      -1.160  -1.627   0.262  1.00  0.00     0.042 A 
HETATM   19  C   UNL     1      -0.075  -0.786   0.036  1.00  0.00     0.102 A 
HETATM   20  C   UNL     1      -0.295   0.533  -0.356  1.00  0.00     0.104 A 
HETATM   21  O   UNL     1       1.167  -1.289   0.309  1.00  0.00    -0.348 OA
HETATM   22  C   UNL     1      -1.601   1.007  -0.513  1.00  0.00     0.069 A 
HETATM   23  O   UNL     1       0.713   1.444  -0.520  1.00  0.00    -0.348 OA
HETATM   24  C   UNL     1       1.606   1.069  -1.569  1.00  0.00     0.178 C 
HETATM   25  C   UNL     1       2.641   0.054  -1.106  1.00  0.00     0.053 C 
HETATM   26  C   UNL     1       2.003  -1.303  -0.848  1.00  0.00     0.178 C 
ENDBRANCH  14  16
ENDBRANCH   1  14
TORSDOF 2
