REMARK  14 active torsions:
REMARK  status: ('A' for Active; 'I' for Inactive)
REMARK    1  A    between atoms: C_2  and  N_3 
REMARK    2  A    between atoms: N_3  and  C_5 
REMARK    3  A    between atoms: N_3  and  C_39 
REMARK    4  A    between atoms: C_5  and  C_6 
REMARK    5  A    between atoms: C_6  and  C_7 
REMARK    6  A    between atoms: C_7  and  N_8 
REMARK    7  A    between atoms: C_11  and  O_12 
REMARK    8  A    between atoms: C_13  and  C_14 
REMARK    9  A    between atoms: C_14  and  C_15 
REMARK   10  A    between atoms: C_18  and  O_19 
REMARK   11  A    between atoms: O_19  and  C_20 
REMARK   12  A    between atoms: C_20  and  C_21 
REMARK   13  A    between atoms: C_31  and  C_32 
REMARK   14  A    between atoms: C_35  and  O_36 
ROOT
HETATM    1  N   UNL     1      -1.341   3.593  -0.060  1.00  0.00    -0.333 N 
HETATM    2  C   UNL     1      -1.901   4.809   0.283  1.00  0.00     0.278 C 
HETATM    3  O   UNL     1      -1.340   5.837   0.613  1.00  0.00    -0.265 OA
HETATM    4  C   UNL     1      -3.362   4.696   0.078  1.00  0.00     0.146 C 
HETATM    5  C   UNL     1      -3.607   3.442  -0.319  1.00  0.00     0.059 C 
HETATM    6  C   UNL     1      -2.379   2.580  -0.214  1.00  0.00     0.161 C 
ENDROOT
BRANCH   5   7
HETATM    7  C   UNL     1      -4.826   2.824  -0.888  1.00  0.00     0.193 C 
HETATM    8  O   UNL     1      -4.873   1.600  -1.005  1.00  0.00    -0.287 OA
BRANCH   7   9
HETATM    9  C   UNL     1      -5.935   3.625  -1.462  1.00  0.00     0.015 A 
HETATM   10  C   UNL     1      -5.721   4.810  -2.174  1.00  0.00     0.018 A 
HETATM   11  C   UNL     1      -6.791   5.480  -2.781  1.00  0.00     0.038 A 
HETATM   12  C   UNL     1      -8.078   4.946  -2.725  1.00  0.00     0.069 A 
HETATM   13  C   UNL     1      -8.289   3.751  -2.034  1.00  0.00     0.038 A 
HETATM   14  C   UNL     1      -7.227   3.091  -1.407  1.00  0.00     0.018 A 
BRANCH  12  15
HETATM   15  O   UNL     1      -9.193   5.469  -3.319  1.00  0.00    -0.347 OA
BRANCH  15  16
HETATM   16  C   UNL     1      -9.042   6.697  -4.030  1.00  0.00     0.214 C 
BRANCH  16  17
HETATM   17  C   UNL     1     -10.289   6.968  -4.836  1.00  0.00    -0.034 A 
HETATM   18  C   UNL     1     -10.988   8.174  -4.700  1.00  0.00     0.010 A 
HETATM   19  C   UNL     1     -12.103   8.442  -5.498  1.00  0.00     0.007 A 
HETATM   20  C   UNL     1     -12.541   7.509  -6.444  1.00  0.00    -0.062 A 
HETATM   21  C   UNL     1     -13.716   7.801  -7.329  1.00  0.00     0.048 C 
HETATM   22  C   UNL     1     -11.844   6.304  -6.583  1.00  0.00     0.007 A 
HETATM   23  C   UNL     1     -10.730   6.035  -5.785  1.00  0.00     0.010 A 
ENDBRANCH  16  17
ENDBRANCH  15  16
ENDBRANCH  12  15
ENDBRANCH   7   9
ENDBRANCH   5   7
BRANCH   4  24
HETATM   24  O   UNL     1      -4.204   5.759   0.186  1.00  0.00    -0.355 OA
HETATM   25  H   UNL     1      -3.669   6.498   0.545  1.00  0.00     0.218 HD
ENDBRANCH   4  24
BRANCH   6  26
HETATM   26  C   UNL     1      -2.397   1.567   0.920  1.00  0.00    -0.030 A 
HETATM   27  C   UNL     1      -2.524   0.198   0.621  1.00  0.00     0.012 A 
HETATM   28  C   UNL     1      -2.536  -0.763   1.635  1.00  0.00     0.037 A 
HETATM   29  C   UNL     1      -2.424  -0.359   2.959  1.00  0.00     0.065 A 
HETATM   30  C   UNL     1      -2.311   0.986   3.283  1.00  0.00     0.037 A 
HETATM   31  C   UNL     1      -2.306   1.948   2.270  1.00  0.00     0.012 A 
BRANCH  29  32
HETATM   32  O   UNL     1      -2.430  -1.258   3.982  1.00  0.00    -0.361 OA
HETATM   33  H   UNL     1      -2.645  -2.138   3.631  1.00  0.00     0.217 HD
ENDBRANCH  29  32
ENDBRANCH   6  26
BRANCH   1  34
HETATM   34  C   UNL     1       0.076   3.309   0.115  1.00  0.00     0.129 C 
BRANCH  34  35
HETATM   35  C   UNL     1       0.663   2.346  -0.919  1.00  0.00     0.048 C 
BRANCH  35  36
HETATM   36  C   UNL     1       0.477   2.855  -2.346  1.00  0.00     0.236 C 
BRANCH  36  37
HETATM   37  N   UNL     1       1.211   1.998  -3.372  1.00  0.00    -0.072 N 
HETATM   38  H   UNL     1       2.214   2.139  -3.192  1.00  0.00     0.279 HD
BRANCH  37  39
HETATM   39  C   UNL     1       0.973   2.474  -4.801  1.00  0.00     0.230 C 
HETATM   40  C   UNL     1       1.644   3.812  -5.054  1.00  0.00     0.034 C 
ENDBRANCH  37  39
BRANCH  37  41
HETATM   41  C   UNL     1       1.009   0.494  -3.253  1.00  0.00     0.230 C 
HETATM   42  C   UNL     1      -0.438   0.078  -3.442  1.00  0.00     0.034 C 
ENDBRANCH  37  41
ENDBRANCH  36  37
ENDBRANCH  35  36
ENDBRANCH  34  35
ENDBRANCH   1  34
TORSDOF 14
