REMARK  5 active torsions:
REMARK  status: ('A' for Active; 'I' for Inactive)
REMARK    1  A    between atoms: C_7  and  C_8 
REMARK    2  A    between atoms: N_9  and  N_10 
REMARK       I    between atoms: N_10  and  C_11 
REMARK    3  A    between atoms: C_11  and  C_12 
REMARK    4  A    between atoms: C_12  and  N_13 
REMARK       I    between atoms: N_13  and  C_14 
REMARK    5  A    between atoms: C_14  and  C_15 
ROOT
HETATM    1  N   UNL     1       3.192  -4.751   0.045  1.00  0.00    -0.246 N 
HETATM    2  C   UNL     1       3.997  -5.868  -0.122  1.00  0.00     0.255 C 
HETATM    3  O   UNL     1       5.217  -5.856  -0.282  1.00  0.00    -0.270 OA
HETATM    4  H   UNL     1       2.186  -4.880   0.183  1.00  0.00     0.192 HD
ENDROOT
BRANCH   1   5
HETATM    5  N   UNL     1       3.734  -3.501   0.017  1.00  0.00    -0.184 NA
HETATM    6  C   UNL     1       2.892  -2.524   0.118  1.00  0.00     0.153 C 
BRANCH   6   7
HETATM    7  C   UNL     1       3.361  -1.150   0.079  1.00  0.00     0.018 A 
HETATM    8  C   UNL     1       4.681  -0.719   0.009  1.00  0.00     0.018 A 
HETATM    9  C   UNL     1       5.959  -1.481  -0.039  1.00  0.00     0.069 C 
HETATM   10  N   UNL     1       4.673   0.653  -0.016  1.00  0.00    -0.358 N 
HETATM   11  H   UNL     1       5.497   1.236  -0.069  1.00  0.00     0.166 HD
HETATM   12  C   UNL     1       3.387   1.133   0.033  1.00  0.00     0.043 A 
HETATM   13  C   UNL     1       2.539   0.027   0.097  1.00  0.00     0.004 A 
HETATM   14  C   UNL     1       2.919   2.452   0.022  1.00  0.00     0.030 A 
HETATM   15  C   UNL     1       1.147   0.258   0.153  1.00  0.00     0.014 A 
HETATM   16  C   UNL     1       0.661   1.572   0.142  1.00  0.00     0.001 A 
HETATM   17  C   UNL     1       1.537   2.651   0.078  1.00  0.00     0.002 A 
ENDBRANCH   6   7
ENDBRANCH   1   5
BRANCH   2  18
HETATM   18  C   UNL     1       3.197  -7.170  -0.187  1.00  0.00     0.227 C 
BRANCH  18  19
HETATM   19  N   UNL     1       2.504  -7.493   1.050  1.00  0.00    -0.348 N 
HETATM   20  C   UNL     1       1.316  -6.909   1.409  1.00  0.00     0.253 C 
HETATM   21  O   UNL     1       0.829  -6.000   0.738  1.00  0.00    -0.268 OA
HETATM   22  H   UNL     1       2.949  -8.158   1.673  1.00  0.00     0.163 HD
BRANCH  20  23
HETATM   23  C   UNL     1       0.611  -7.410   2.629  1.00  0.00     0.053 A 
HETATM   24  C   UNL     1       1.195  -8.125   3.686  1.00  0.00     0.049 A 
HETATM   25 CL   UNL     1       2.880  -8.502   3.790  1.00  0.00    -0.083 Cl
HETATM   26  C   UNL     1       0.406  -8.560   4.762  1.00  0.00     0.025 A 
HETATM   27  C   UNL     1      -0.960  -8.283   4.800  1.00  0.00     0.002 A 
HETATM   28  C   UNL     1      -1.547  -7.563   3.766  1.00  0.00     0.001 A 
HETATM   29  C   UNL     1      -0.768  -7.130   2.691  1.00  0.00     0.019 A 
ENDBRANCH  20  23
ENDBRANCH  18  19
ENDBRANCH   2  18
TORSDOF 5
