REMARK  5 active torsions:
REMARK  status: ('A' for Active; 'I' for Inactive)
REMARK    1  A    between atoms: C_2  and  C_3 
REMARK    2  A    between atoms: C_2  and  C_18 
REMARK       I    between atoms: C_3  and  N_4 
REMARK    3  A    between atoms: N_4  and  C_5 
REMARK    4  A    between atoms: C_7  and  C_8 
REMARK    5  A    between atoms: C_18  and  C_19 
ROOT
HETATM    1  C   UNL     1       2.798   1.462  -0.300  1.00  0.00     0.226 C 
HETATM    2  N   UNL     1       3.178   2.196   0.806  1.00  0.00    -0.327 N 
HETATM    3  O   UNL     1       2.628   1.917  -1.431  1.00  0.00    -0.273 OA
HETATM    4  H   UNL     1       3.031   1.775   1.713  1.00  0.00     0.169 HD
ENDROOT
BRANCH   2   5
HETATM    5  C   UNL     1       3.624   3.535   0.826  1.00  0.00     0.035 A 
HETATM    6  C   UNL     1       4.018   4.239  -0.317  1.00  0.00     0.042 A 
HETATM    7  C   UNL     1       4.515   5.551  -0.224  1.00  0.00    -0.021 A 
HETATM    8  C   UNL     1       4.600   6.156   1.036  1.00  0.00     0.012 A 
HETATM    9  C   UNL     1       4.205   5.464   2.180  1.00  0.00     0.003 A 
HETATM   10  C   UNL     1       3.728   4.157   2.076  1.00  0.00     0.029 A 
BRANCH   7  11
HETATM   11  C   UNL     1       4.966   6.268  -1.405  1.00  0.00     0.010 A 
HETATM   12  C   UNL     1       5.966   7.257  -1.562  1.00  0.00     0.152 A 
HETATM   13  N   UNL     1       6.083   7.683  -2.823  1.00  0.00    -0.187 NA
HETATM   14  N   UNL     1       5.157   6.965  -3.480  1.00  0.00    -0.289 N 
HETATM   15  H   UNL     1       5.053   7.114  -4.478  1.00  0.00     0.188 HD
HETATM   16  C   UNL     1       4.462   6.108  -2.678  1.00  0.00     0.123 A 
ENDBRANCH   7  11
ENDBRANCH   2   5
BRANCH   1  17
HETATM   17  C   UNL     1       2.696  -0.050  -0.079  1.00  0.00     0.078 C 
HETATM   18  C   UNL     1       4.108  -0.636  -0.153  1.00  0.00     0.020 C 
BRANCH  17  19
HETATM   19  C   UNL     1       2.008  -0.504   1.219  1.00  0.00     0.052 C 
BRANCH  19  20
HETATM   20  C   UNL     1       0.601  -0.025   1.492  1.00  0.00    -0.057 A 
HETATM   21  C   UNL     1      -0.275   0.402   0.487  1.00  0.00     0.007 A 
HETATM   22  C   UNL     1      -1.584   0.782   0.797  1.00  0.00     0.001 A 
HETATM   23  C   UNL     1      -2.039   0.727   2.112  1.00  0.00     0.000 A 
HETATM   24  C   UNL     1      -1.186   0.291   3.121  1.00  0.00     0.001 A 
HETATM   25  C   UNL     1       0.122  -0.085   2.813  1.00  0.00     0.007 A 
ENDBRANCH  19  20
ENDBRANCH  17  19
ENDBRANCH   1  17
TORSDOF 5
