REMARK  4 active torsions:
REMARK  status: ('A' for Active; 'I' for Inactive)
REMARK    1  A    between atoms: C_4  and  N_5 
REMARK       I    between atoms: N_5  and  C_6 
REMARK       I    between atoms: C_6  and  N_7 
REMARK    2  A    between atoms: N_7  and  C_8 
REMARK    3  A    between atoms: C_8  and  C_9 
REMARK    4  A    between atoms: C_10  and  O_11 
ROOT
HETATM    1  N   UNL     1       4.785   2.394   0.009  1.00  0.00    -0.307 N 
HETATM    2  C   UNL     1       4.279   3.563  -0.463  1.00  0.00     0.321 C 
HETATM    3  N   UNL     1       3.132   3.492  -1.195  1.00  0.00    -0.338 N 
HETATM    4  O   UNL     1       4.878   4.616  -0.257  1.00  0.00    -0.247 OA
HETATM    5  H   UNL     1       5.751   2.479   0.323  1.00  0.00     0.170 HD
HETATM    6  H   UNL     1       3.058   2.638  -1.727  1.00  0.00     0.164 HD
ENDROOT
BRANCH   1   7
HETATM    7  C   UNL     1       4.261   1.088   0.161  1.00  0.00     0.066 A 
HETATM    8  C   UNL     1       2.896   0.787   0.076  1.00  0.00     0.038 A 
HETATM    9  C   UNL     1       2.443  -0.527   0.241  1.00  0.00    -0.059 A 
HETATM   10  C   UNL     1       0.986  -0.859   0.112  1.00  0.00     0.048 C 
HETATM   11  C   UNL     1       3.374  -1.537   0.494  1.00  0.00     0.020 A 
HETATM   12  C   UNL     1       4.741  -1.239   0.620  1.00  0.00    -0.005 A 
HETATM   13  C   UNL     1       5.200   0.086   0.464  1.00  0.00     0.093 A 
HETATM   14  C   UNL     1       5.680  -2.239   0.904  1.00  0.00     0.015 A 
HETATM   15  N   UNL     1       6.512   0.399   0.589  1.00  0.00    -0.258 NA
HETATM   16  C   UNL     1       7.387  -0.592   0.866  1.00  0.00     0.117 A 
HETATM   17  C   UNL     1       7.025  -1.914   1.030  1.00  0.00     0.020 A 
ENDBRANCH   1   7
BRANCH   3  18
HETATM   18  C   UNL     1       2.576   4.671  -1.836  1.00  0.00     0.167 C 
BRANCH  18  19
HETATM   19  C   UNL     1       1.533   5.398  -1.029  1.00  0.00     0.012 A 
HETATM   20  C   UNL     1       0.690   6.322  -1.654  1.00  0.00     0.171 A 
HETATM   21  N   UNL     1      -0.255   7.047  -1.012  1.00  0.00    -0.237 NA
HETATM   22  C   UNL     1      -0.360   6.868   0.320  1.00  0.00     0.119 A 
HETATM   23  C   UNL     1       0.431   5.994   1.042  1.00  0.00     0.020 A 
HETATM   24  C   UNL     1       1.391   5.254   0.357  1.00  0.00     0.014 A 
BRANCH  20  25
HETATM   25  O   UNL     1       0.842   6.485  -3.019  1.00  0.00    -0.339 OA
HETATM   26  C   UNL     1       0.018   7.514  -3.559  1.00  0.00     0.211 C 
ENDBRANCH  20  25
ENDBRANCH  18  19
ENDBRANCH   3  18
TORSDOF 4
