REMARK  3 active torsions:
REMARK  status: ('A' for Active; 'I' for Inactive)
REMARK    1  A    between atoms: C_9  and  C_10 
REMARK    2  A    between atoms: C_16  and  C_17 
REMARK       I    between atoms: C_17  and  N_18 
REMARK    3  A    between atoms: N_18  and  C_19 
ROOT
HETATM    1  C   UNL     1       0.948   0.101  -0.255  1.00  0.00     0.070 C 
HETATM    2  C   UNL     1       2.392   0.003   0.169  1.00  0.00     0.037 C 
HETATM    3  N   UNL     1       3.033   1.216   0.404  1.00  0.00    -0.191 N 
HETATM    4  C   UNL     1       4.368   1.320   0.571  1.00  0.00     0.735 A 
HETATM    5  N   UNL     1       5.122   0.183   0.647  1.00  0.00    -0.092 N 
HETATM    6  N   UNL     1       6.423   0.493   0.748  1.00  0.00     0.012 NA
HETATM    7  N   UNL     1       6.447   1.822   0.773  1.00  0.00     0.033 NA
HETATM    8  N   UNL     1       5.173   2.349   0.663  1.00  0.00     0.030 NA
HETATM    9  C   UNL     1       4.588  -1.175   0.582  1.00  0.00     0.199 C 
HETATM   10  C   UNL     1       3.093  -1.154   0.264  1.00  0.00     0.062 C 
HETATM   11  H   UNL     1       2.500   2.069   0.247  1.00  0.00     0.184 HD
ENDROOT
BRANCH  10  12
HETATM   12  C   UNL     1       2.525  -2.496  -0.030  1.00  0.00     0.256 C 
HETATM   13  N   UNL     1       1.429  -2.811   0.740  1.00  0.00    -0.322 N 
HETATM   14  H   UNL     1       1.133  -2.137   1.435  1.00  0.00     0.169 HD
HETATM   15  O   UNL     1       3.087  -3.208  -0.852  1.00  0.00    -0.267 OA
BRANCH  13  16
HETATM   16  C   UNL     1       0.666  -3.996   0.665  1.00  0.00     0.052 A 
HETATM   17  C   UNL     1       0.923  -5.065  -0.189  1.00  0.00     0.145 A 
HETATM   18  N   UNL     1       0.164  -6.189  -0.252  1.00  0.00    -0.271 NA
HETATM   19  C   UNL     1      -0.902  -6.254   0.570  1.00  0.00     0.116 A 
HETATM   20  C   UNL     1      -1.246  -5.248   1.456  1.00  0.00     0.021 A 
HETATM   21  C   UNL     1      -0.447  -4.106   1.503  1.00  0.00     0.032 A 
ENDBRANCH  13  16
ENDBRANCH  10  12
BRANCH   9  22
HETATM   22  C   UNL     1       4.880  -1.934   1.866  1.00  0.00    -0.011 A 
HETATM   23  C   UNL     1       4.595  -1.408   3.125  1.00  0.00     0.125 A 
HETATM   24  N   UNL     1       4.787  -2.072   4.286  1.00  0.00    -0.272 NA
HETATM   25  C   UNL     1       5.307  -3.315   4.201  1.00  0.00     0.116 A 
HETATM   26  C   UNL     1       5.624  -3.933   3.004  1.00  0.00     0.020 A 
HETATM   27  C   UNL     1       5.400  -3.234   1.822  1.00  0.00     0.012 A 
ENDBRANCH   9  22
TORSDOF 3
