REMARK  3 active torsions:
REMARK  status: ('A' for Active; 'I' for Inactive)
REMARK    1  A    between atoms: N_7  and  N_8 
REMARK       I    between atoms: N_8  and  C_9 
REMARK    2  A    between atoms: C_9  and  C_10 
REMARK    3  A    between atoms: C_14  and  C_15 
ROOT
HETATM    1  N   UNL     1      -3.972   2.018   0.011  1.00  0.00    -0.241 N 
HETATM    2  C   UNL     1      -4.706   3.191  -0.029  1.00  0.00     0.289 C 
HETATM    3  O   UNL     1      -5.933   3.240  -0.075  1.00  0.00    -0.264 OA
HETATM    4  H   UNL     1      -2.954   2.049   0.032  1.00  0.00     0.192 HD
ENDROOT
BRANCH   2   5
HETATM    5  C   UNL     1      -3.911   4.394  -0.025  1.00  0.00     0.121 A 
HETATM    6  N   UNL     1      -4.488   5.629  -0.110  1.00  0.00    -0.272 N 
HETATM    7  H   UNL     1      -5.482   5.830  -0.174  1.00  0.00     0.189 HD
HETATM    8  N   UNL     1      -3.614   6.646  -0.120  1.00  0.00    -0.174 NA
HETATM    9  C   UNL     1      -2.410   6.062  -0.013  1.00  0.00     0.089 A 
HETATM   10  C   UNL     1      -2.555   4.646   0.047  1.00  0.00     0.071 A 
BRANCH   9  11
HETATM   11  C   UNL     1      -1.173   6.848   0.015  1.00  0.00    -0.006 A 
HETATM   12  C   UNL     1       0.020   6.306   0.518  1.00  0.00     0.015 A 
HETATM   13  C   UNL     1       1.197   7.064   0.533  1.00  0.00     0.024 A 
HETATM   14  C   UNL     1       1.189   8.368   0.045  1.00  0.00     0.034 A 
HETATM   15 CL   UNL     1       2.638   9.295   0.062  1.00  0.00    -0.084 Cl
HETATM   16  C   UNL     1       0.015   8.925  -0.454  1.00  0.00     0.024 A 
HETATM   17  C   UNL     1      -1.160   8.168  -0.466  1.00  0.00     0.015 A 
ENDBRANCH   9  11
ENDBRANCH   2   5
BRANCH   1  18
HETATM   18  N   UNL     1      -4.591   0.798  -0.017  1.00  0.00    -0.165 NA
HETATM   19  C   UNL     1      -3.815  -0.238  -0.009  1.00  0.00     0.157 A 
HETATM   20  C   UNL     1      -4.246  -1.629  -0.043  1.00  0.00     0.027 A 
HETATM   21  C   UNL     1      -2.283  -0.276   0.028  1.00  0.00     0.277 A 
HETATM   22  C   UNL     1      -5.510  -2.181  -0.084  1.00  0.00     0.016 A 
HETATM   23  C   UNL     1      -3.088  -2.406  -0.030  1.00  0.00     0.048 A 
HETATM   24  C   UNL     1      -5.589  -3.575  -0.113  1.00  0.00     0.001 A 
HETATM   25  C   UNL     1      -4.421  -4.367  -0.101  1.00  0.00     0.002 A 
HETATM   26  C   UNL     1      -3.149  -3.782  -0.059  1.00  0.00     0.030 A 
HETATM   27  N   UNL     1      -1.944  -1.611   0.011  1.00  0.00    -0.321 N 
HETATM   28  H   UNL     1      -0.992  -1.945   0.027  1.00  0.00     0.169 HD
HETATM   29  O   UNL     1      -1.569   0.705   0.064  1.00  0.00    -0.266 OA
ENDBRANCH   1  18
TORSDOF 3
