REMARK  12 active torsions:
REMARK  status: ('A' for Active; 'I' for Inactive)
REMARK    1  A    between atoms: C_2  and  N_3 
REMARK    2  A    between atoms: N_3  and  C_5 
REMARK    3  A    between atoms: N_3  and  C_37 
REMARK    4  A    between atoms: C_5  and  C_6 
REMARK    5  A    between atoms: N_7  and  C_8 
REMARK    6  A    between atoms: C_12  and  N_13 
REMARK    7  A    between atoms: C_16  and  C_17 
REMARK       I    between atoms: C_17  and  N_18 
REMARK    8  A    between atoms: N_18  and  N_19 
REMARK    9  A    between atoms: C_20  and  C_21 
REMARK   10  A    between atoms: C_23  and  C_24 
REMARK   11  A    between atoms: C_28  and  O_29 
REMARK   12  A    between atoms: C_30  and  C_31 
ROOT
HETATM    1  C   UNL     1       0.263   4.715  -0.042  1.00  0.00     0.293 C 
HETATM    2  N   UNL     1      -0.615   5.744   0.238  1.00  0.00    -0.242 N 
HETATM    3  O   UNL     1      -0.046   3.542  -0.241  1.00  0.00    -0.264 OA
HETATM    4  H   UNL     1      -0.280   6.692   0.386  1.00  0.00     0.192 HD
ENDROOT
BRANCH   1   5
HETATM    5  C   UNL     1       1.664   5.109  -0.078  1.00  0.00     0.170 A 
HETATM    6  C   UNL     1       2.726   4.331  -0.518  1.00  0.00     0.096 A 
HETATM    7  N   UNL     1       3.852   5.105  -0.256  1.00  0.00    -0.215 N 
HETATM    8  N   UNL     1       3.447   6.323   0.194  1.00  0.00     0.012 NA
HETATM    9  N   UNL     1       2.131   6.322   0.332  1.00  0.00    -0.152 NA
BRANCH   6  10
HETATM   10  C   UNL     1       2.716   3.021  -1.215  1.00  0.00     0.296 C 
BRANCH  10  11
HETATM   11  N   UNL     1       3.094   1.808  -0.384  1.00  0.00    -0.066 N 
HETATM   12  H   UNL     1       4.057   1.972  -0.052  1.00  0.00     0.280 HD
BRANCH  11  13
HETATM   13  C   UNL     1       3.115   0.547  -1.240  1.00  0.00     0.231 C 
HETATM   14  C   UNL     1       4.312   0.528  -2.172  1.00  0.00     0.034 C 
ENDBRANCH  11  13
BRANCH  11  15
HETATM   15  C   UNL     1       2.193   1.631   0.831  1.00  0.00     0.231 C 
HETATM   16  C   UNL     1       2.844   0.726   1.865  1.00  0.00     0.034 C 
ENDBRANCH  11  15
ENDBRANCH  10  11
ENDBRANCH   6  10
BRANCH   7  17
HETATM   17  C   UNL     1       5.215   4.741  -0.357  1.00  0.00     0.225 A 
HETATM   18  N   UNL     1       5.546   3.476  -0.635  1.00  0.00    -0.081 NA
HETATM   19  O   UNL     1       6.945   3.495  -0.630  1.00  0.00    -0.103 OA
HETATM   20  N   UNL     1       7.429   4.757  -0.321  1.00  0.00    -0.083 NA
HETATM   21  C   UNL     1       6.358   5.530  -0.149  1.00  0.00     0.201 A 
BRANCH  21  22
HETATM   22  N   UNL     1       6.401   6.834   0.163  1.00  0.00    -0.379 N 
HETATM   23  H   UNL     1       7.291   7.284   0.365  1.00  0.00     0.158 HD
HETATM   24  H   UNL     1       5.581   7.390   0.399  1.00  0.00     0.158 HD
ENDBRANCH  21  22
ENDBRANCH   7  17
ENDBRANCH   1   5
BRANCH   2  25
HETATM   25  N   UNL     1      -1.944   5.466   0.300  1.00  0.00    -0.184 NA
HETATM   26  C   UNL     1      -2.746   6.469   0.466  1.00  0.00     0.150 C 
BRANCH  26  27
HETATM   27  C   UNL     1      -4.209   6.262   0.538  1.00  0.00    -0.016 A 
HETATM   28  C   UNL     1      -4.735   4.967   0.575  1.00  0.00     0.023 A 
HETATM   29  C   UNL     1      -6.120   4.723   0.637  1.00  0.00    -0.016 A 
HETATM   30  C   UNL     1      -6.954   5.873   0.641  1.00  0.00     0.079 A 
HETATM   31  C   UNL     1      -6.449   7.208   0.600  1.00  0.00    -0.016 A 
HETATM   32  C   UNL     1      -5.053   7.368   0.557  1.00  0.00     0.023 A 
BRANCH  29  33
HETATM   33  C   UNL     1      -6.627   3.257   0.695  1.00  0.00    -0.021 C 
HETATM   34  C   UNL     1      -5.486   2.198   0.746  1.00  0.00     0.019 C 
HETATM   35  C   UNL     1      -7.455   3.010   1.976  1.00  0.00     0.019 C 
HETATM   36  C   UNL     1      -7.440   2.911  -0.574  1.00  0.00     0.019 C 
ENDBRANCH  29  33
BRANCH  30  37
HETATM   37  O   UNL     1      -8.317   5.770   0.687  1.00  0.00    -0.360 OA
HETATM   38  H   UNL     1      -8.608   4.856   0.601  1.00  0.00     0.217 HD
ENDBRANCH  30  37
BRANCH  31  39
HETATM   39  C   UNL     1      -7.384   8.449   0.583  1.00  0.00    -0.021 C 
HETATM   40  C   UNL     1      -8.257   8.498   1.857  1.00  0.00     0.019 C 
HETATM   41  C   UNL     1      -6.622   9.801   0.539  1.00  0.00     0.019 C 
HETATM   42  C   UNL     1      -8.281   8.430  -0.676  1.00  0.00     0.019 C 
ENDBRANCH  31  39
ENDBRANCH  26  27
ENDBRANCH   2  25
TORSDOF 12
