REMARK  9 active torsions:
REMARK  status: ('A' for Active; 'I' for Inactive)
REMARK    1  A    between atoms: C_2  and  C_3 
REMARK    2  A    between atoms: C_3  and  N_4 
REMARK    3  A    between atoms: N_4  and  C_7 
REMARK    4  A    between atoms: C_12  and  N_13 
REMARK       I    between atoms: N_13  and  C_14 
REMARK    5  A    between atoms: C_14  and  C_16 
REMARK    6  A    between atoms: C_20  and  C_22 
REMARK    7  A    between atoms: C_22  and  N_24 
REMARK       I    between atoms: N_24  and  C_25 
REMARK    8  A    between atoms: C_25  and  C_27 
REMARK    9  A    between atoms: C_30  and  O_31 
ROOT
HETATM    1  C   UNL     1      -2.959  -4.107  -5.020  1.00  0.00     0.033 A 
HETATM    2  C   UNL     1      -3.440  -5.417  -4.901  1.00  0.00     0.017 A 
HETATM    3  C   UNL     1      -4.745  -5.728  -5.277  1.00  0.00     0.002 A 
HETATM    4  C   UNL     1      -5.580  -4.735  -5.788  1.00  0.00     0.009 A 
HETATM    5  C   UNL     1      -5.114  -3.421  -5.950  1.00  0.00    -0.035 A 
HETATM    6  C   UNL     1      -3.797  -3.117  -5.551  1.00  0.00     0.026 A 
ENDROOT
BRANCH   1   7
HETATM    7  C   UNL     1      -1.550  -3.841  -4.602  1.00  0.00     0.257 C 
HETATM    8  N   UNL     1      -1.260  -2.545  -4.226  1.00  0.00    -0.301 N 
HETATM    9  H   UNL     1      -1.973  -1.833  -4.182  1.00  0.00     0.171 HD
HETATM   10  O   UNL     1      -0.768  -4.786  -4.605  1.00  0.00    -0.267 OA
BRANCH   8  11
HETATM   11  C   UNL     1       0.000  -2.190  -3.826  1.00  0.00     0.174 A 
HETATM   12  N   UNL     1       1.076  -2.931  -3.731  1.00  0.00    -0.228 NA
HETATM   13  C   UNL     1       2.122  -2.176  -3.279  1.00  0.00     0.050 A 
HETATM   14  C   UNL     1       3.466  -2.780  -3.081  1.00  0.00     0.062 C 
HETATM   15  C   UNL     1       1.838  -0.844  -3.067  1.00  0.00     0.013 A 
HETATM   16  C   UNL     1       4.370  -1.850  -2.255  1.00  0.00     0.039 C 
HETATM   17  C   UNL     1       4.262  -0.387  -2.738  1.00  0.00     0.191 C 
HETATM   18  C   UNL     1       2.816   0.169  -2.585  1.00  0.00     0.081 C 
HETATM   19  S   UNL     1       0.192  -0.539  -3.397  1.00  0.00    -0.055 SA
BRANCH  17  20
HETATM   20  N   UNL     1       5.211   0.488  -1.947  1.00  0.00    -0.071 N 
HETATM   21  H   UNL     1       5.036   0.367  -0.939  1.00  0.00     0.277 HD
HETATM   22  H   UNL     1       4.995   1.475  -2.150  1.00  0.00     0.277 HD
BRANCH  20  23
HETATM   23  C   UNL     1       6.672   0.276  -2.222  1.00  0.00     0.232 C 
BRANCH  23  24
HETATM   24  C   UNL     1       7.478   1.309  -1.447  1.00  0.00     0.023 C 
HETATM   25  C   UNL     1       8.971   1.099  -1.647  1.00  0.00     0.007 C 
ENDBRANCH  23  24
ENDBRANCH  20  23
ENDBRANCH  17  20
ENDBRANCH   8  11
ENDBRANCH   1   7
BRANCH   5  26
HETATM   26  C   UNL     1      -6.000  -2.312  -6.494  1.00  0.00     0.114 C 
HETATM   27  C   UNL     1      -6.810  -2.725  -7.724  1.00  0.00     0.037 C 
BRANCH  26  28
HETATM   28  N   UNL     1      -6.881  -1.833  -5.444  1.00  0.00    -0.349 N 
HETATM   29  C   UNL     1      -6.495  -0.852  -4.557  1.00  0.00     0.252 C 
HETATM   30  O   UNL     1      -5.426  -0.254  -4.615  1.00  0.00    -0.268 OA
HETATM   31  H   UNL     1      -7.768  -2.302  -5.326  1.00  0.00     0.163 HD
BRANCH  29  32
HETATM   32  C   UNL     1      -7.484  -0.508  -3.504  1.00  0.00     0.033 A 
HETATM   33  C   UNL     1      -7.611   0.830  -3.118  1.00  0.00     0.020 A 
HETATM   34  C   UNL     1      -8.544   1.200  -2.141  1.00  0.00     0.039 A 
HETATM   35  C   UNL     1      -9.350   0.233  -1.531  1.00  0.00     0.089 A 
HETATM   36  C   UNL     1      -9.195  -1.112  -1.910  1.00  0.00     0.068 A 
HETATM   37 CL   UNL     1     -10.142  -2.366  -1.185  1.00  0.00    -0.081 Cl
HETATM   38  C   UNL     1      -8.268  -1.485  -2.888  1.00  0.00     0.043 A 
BRANCH  35  39
HETATM   39  O   UNL     1     -10.288   0.500  -0.570  1.00  0.00    -0.354 OA
HETATM   40  C   UNL     1     -10.508   1.858  -0.213  1.00  0.00     0.210 C 
ENDBRANCH  35  39
ENDBRANCH  29  32
ENDBRANCH  26  28
ENDBRANCH   5  26
TORSDOF 9
