REMARK  3 active torsions:
REMARK  status: ('A' for Active; 'I' for Inactive)
REMARK    1  A    between atoms: O_2  and  C_3 
REMARK    2  A    between atoms: C_9  and  C_10 
REMARK       I    between atoms: C_10  and  N_11 
REMARK    3  A    between atoms: N_11  and  C_12 
ROOT
HETATM    1  C   UNL     1       3.051   1.268   0.221  1.00  0.00     0.068 A 
HETATM    2  C   UNL     1       4.327   1.138   0.778  1.00  0.00     0.044 A 
HETATM    3  C   UNL     1       5.097   2.270   1.077  1.00  0.00    -0.043 A 
HETATM    4  C   UNL     1       4.583   3.553   0.782  1.00  0.00    -0.001 A 
HETATM    5  C   UNL     1       5.427   4.683   1.131  1.00  0.00     0.069 A 
HETATM    6  C   UNL     1       6.564   4.596   1.904  1.00  0.00     0.007 A 
HETATM    7  C   UNL     1       7.051   5.921   2.019  1.00  0.00     0.153 A 
HETATM    8  N   UNL     1       6.269   6.780   1.321  1.00  0.00    -0.168 NA
HETATM    9  N   UNL     1       5.301   5.996   0.799  1.00  0.00    -0.276 N 
HETATM   10  H   UNL     1       4.588   6.430   0.224  1.00  0.00     0.189 HD
HETATM   11  C   UNL     1       7.018   3.299   2.476  1.00  0.00     0.048 C 
HETATM   12  C   UNL     1       6.512   2.110   1.624  1.00  0.00     0.044 C 
HETATM   13  C   UNL     1       3.313   3.682   0.220  1.00  0.00     0.017 A 
HETATM   14  C   UNL     1       2.549   2.541  -0.058  1.00  0.00     0.037 A 
ENDROOT
BRANCH   7  15
HETATM   15  C   UNL     1       8.221   6.398   2.784  1.00  0.00     0.277 C 
HETATM   16  N   UNL     1       8.371   7.768   2.676  1.00  0.00    -0.322 N 
HETATM   17  H   UNL     1       7.662   8.195   2.082  1.00  0.00     0.169 HD
HETATM   18  O   UNL     1       8.935   5.636   3.425  1.00  0.00    -0.266 OA
BRANCH  16  19
HETATM   19  C   UNL     1       9.329   8.598   3.280  1.00  0.00     0.036 A 
HETATM   20  C   UNL     1      10.334   8.135   4.134  1.00  0.00     0.056 A 
HETATM   21  C   UNL     1      11.241   9.035   4.701  1.00  0.00     0.074 A 
HETATM   22 CL   UNL     1      12.471   8.448   5.756  1.00  0.00    -0.081 Cl
HETATM   23  C   UNL     1      11.147  10.394   4.416  1.00  0.00     0.138 A 
HETATM   24  F   UNL     1      12.007  11.272   4.953  1.00  0.00    -0.204 F 
HETATM   25  C   UNL     1      10.154  10.868   3.567  1.00  0.00     0.046 A 
HETATM   26  C   UNL     1       9.246   9.970   3.000  1.00  0.00     0.032 A 
ENDBRANCH  16  19
ENDBRANCH   7  15
BRANCH   1  27
HETATM   27  O   UNL     1       2.407   0.083  -0.007  1.00  0.00    -0.356 OA
HETATM   28  C   UNL     1       1.085   0.157  -0.526  1.00  0.00     0.210 C 
ENDBRANCH   1  27
TORSDOF 3
