REMARK  4 active torsions:
REMARK  status: ('A' for Active; 'I' for Inactive)
REMARK    1  A    between atoms: C_6  and  C_7 
REMARK    2  A    between atoms: C_7  and  N_8 
REMARK    3  A    between atoms: C_11  and  C_12 
REMARK    4  A    between atoms: C_12  and  C_13 
ROOT
HETATM    1  N   UNL     1      -4.278  -1.666   0.249  1.00  0.00    -0.064 N 
HETATM    2  H   UNL     1      -5.222  -1.627  -0.181  1.00  0.00     0.280 HD
HETATM    3  C   UNL     1      -3.560  -2.767  -0.503  1.00  0.00     0.247 C 
HETATM    4  C   UNL     1      -4.375  -4.066  -0.436  1.00  0.00     0.086 C 
HETATM    5  C   UNL     1      -4.698  -4.437   1.016  1.00  0.00     0.016 C 
HETATM    6  C   UNL     1      -5.294  -3.275   1.814  1.00  0.00     0.029 C 
HETATM    7  C   UNL     1      -4.461  -2.003   1.703  1.00  0.00     0.235 C 
ENDROOT
BRANCH   1   8
HETATM    8  C   UNL     1      -3.683  -0.293   0.017  1.00  0.00     0.313 C 
BRANCH   8   9
HETATM    9  C   UNL     1      -2.261  -0.124   0.443  1.00  0.00     0.131 A 
HETATM   10  N   UNL     1      -1.507  -1.025   1.044  1.00  0.00    -0.232 NA
HETATM   11  C   UNL     1      -0.273  -0.440   1.199  1.00  0.00     0.085 A 
HETATM   12  C   UNL     1      -0.276   0.852   0.689  1.00  0.00     0.062 A 
HETATM   13  C   UNL     1       0.902  -0.957   1.760  1.00  0.00     0.034 A 
HETATM   14  C   UNL     1       0.846   1.683   0.705  1.00  0.00     0.032 A 
HETATM   15  N   UNL     1      -1.554   1.036   0.224  1.00  0.00    -0.341 N 
HETATM   16  C   UNL     1       2.012   1.150   1.266  1.00  0.00     0.002 A 
HETATM   17  C   UNL     1       2.043  -0.146   1.786  1.00  0.00     0.002 A 
HETATM   18  H   UNL     1      -1.891   1.882  -0.215  1.00  0.00     0.167 HD
ENDBRANCH   8   9
ENDBRANCH   1   8
BRANCH   4  19
HETATM   19  C   UNL     1      -5.652  -3.886  -1.251  1.00  0.00     0.165 C 
HETATM   20  O   UNL     1      -6.169  -2.766  -1.317  1.00  0.00    -0.292 OA
BRANCH  19  21
HETATM   21  C   UNL     1      -6.284  -5.048  -1.947  1.00  0.00     0.012 A 
HETATM   22  C   UNL     1      -5.841  -6.363  -1.773  1.00  0.00     0.039 A 
HETATM   23  C   UNL     1      -6.468  -7.403  -2.463  1.00  0.00     0.035 A 
HETATM   24 CL   UNL     1      -5.912  -9.017  -2.246  1.00  0.00    -0.084 Cl
HETATM   25  C   UNL     1      -7.534  -7.149  -3.322  1.00  0.00     0.024 A 
HETATM   26  C   UNL     1      -7.984  -5.841  -3.493  1.00  0.00     0.003 A 
HETATM   27  C   UNL     1      -7.362  -4.795  -2.808  1.00  0.00     0.015 A 
ENDBRANCH  19  21
ENDBRANCH   4  19
TORSDOF 4
