REMARK  11 active torsions:
REMARK  status: ('A' for Active; 'I' for Inactive)
REMARK    1  A    between atoms: C_2  and  O_3 
REMARK    2  A    between atoms: O_3  and  C_4 
REMARK    3  A    between atoms: C_7  and  N_8 
REMARK       I    between atoms: N_8  and  C_9 
REMARK    4  A    between atoms: C_9  and  C_10 
REMARK    5  A    between atoms: C_10  and  C_11 
REMARK    6  A    between atoms: N_12  and  C_13 
REMARK    7  A    between atoms: C_13  and  C_14 
REMARK    8  A    between atoms: C_14  and  C_15 
REMARK    9  A    between atoms: C_15  and  N_16 
REMARK   10  A    between atoms: C_20  and  C_21 
REMARK       I    between atoms: C_21  and  N_22 
REMARK   11  A    between atoms: N_28  and  C_29 
ROOT
HETATM    1  C   UNL     1       7.303  -3.472  -0.524  1.00  0.00     0.188 C 
HETATM    2  N   UNL     1       6.819  -4.308   0.573  1.00  0.00    -0.344 N 
HETATM    3  C   UNL     1       6.032  -3.531   1.467  1.00  0.00     0.184 C 
HETATM    4  S   UNL     1       5.058  -4.234   2.632  1.00  0.00    -0.040 SA
HETATM    5  N   UNL     1       6.259  -2.186   1.170  1.00  0.00    -0.257 N 
HETATM    6  C   UNL     1       7.183  -2.110   0.140  1.00  0.00     0.254 C 
HETATM    7  O   UNL     1       7.862  -1.147  -0.194  1.00  0.00    -0.270 OA
ENDROOT
BRANCH   2   8
HETATM    8  C   UNL     1       6.832  -5.775   0.462  1.00  0.00     0.128 C 
BRANCH   8   9
HETATM    9  C   UNL     1       8.125  -6.425   0.969  1.00  0.00     0.048 C 
BRANCH   9  10
HETATM   10  C   UNL     1       8.705  -5.871   2.270  1.00  0.00     0.236 C 
BRANCH  10  11
HETATM   11  N   UNL     1       7.860  -6.151   3.497  1.00  0.00    -0.071 N 
HETATM   12  H   UNL     1       6.880  -5.903   3.284  1.00  0.00     0.279 HD
HETATM   13  C   UNL     1       7.914  -7.606   3.906  1.00  0.00     0.235 C 
HETATM   14  C   UNL     1       7.067  -7.844   5.150  1.00  0.00     0.042 C 
HETATM   15  C   UNL     1       7.501  -6.959   6.318  1.00  0.00     0.081 C 
HETATM   16  C   UNL     1       7.497  -5.490   5.891  1.00  0.00     0.042 C 
HETATM   17  C   UNL     1       8.295  -5.224   4.621  1.00  0.00     0.235 C 
BRANCH  15  18
HETATM   18  C   UNL     1       8.873  -7.392   6.819  1.00  0.00     0.219 C 
HETATM   19  N   UNL     1       8.893  -8.526   7.569  1.00  0.00    -0.370 N 
HETATM   20  H   UNL     1       8.075  -8.866   8.061  1.00  0.00     0.159 HD
HETATM   21  H   UNL     1       9.790  -8.791   7.965  1.00  0.00     0.159 HD
HETATM   22  O   UNL     1       9.909  -6.831   6.487  1.00  0.00    -0.273 OA
ENDBRANCH  15  18
ENDBRANCH  10  11
ENDBRANCH   9  10
ENDBRANCH   8   9
ENDBRANCH   2   8
BRANCH   1  23
HETATM   23  C   UNL     1       8.717  -3.744  -1.011  1.00  0.00     0.138 C 
BRANCH  23  24
HETATM   24  C   UNL     1       9.025  -2.875  -2.218  1.00  0.00     0.224 C 
HETATM   25  N   UNL     1      10.067  -2.001  -1.994  1.00  0.00    -0.327 N 
HETATM   26  H   UNL     1      10.434  -1.948  -1.053  1.00  0.00     0.169 HD
HETATM   27  O   UNL     1       8.366  -3.007  -3.243  1.00  0.00    -0.273 OA
BRANCH  25  28
HETATM   28  C   UNL     1      10.588  -1.030  -2.871  1.00  0.00     0.034 A 
HETATM   29  C   UNL     1      10.165  -0.843  -4.186  1.00  0.00     0.032 A 
HETATM   30  C   UNL     1      10.732   0.167  -4.979  1.00  0.00     0.039 A 
HETATM   31  C   UNL     1      11.730   0.992  -4.463  1.00  0.00     0.068 A 
HETATM   32  C   UNL     1      12.158   0.800  -3.151  1.00  0.00     0.039 A 
HETATM   33  C   UNL     1      11.593  -0.200  -2.359  1.00  0.00     0.032 A 
BRANCH  31  34
HETATM   34  O   UNL     1      12.365   2.008  -5.118  1.00  0.00    -0.352 OA
BRANCH  34  35
HETATM   35  C   UNL     1      11.966   2.273  -6.460  1.00  0.00     0.171 C 
HETATM   36  C   UNL     1      12.814   3.423  -6.972  1.00  0.00     0.034 C 
ENDBRANCH  34  35
ENDBRANCH  31  34
ENDBRANCH  25  28
ENDBRANCH  23  24
ENDBRANCH   1  23
BRANCH   5  37
HETATM   37  C   UNL     1       5.767  -0.997   1.818  1.00  0.00     0.045 A 
HETATM   38  C   UNL     1       5.783   0.236   1.130  1.00  0.00     0.032 A 
HETATM   39  C   UNL     1       5.328   1.427   1.714  1.00  0.00     0.026 A 
HETATM   40  C   UNL     1       4.826   1.411   3.005  1.00  0.00     0.034 A 
HETATM   41 CL   UNL     1       4.264   2.862   3.731  1.00  0.00    -0.084 Cl
HETATM   42  C   UNL     1       4.785   0.216   3.710  1.00  0.00     0.026 A 
HETATM   43  C   UNL     1       5.257  -0.970   3.124  1.00  0.00     0.032 A 
ENDBRANCH   5  37
TORSDOF 11
