REMARK  5 active torsions:
REMARK  status: ('A' for Active; 'I' for Inactive)
REMARK    1  A    between atoms: C_2  and  N_3 
REMARK    2  A    between atoms: C_5  and  C_6 
REMARK    3  A    between atoms: C_6  and  C_7 
REMARK       I    between atoms: C_7  and  N_8 
REMARK    4  A    between atoms: N_8  and  C_9 
REMARK    5  A    between atoms: C_16  and  O_17 
ROOT
HETATM    1  C   UNL     1       0.461  -2.242   0.618  1.00  0.00     0.224 C 
HETATM    2  N   UNL     1       1.432  -1.344   0.240  1.00  0.00    -0.351 N 
HETATM    3  O   UNL     1       0.561  -2.991   1.585  1.00  0.00    -0.273 OA
HETATM    4  H   UNL     1       1.405  -0.982  -0.709  1.00  0.00     0.163 HD
ENDROOT
BRANCH   2   5
HETATM    5  C   UNL     1       2.681  -1.246   0.961  1.00  0.00     0.135 C 
HETATM    6  C   UNL     1       3.268   0.099   0.701  1.00  0.00     0.040 A 
HETATM    7  C   UNL     1       4.602   0.379   0.483  1.00  0.00    -0.021 A 
HETATM    8  N   UNL     1       2.580   1.282   0.711  1.00  0.00    -0.357 N 
HETATM    9  C   UNL     1       4.723   1.787   0.321  1.00  0.00     0.002 A 
HETATM   10  C   UNL     1       5.645  -0.687   0.428  1.00  0.00     0.042 C 
HETATM   11  C   UNL     1       3.442   2.326   0.456  1.00  0.00     0.043 A 
HETATM   12  C   UNL     1       5.798   2.663   0.071  1.00  0.00     0.051 A 
HETATM   13  C   UNL     1       3.188   3.697   0.344  1.00  0.00     0.033 A 
HETATM   14  C   UNL     1       4.275   4.545   0.089  1.00  0.00     0.039 A 
HETATM   15  C   UNL     1       5.569   4.041  -0.045  1.00  0.00     0.069 A 
HETATM   16  C   UNL     1       5.117  -2.015   1.009  1.00  0.00     0.007 C 
HETATM   17  C   UNL     1       3.688  -2.336   0.528  1.00  0.00     0.032 C 
HETATM   18  H   UNL     1       1.587   1.376   0.871  1.00  0.00     0.166 HD
BRANCH  15  19
HETATM   19  O   UNL     1       6.696   4.781  -0.286  1.00  0.00    -0.356 OA
HETATM   20  C   UNL     1       6.525   6.184  -0.441  1.00  0.00     0.210 C 
ENDBRANCH  15  19
ENDBRANCH   2   5
BRANCH   1  21
HETATM   21  C   UNL     1      -0.779  -2.209  -0.235  1.00  0.00     0.164 C 
BRANCH  21  22
HETATM   22  C   UNL     1      -0.591  -2.849  -1.590  1.00  0.00     0.075 A 
HETATM   23  N   UNL     1      -0.351  -2.045  -2.580  1.00  0.00    -0.172 NA
HETATM   24  N   UNL     1      -0.202  -2.557  -3.847  1.00  0.00    -0.230 N 
HETATM   25  C   UNL     1      -0.390  -3.903  -4.163  1.00  0.00     0.275 A 
HETATM   26  C   UNL     1      -0.610  -4.822  -3.032  1.00  0.00     0.046 A 
HETATM   27  O   UNL     1      -0.375  -4.353  -5.307  1.00  0.00    -0.266 OA
HETATM   28  C   UNL     1      -0.693  -4.315  -1.739  1.00  0.00     0.006 A 
HETATM   29  C   UNL     1      -0.732  -6.200  -3.260  1.00  0.00     0.018 A 
HETATM   30  C   UNL     1      -0.877  -5.191  -0.662  1.00  0.00     0.014 A 
HETATM   31  C   UNL     1      -0.992  -6.565  -0.891  1.00  0.00     0.001 A 
HETATM   32  C   UNL     1      -0.925  -7.069  -2.188  1.00  0.00     0.001 A 
BRANCH  24  33
HETATM   33  C   UNL     1      -0.059  -1.580  -4.939  1.00  0.00     0.105 C 
HETATM   34  C   UNL     1       0.850  -0.408  -4.564  1.00  0.00     0.034 C 
HETATM   35  C   UNL     1      -1.433  -1.078  -5.388  1.00  0.00     0.034 C 
ENDBRANCH  24  33
ENDBRANCH  21  22
ENDBRANCH   1  21
TORSDOF 5
