REMARK  9 active torsions:
REMARK  status: ('A' for Active; 'I' for Inactive)
REMARK    1  A    between atoms: C_2  and  N_3 
REMARK    2  A    between atoms: C_2  and  C_23 
REMARK       I    between atoms: N_3  and  C_4 
REMARK       I    between atoms: C_4  and  N_5 
REMARK    3  A    between atoms: N_5  and  C_6 
REMARK    4  A    between atoms: C_6  and  C_7 
REMARK    5  A    between atoms: C_7  and  N_8 
REMARK    6  A    between atoms: C_7  and  C_14 
REMARK    7  A    between atoms: C_16  and  O_17 
REMARK    8  A    between atoms: C_23  and  C_24 
REMARK    9  A    between atoms: C_27  and  O_28 
ROOT
HETATM    1  N   UNL     1      -2.012   7.029   1.292  1.00  0.00    -0.339 N 
HETATM    2  C   UNL     1      -1.121   6.017   1.311  1.00  0.00     0.316 C 
HETATM    3  N   UNL     1      -1.213   5.083   0.328  1.00  0.00    -0.341 N 
HETATM    4  O   UNL     1      -0.245   5.977   2.167  1.00  0.00    -0.248 OA
HETATM    5  H   UNL     1      -1.897   7.645   2.090  1.00  0.00     0.164 HD
HETATM    6  H   UNL     1      -2.075   5.071  -0.200  1.00  0.00     0.164 HD
ENDROOT
BRANCH   3   7
HETATM    7  C   UNL     1      -0.504   3.809   0.445  1.00  0.00     0.162 C 
BRANCH   7   8
HETATM    8  C   UNL     1       0.740   3.665  -0.482  1.00  0.00     0.238 C 
BRANCH   8   9
HETATM    9  N   UNL     1       1.672   4.874  -0.366  1.00  0.00    -0.061 N 
HETATM   10  H   UNL     1       1.068   5.697  -0.497  1.00  0.00     0.280 HD
HETATM   11  C   UNL     1       2.807   4.910  -1.369  1.00  0.00     0.236 C 
HETATM   12  C   UNL     1       3.988   4.365  -0.597  1.00  0.00     0.029 C 
HETATM   13  C   UNL     1       3.828   5.031   0.750  1.00  0.00     0.029 C 
HETATM   14  C   UNL     1       2.328   5.023   1.007  1.00  0.00     0.236 C 
ENDBRANCH   8   9
BRANCH   8  15
HETATM   15  C   UNL     1       0.274   3.379  -1.905  1.00  0.00    -0.023 A 
HETATM   16  C   UNL     1       0.406   2.073  -2.423  1.00  0.00     0.046 A 
HETATM   17  C   UNL     1      -0.015   1.773  -3.720  1.00  0.00     0.068 A 
HETATM   18  C   UNL     1      -0.571   2.781  -4.507  1.00  0.00     0.037 A 
HETATM   19  C   UNL     1      -0.714   4.076  -4.010  1.00  0.00     0.003 A 
HETATM   20  C   UNL     1      -0.297   4.375  -2.715  1.00  0.00     0.009 A 
BRANCH  17  21
HETATM   21  O   UNL     1       0.062   0.554  -4.330  1.00  0.00    -0.356 OA
HETATM   22  C   UNL     1       0.568  -0.537  -3.570  1.00  0.00     0.210 C 
ENDBRANCH  17  21
ENDBRANCH   8  15
ENDBRANCH   7   8
ENDBRANCH   3   7
BRANCH   1  23
HETATM   23  C   UNL     1      -3.179   7.274   0.438  1.00  0.00     0.086 C 
HETATM   24  C   UNL     1      -4.319   6.323   0.815  1.00  0.00     0.032 C 
BRANCH  23  25
HETATM   25  C   UNL     1      -3.677   8.731   0.567  1.00  0.00     0.063 C 
BRANCH  25  26
HETATM   26  C   UNL     1      -2.701   9.763   0.051  1.00  0.00    -0.056 A 
HETATM   27  C   UNL     1      -2.711  10.136  -1.302  1.00  0.00     0.010 A 
HETATM   28  C   UNL     1      -1.834  11.117  -1.774  1.00  0.00     0.037 A 
HETATM   29  C   UNL     1      -0.940  11.716  -0.894  1.00  0.00     0.065 A 
HETATM   30  C   UNL     1      -0.907  11.351   0.445  1.00  0.00     0.037 A 
HETATM   31  C   UNL     1      -1.790  10.380   0.920  1.00  0.00     0.010 A 
BRANCH  29  32
HETATM   32  O   UNL     1      -0.074  12.683  -1.308  1.00  0.00    -0.361 OA
HETATM   33  H   UNL     1      -0.329  12.971  -2.201  1.00  0.00     0.217 HD
ENDBRANCH  29  32
ENDBRANCH  25  26
ENDBRANCH  23  25
ENDBRANCH   1  23
TORSDOF 9
