REMARK  5 active torsions:
REMARK  status: ('A' for Active; 'I' for Inactive)
REMARK    1  A    between atoms: C_12  and  N_13 
REMARK    2  A    between atoms: N_13  and  C_14 
REMARK    3  A    between atoms: C_14  and  C_15 
REMARK    4  A    between atoms: C_15  and  N_16 
REMARK       I    between atoms: N_16  and  C_17 
REMARK    5  A    between atoms: C_17  and  C_18 
ROOT
HETATM    1  C   UNL     1       1.549  -0.636  -2.448  1.00  0.00     0.025 A 
HETATM    2  C   UNL     1       1.589   0.750  -2.363  1.00  0.00     0.036 A 
HETATM    3 CL   UNL     1       2.744   1.633  -3.277  1.00  0.00    -0.084 Cl
HETATM    4  C   UNL     1       0.690   1.433  -1.549  1.00  0.00     0.054 A 
HETATM    5  C   UNL     1      -0.261   0.718  -0.808  1.00  0.00     0.046 A 
HETATM    6  C   UNL     1      -0.322  -0.698  -0.860  1.00  0.00     0.017 A 
HETATM    7  C   UNL     1       0.603  -1.351  -1.707  1.00  0.00     0.018 A 
HETATM    8  N   UNL     1      -1.147   1.385  -0.046  1.00  0.00    -0.365 N 
HETATM    9  H   UNL     1      -1.102   2.403  -0.021  1.00  0.00     0.165 HD
HETATM   10  C   UNL     1      -2.102   0.776   0.665  1.00  0.00     0.090 A 
HETATM   11  C   UNL     1      -2.210  -0.604   0.650  1.00  0.00     0.047 A 
HETATM   12  C   UNL     1      -1.313  -1.376  -0.095  1.00  0.00     0.042 A 
ENDROOT
BRANCH  12  13
HETATM   13  N   UNL     1      -1.441  -2.761  -0.196  1.00  0.00    -0.388 N 
HETATM   14  H   UNL     1      -0.560  -3.272  -0.172  1.00  0.00     0.159 HD
BRANCH  13  15
HETATM   15  C   UNL     1      -2.570  -3.504   0.373  1.00  0.00     0.139 C 
BRANCH  15  16
HETATM   16  C   UNL     1      -2.698  -4.881  -0.305  1.00  0.00     0.142 C 
BRANCH  16  17
HETATM   17  N   UNL     1      -3.842  -5.659   0.134  1.00  0.00    -0.359 N 
HETATM   18  C   UNL     1      -5.125  -5.245  -0.140  1.00  0.00     0.221 C 
HETATM   19  O   UNL     1      -5.409  -4.146  -0.598  1.00  0.00    -0.273 OA
HETATM   20  H   UNL     1      -3.703  -6.641   0.337  1.00  0.00     0.162 HD
BRANCH  18  21
HETATM   21  C   UNL     1      -6.168  -6.270   0.128  1.00  0.00     0.078 A 
HETATM   22  C   UNL     1      -7.635  -5.937  -0.016  1.00  0.00     0.015 A 
HETATM   23  C   UNL     1      -6.970  -6.824  -1.028  1.00  0.00     0.015 A 
ENDBRANCH  18  21
ENDBRANCH  16  17
ENDBRANCH  15  16
ENDBRANCH  13  15
ENDBRANCH  12  13
TORSDOF 5
