REMARK  6 active torsions:
REMARK  status: ('A' for Active; 'I' for Inactive)
REMARK    1  A    between atoms: C_4  and  C_5 
REMARK    2  A    between atoms: C_5  and  N_6 
REMARK    3  A    between atoms: C_5  and  C_22 
REMARK    4  A    between atoms: N_6  and  C_9 
REMARK    5  A    between atoms: C_9  and  C_10 
REMARK    6  A    between atoms: C_13  and  C_14 
REMARK       I    between atoms: C_22  and  N_23 
ROOT
HETATM    1  N   UNL     1       3.451   1.252   0.899  1.00  0.00    -0.054 N 
HETATM    2  H   UNL     1       3.850   0.848   1.751  1.00  0.00     0.278 HD
HETATM    3  H   UNL     1       4.195   1.802   0.451  1.00  0.00     0.278 HD
ENDROOT
BRANCH   1   4
HETATM    4  C   UNL     1       3.079   0.159  -0.078  1.00  0.00     0.310 C 
BRANCH   4   5
HETATM    5  C   UNL     1       1.881  -0.648   0.375  1.00  0.00    -0.019 A 
HETATM    6  C   UNL     1       0.624  -0.560  -0.246  1.00  0.00     0.010 A 
HETATM    7  C   UNL     1      -0.456  -1.310   0.225  1.00  0.00     0.001 A 
HETATM    8  C   UNL     1      -0.305  -2.140   1.333  1.00  0.00     0.000 A 
HETATM    9  C   UNL     1       0.928  -2.228   1.971  1.00  0.00     0.001 A 
HETATM   10  C   UNL     1       2.014  -1.493   1.496  1.00  0.00     0.010 A 
ENDBRANCH   4   5
BRANCH   4  11
HETATM   11  C   UNL     1       3.022   0.727  -1.517  1.00  0.00     0.251 C 
HETATM   12  N   UNL     1       3.023  -0.157  -2.555  1.00  0.00    -0.368 N 
HETATM   13  H   UNL     1       2.936  -1.163  -2.461  1.00  0.00     0.159 HD
HETATM   14  H   UNL     1       2.993   0.215  -3.500  1.00  0.00     0.159 HD
HETATM   15  O   UNL     1       3.064   1.939  -1.722  1.00  0.00    -0.271 OA
ENDBRANCH   4  11
ENDBRANCH   1   4
BRANCH   1  16
HETATM   16  C   UNL     1       2.391   2.228   1.285  1.00  0.00     0.272 C 
BRANCH  16  17
HETATM   17  C   UNL     1       2.993   3.266   2.195  1.00  0.00    -0.033 A 
HETATM   18  C   UNL     1       3.767   4.306   1.666  1.00  0.00     0.010 A 
HETATM   19  C   UNL     1       4.423   5.205   2.514  1.00  0.00     0.013 A 
HETATM   20  C   UNL     1       4.323   5.098   3.911  1.00  0.00    -0.025 A 
HETATM   21  C   UNL     1       3.526   4.063   4.427  1.00  0.00     0.013 A 
HETATM   22  C   UNL     1       2.874   3.154   3.586  1.00  0.00     0.010 A 
BRANCH  20  23
HETATM   23  C   UNL     1       5.034   6.033   4.803  1.00  0.00    -0.008 A 
HETATM   24  C   UNL     1       5.045   7.411   4.575  1.00  0.00     0.128 A 
HETATM   25  N   UNL     1       5.692   8.321   5.342  1.00  0.00    -0.272 NA
HETATM   26  C   UNL     1       6.366   7.846   6.409  1.00  0.00     0.116 A 
HETATM   27  C   UNL     1       6.423   6.504   6.738  1.00  0.00     0.020 A 
HETATM   28  C   UNL     1       5.750   5.592   5.923  1.00  0.00     0.015 A 
ENDBRANCH  20  23
ENDBRANCH  16  17
ENDBRANCH   1  16
TORSDOF 6
