REMARK  5 active torsions:
REMARK  status: ('A' for Active; 'I' for Inactive)
REMARK    1  A    between atoms: S_2  and  C_3 
REMARK    2  A    between atoms: C_3  and  C_4 
REMARK    3  A    between atoms: C_7  and  C_8 
REMARK       I    between atoms: C_8  and  N_9 
REMARK    4  A    between atoms: N_9  and  C_10 
REMARK    5  A    between atoms: C_12  and  C_13 
ROOT
HETATM    1  C   UNL     1       9.315   0.613   1.275  1.00  0.00     0.256 C 
HETATM    2  N   UNL     1       9.727   1.823   0.743  1.00  0.00    -0.323 N 
HETATM    3  O   UNL     1      10.036  -0.346   1.528  1.00  0.00    -0.267 OA
HETATM    4  H   UNL     1       9.032   2.543   0.615  1.00  0.00     0.169 HD
ENDROOT
BRANCH   2   5
HETATM    5  C   UNL     1      11.017   2.150   0.266  1.00  0.00     0.035 A 
HETATM    6  C   UNL     1      12.065   1.230   0.155  1.00  0.00     0.042 A 
HETATM    7  C   UNL     1      13.306   1.599  -0.392  1.00  0.00    -0.021 A 
HETATM    8  C   UNL     1      13.491   2.925  -0.803  1.00  0.00     0.012 A 
HETATM    9  C   UNL     1      12.458   3.855  -0.683  1.00  0.00     0.003 A 
HETATM   10  C   UNL     1      11.225   3.466  -0.160  1.00  0.00     0.029 A 
BRANCH   7  11
HETATM   11  C   UNL     1      14.353   0.600  -0.557  1.00  0.00     0.010 A 
HETATM   12  C   UNL     1      14.279  -0.814  -0.613  1.00  0.00     0.152 A 
HETATM   13  N   UNL     1      15.471  -1.391  -0.791  1.00  0.00    -0.187 NA
HETATM   14  N   UNL     1      16.317  -0.352  -0.837  1.00  0.00    -0.289 N 
HETATM   15  H   UNL     1      17.305  -0.543  -0.963  1.00  0.00     0.188 HD
HETATM   16  C   UNL     1      15.701   0.859  -0.704  1.00  0.00     0.123 A 
ENDBRANCH   7  11
ENDBRANCH   2   5
BRANCH   1  17
HETATM   17  C   UNL     1       7.845   0.465   1.518  1.00  0.00     0.032 A 
HETATM   18  C   UNL     1       6.979   1.548   1.708  1.00  0.00     0.017 A 
HETATM   19  C   UNL     1       5.604   1.331   1.852  1.00  0.00     0.009 A 
HETATM   20  C   UNL     1       5.075   0.032   1.827  1.00  0.00    -0.049 A 
HETATM   21  C   UNL     1       5.951  -1.051   1.685  1.00  0.00     0.009 A 
HETATM   22  C   UNL     1       7.322  -0.836   1.532  1.00  0.00     0.017 A 
BRANCH  20  23
HETATM   23  C   UNL     1       3.588  -0.198   1.927  1.00  0.00     0.112 C 
BRANCH  23  24
HETATM   24  S   UNL     1       2.686   0.277   0.417  1.00  0.00    -0.169 SA
HETATM   25  C   UNL     1       3.419  -0.891  -0.757  1.00  0.00     0.090 C 
ENDBRANCH  23  24
ENDBRANCH  20  23
ENDBRANCH   1  17
TORSDOF 5
