REMARK  5 active torsions:
REMARK  status: ('A' for Active; 'I' for Inactive)
REMARK    1  A    between atoms: C_5  and  C_6 
REMARK    2  A    between atoms: C_6  and  O_7 
REMARK    3  A    between atoms: O_7  and  C_8 
REMARK    4  A    between atoms: C_12  and  C_13 
REMARK    5  A    between atoms: C_30  and  O_31 
ROOT
HETATM    1  C   UNL     1       6.434   2.536  -1.447  1.00  0.00     0.130 A 
HETATM    2  C   UNL     1       5.061   2.689  -1.697  1.00  0.00     0.048 A 
HETATM    3 BR   UNL     1       4.025   1.312  -2.497  1.00  0.00    -0.048 Br
HETATM    4  C   UNL     1       4.413   3.882  -1.368  1.00  0.00     0.033 A 
HETATM    5  C   UNL     1       5.131   4.956  -0.819  1.00  0.00    -0.012 A 
HETATM    6  C   UNL     1       6.510   4.792  -0.599  1.00  0.00     0.050 A 
HETATM    7  C   UNL     1       7.176   3.603  -0.927  1.00  0.00     0.104 A 
ENDROOT
BRANCH   5   8
HETATM    8  C   UNL     1       4.454   6.244  -0.406  1.00  0.00     0.219 C 
HETATM    9  N   UNL     1       3.972   6.145   0.946  1.00  0.00    -0.332 N 
HETATM   10  C   UNL     1       3.091   7.052   1.472  1.00  0.00     0.256 C 
HETATM   11  H   UNL     1       4.568   5.698   1.628  1.00  0.00     0.165 HD
HETATM   12  O   UNL     1       2.970   7.223   2.679  1.00  0.00    -0.267 OA
HETATM   13  C   UNL     1       2.284   7.762   0.494  1.00  0.00     0.073 A 
HETATM   14  C   UNL     1       2.444   7.468  -0.841  1.00  0.00     0.088 A 
HETATM   15  C   UNL     1       1.270   8.749   0.704  1.00  0.00    -0.023 A 
HETATM   16  S   UNL     1       1.369   8.332  -1.835  1.00  0.00    -0.074 SA
HETATM   17  N   UNL     1       3.349   6.573  -1.291  1.00  0.00    -0.358 N 
HETATM   18  C   UNL     1       0.673   9.112  -0.490  1.00  0.00     0.018 A 
HETATM   19  C   UNL     1      -0.447  10.085  -0.626  1.00  0.00     0.281 C 
HETATM   20  N   UNL     1      -1.109  10.360   0.721  1.00  0.00    -0.070 N 
HETATM   21  C   UNL     1      -0.071  10.557   1.824  1.00  0.00     0.239 C 
HETATM   22  H   UNL     1      -1.602  11.255   0.617  1.00  0.00     0.279 HD
HETATM   23  C   UNL     1      -2.157   9.342   1.070  1.00  0.00     0.270 C 
HETATM   24  C   UNL     1       0.818   9.315   2.017  1.00  0.00     0.068 C 
HETATM   25  H   UNL     1       3.586   6.567  -2.280  1.00  0.00     0.162 HD
ENDBRANCH   5   8
BRANCH   7  26
HETATM   26  O   UNL     1       8.512   3.639  -0.641  1.00  0.00    -0.353 OA
HETATM   27  C   UNL     1       9.373   2.802  -1.401  1.00  0.00     0.210 C 
ENDBRANCH   7  26
BRANCH   1  28
HETATM   28  O   UNL     1       7.046   1.315  -1.742  1.00  0.00    -0.271 OA
BRANCH  28  29
HETATM   29  C   UNL     1       6.856   0.376  -0.742  1.00  0.00     0.298 C 
HETATM   30  O   UNL     1       6.320   0.555   0.341  1.00  0.00    -0.259 OA
BRANCH  29  31
HETATM   31  C   UNL     1       7.352  -0.947  -1.208  1.00  0.00     0.040 A 
HETATM   32  C   UNL     1       6.929  -2.089  -0.517  1.00  0.00     0.018 A 
HETATM   33  C   UNL     1       7.346  -3.357  -0.929  1.00  0.00     0.007 A 
HETATM   34  C   UNL     1       8.189  -3.500  -2.037  1.00  0.00    -0.062 A 
HETATM   35  C   UNL     1       8.659  -4.859  -2.467  1.00  0.00     0.048 C 
HETATM   36  C   UNL     1       8.633  -2.355  -2.710  1.00  0.00     0.007 A 
HETATM   37  C   UNL     1       8.214  -1.085  -2.303  1.00  0.00     0.018 A 
ENDBRANCH  29  31
ENDBRANCH  28  29
ENDBRANCH   1  28
TORSDOF 5
