REMARK  8 active torsions:
REMARK  status: ('A' for Active; 'I' for Inactive)
REMARK    1  A    between atoms: C_2  and  O_3 
REMARK    2  A    between atoms: O_3  and  C_4 
REMARK    3  A    between atoms: C_4  and  C_5 
REMARK    4  A    between atoms: C_6  and  C_8 
REMARK    5  A    between atoms: C_6  and  O_7 
REMARK    6  A    between atoms: C_16  and  C_17 
REMARK    7  A    between atoms: C_18  and  C_19 
REMARK    8  A    between atoms: N_26  and  C_27 
ROOT
HETATM    1  C   UNL     1       5.615  -0.308  -0.919  1.00  0.00     0.177 C 
HETATM    2  C   UNL     1       5.664  -1.544  -1.830  1.00  0.00     0.250 C 
HETATM    3  N   UNL     1       6.131  -1.101  -3.139  1.00  0.00    -0.303 N 
HETATM    4  C   UNL     1       7.306  -0.430  -3.243  1.00  0.00     0.319 C 
HETATM    5  O   UNL     1       7.937  -0.402  -4.289  1.00  0.00    -0.247 OA
HETATM    6  N   UNL     1       7.742   0.178  -2.117  1.00  0.00    -0.333 N 
HETATM    7  C   UNL     1       6.936   0.471  -0.944  1.00  0.00     0.142 C 
HETATM    8  H   UNL     1       5.973  -1.717  -3.929  1.00  0.00     0.167 HD
HETATM    9  H   UNL     1       8.622   0.668  -2.236  1.00  0.00     0.165 HD
ENDROOT
BRANCH   7  10
HETATM   10  C   UNL     1       7.851   0.405   0.248  1.00  0.00     0.015 A 
HETATM   11  C   UNL     1       8.382   1.499   1.010  1.00  0.00     0.097 A 
HETATM   12  N   UNL     1       9.137   1.062   2.026  1.00  0.00    -0.167 NA
HETATM   13  N   UNL     1       9.122  -0.284   1.952  1.00  0.00    -0.244 N 
HETATM   14  C   UNL     1       8.362  -0.710   0.886  1.00  0.00     0.130 A 
BRANCH  11  15
HETATM   15  C   UNL     1       8.197   2.942   0.831  1.00  0.00    -0.005 A 
HETATM   16  C   UNL     1       7.931   3.748   1.949  1.00  0.00     0.014 A 
HETATM   17  C   UNL     1       7.765   5.128   1.812  1.00  0.00     0.001 A 
HETATM   18  C   UNL     1       7.863   5.718   0.554  1.00  0.00     0.000 A 
HETATM   19  C   UNL     1       8.140   4.932  -0.563  1.00  0.00     0.001 A 
HETATM   20  C   UNL     1       8.316   3.552  -0.425  1.00  0.00     0.014 A 
ENDBRANCH  11  15
BRANCH  13  21
HETATM   21  C   UNL     1       9.825  -1.078   2.902  1.00  0.00     0.058 A 
HETATM   22  C   UNL     1      10.534  -0.446   3.936  1.00  0.00     0.031 A 
HETATM   23  C   UNL     1      11.227  -1.205   4.882  1.00  0.00     0.002 A 
HETATM   24  C   UNL     1      11.220  -2.595   4.803  1.00  0.00     0.000 A 
HETATM   25  C   UNL     1      10.521  -3.231   3.778  1.00  0.00     0.002 A 
HETATM   26  C   UNL     1       9.823  -2.478   2.828  1.00  0.00     0.031 A 
ENDBRANCH  13  21
ENDBRANCH   7  10
BRANCH   1  27
HETATM   27  C   UNL     1       5.029  -0.455   0.467  1.00  0.00     0.270 C 
HETATM   28  O   UNL     1       5.070   0.440   1.302  1.00  0.00    -0.265 OA
BRANCH  27  29
HETATM   29  O   UNL     1       4.360  -1.619   0.635  1.00  0.00    -0.321 OA
BRANCH  29  30
HETATM   30  C   UNL     1       3.699  -1.801   1.897  1.00  0.00     0.174 C 
HETATM   31  C   UNL     1       4.674  -2.325   2.935  1.00  0.00     0.034 C 
ENDBRANCH  29  30
ENDBRANCH  27  29
ENDBRANCH   1  27
BRANCH   2  32
HETATM   32  C   UNL     1       6.523  -2.754  -1.298  1.00  0.00     0.439 C 
HETATM   33  F   UNL     1       6.265  -3.087  -0.017  1.00  0.00    -0.166 F 
HETATM   34  F   UNL     1       6.299  -3.862  -2.053  1.00  0.00    -0.166 F 
HETATM   35  F   UNL     1       7.853  -2.517  -1.377  1.00  0.00    -0.166 F 
ENDBRANCH   2  32
BRANCH   2  36
HETATM   36  O   UNL     1       4.322  -1.954  -2.128  1.00  0.00    -0.363 OA
HETATM   37  H   UNL     1       3.997  -1.332  -2.801  1.00  0.00     0.213 HD
ENDBRANCH   2  36
TORSDOF 8
