REMARK  6 active torsions:
REMARK  status: ('A' for Active; 'I' for Inactive)
REMARK    1  A    between atoms: C_9  and  C_10 
REMARK       I    between atoms: C_10  and  N_11 
REMARK    2  A    between atoms: N_11  and  N_12 
REMARK       I    between atoms: N_12  and  C_13 
REMARK       I    between atoms: C_13  and  N_14 
REMARK    3  A    between atoms: N_14  and  C_15 
REMARK    4  A    between atoms: C_15  and  C_16 
REMARK    5  A    between atoms: C_16  and  C_17 
REMARK    6  A    between atoms: C_16  and  C_27 
ROOT
HETATM    1  N   UNL     1      -3.694  10.574  -2.550  1.00  0.00    -0.249 N 
HETATM    2  C   UNL     1      -3.612   9.241  -2.219  1.00  0.00     0.334 C 
HETATM    3  N   UNL     1      -2.702   9.028  -1.214  1.00  0.00    -0.341 N 
HETATM    4  O   UNL     1      -4.259   8.360  -2.772  1.00  0.00    -0.246 OA
HETATM    5  H   UNL     1      -3.438  11.278  -1.866  1.00  0.00     0.192 HD
HETATM    6  H   UNL     1      -1.939   9.691  -1.190  1.00  0.00     0.164 HD
ENDROOT
BRANCH   1   7
HETATM    7  N   UNL     1      -4.621  10.969  -3.524  1.00  0.00    -0.261 N 
HETATM    8  C   UNL     1      -4.436  12.202  -4.117  1.00  0.00     0.291 C 
HETATM    9  O   UNL     1      -3.682  13.063  -3.688  1.00  0.00    -0.264 OA
HETATM   10  H   UNL     1      -5.070  10.222  -4.062  1.00  0.00     0.190 HD
BRANCH   8  11
HETATM   11  C   UNL     1      -5.240  12.385  -5.411  1.00  0.00     0.157 A 
HETATM   12  C   UNL     1      -5.499  13.727  -5.984  1.00  0.00     0.016 A 
HETATM   13  C   UNL     1      -5.144  14.933  -5.368  1.00  0.00     0.015 A 
HETATM   14  C   UNL     1      -6.141  13.769  -7.223  1.00  0.00     0.046 A 
HETATM   15  C   UNL     1      -5.396  16.154  -6.004  1.00  0.00     0.001 A 
HETATM   16  C   UNL     1      -6.011  16.184  -7.253  1.00  0.00     0.001 A 
HETATM   17  C   UNL     1      -6.392  14.991  -7.863  1.00  0.00     0.018 A 
HETATM   18  C   UNL     1      -6.580  12.514  -7.854  1.00  0.00     0.272 A 
HETATM   19  O   UNL     1      -7.149  12.505  -8.940  1.00  0.00    -0.266 OA
HETATM   20  N   UNL     1      -6.327  11.363  -7.148  1.00  0.00    -0.242 N 
HETATM   21  N   UNL     1      -5.651  11.279  -5.971  1.00  0.00    -0.166 NA
HETATM   22  H   UNL     1      -6.621  10.487  -7.572  1.00  0.00     0.192 HD
ENDBRANCH   8  11
ENDBRANCH   1   7
BRANCH   3  23
HETATM   23  C   UNL     1      -2.374   7.675  -0.791  1.00  0.00     0.139 C 
BRANCH  23  24
HETATM   24  C   UNL     1      -1.451   7.569   0.446  1.00  0.00     0.079 C 
BRANCH  24  25
HETATM   25  C   UNL     1      -2.028   8.208   1.692  1.00  0.00    -0.020 A 
HETATM   26  C   UNL     1      -2.587   7.509   2.819  1.00  0.00    -0.001 A 
HETATM   27  C   UNL     1      -3.007   8.465   3.744  1.00  0.00     0.042 A 
HETATM   28  C   UNL     1      -2.775   6.147   3.139  1.00  0.00     0.014 A 
HETATM   29  C   UNL     1      -3.604   8.133   4.966  1.00  0.00     0.030 A 
HETATM   30  N   UNL     1      -2.718   9.698   3.211  1.00  0.00    -0.365 N 
HETATM   31  C   UNL     1      -3.777   6.777   5.256  1.00  0.00     0.002 A 
HETATM   32  C   UNL     1      -3.369   5.796   4.357  1.00  0.00     0.001 A 
HETATM   33  H   UNL     1      -2.914  10.578   3.667  1.00  0.00     0.165 HD
HETATM   34  C   UNL     1      -2.133   9.557   1.983  1.00  0.00     0.097 A 
ENDBRANCH  24  25
BRANCH  24  35
HETATM   35  C   UNL     1       0.000   7.971   0.196  1.00  0.00    -0.007 A 
HETATM   36  S   UNL     1       0.442   9.426  -0.603  1.00  0.00    -0.106 SA
HETATM   37  C   UNL     1       2.110   9.095  -0.447  1.00  0.00     0.050 A 
HETATM   38  C   UNL     1       2.341   7.905   0.202  1.00  0.00     0.008 A 
HETATM   39  C   UNL     1       1.128   7.260   0.575  1.00  0.00     0.016 A 
ENDBRANCH  24  35
ENDBRANCH  23  24
ENDBRANCH   3  23
TORSDOF 6
