REMARK  7 active torsions:
REMARK  status: ('A' for Active; 'I' for Inactive)
REMARK    1  A    between atoms: C_2  and  N_3 
REMARK    2  A    between atoms: C_8  and  C_9 
REMARK    3  A    between atoms: C_9  and  N_10 
REMARK       I    between atoms: N_10  and  C_11 
REMARK       I    between atoms: C_11  and  N_12 
REMARK    4  A    between atoms: N_12  and  C_13 
REMARK    5  A    between atoms: C_14  and  O_15 
REMARK    6  A    between atoms: C_18  and  O_19 
REMARK    7  A    between atoms: C_26  and  N_27 
ROOT
HETATM    1  C   UNL     1       3.478  -4.363   2.351  1.00  0.00     0.118 C 
HETATM    2  C   UNL     1       4.325  -4.733   1.135  1.00  0.00     0.037 C 
ENDROOT
BRANCH   1   3
HETATM    3  C   UNL     1       4.016  -4.964   3.643  1.00  0.00     0.006 C 
HETATM    4  C   UNL     1       4.048  -6.391   3.951  1.00  0.00    -0.031 C 
HETATM    5  C   UNL     1       4.451  -6.629   5.252  1.00  0.00     0.017 C 
HETATM    6  C   UNL     1       3.744  -7.546   3.031  1.00  0.00     0.068 C 
HETATM    7  C   UNL     1       4.575  -7.970   5.891  1.00  0.00     0.281 C 
HETATM    8  S   UNL     1       4.794  -5.213   6.103  1.00  0.00    -0.074 SA
HETATM    9  N   UNL     1       4.701  -9.064   4.837  1.00  0.00    -0.067 N 
HETATM   10  H   UNL     1       4.503  -9.951   5.317  1.00  0.00     0.280 HD
HETATM   11  C   UNL     1       3.602  -8.883   3.786  1.00  0.00     0.240 C 
HETATM   12  C   UNL     1       4.537  -4.248   4.721  1.00  0.00     0.089 C 
BRANCH   9  13
HETATM   13  C   UNL     1       6.081  -9.186   4.226  1.00  0.00     0.231 C 
HETATM   14  C   UNL     1       7.075  -9.757   5.221  1.00  0.00     0.034 C 
ENDBRANCH   9  13
BRANCH  12  15
HETATM   15  N   UNL     1       4.911  -2.889   4.816  1.00  0.00    -0.327 N 
HETATM   16  C   UNL     1       5.058  -2.133   5.972  1.00  0.00     0.097 A 
HETATM   17  C   UNL     1       5.482  -0.863   5.651  1.00  0.00     0.019 A 
HETATM   18  C   UNL     1       5.639  -0.821   4.255  1.00  0.00     0.019 A 
HETATM   19  C   UNL     1       5.305  -2.067   3.772  1.00  0.00     0.097 A 
ENDBRANCH  12  15
ENDBRANCH   1   3
BRANCH   1  20
HETATM   20  N   UNL     1       2.096  -4.794   2.173  1.00  0.00    -0.334 N 
HETATM   21  C   UNL     1       1.071  -4.010   2.649  1.00  0.00     0.321 C 
HETATM   22  N   UNL     1      -0.176  -4.340   2.195  1.00  0.00    -0.306 N 
HETATM   23  O   UNL     1       1.244  -3.014   3.341  1.00  0.00    -0.247 OA
HETATM   24  H   UNL     1      -0.830  -3.561   2.190  1.00  0.00     0.171 HD
HETATM   25  H   UNL     1       1.870  -5.177   1.266  1.00  0.00     0.165 HD
BRANCH  22  26
HETATM   26  C   UNL     1      -0.677  -5.561   1.704  1.00  0.00     0.071 A 
HETATM   27  C   UNL     1      -1.791  -5.538   0.848  1.00  0.00     0.097 A 
HETATM   28  C   UNL     1      -2.319  -6.739   0.355  1.00  0.00     0.077 A 
HETATM   29  C   UNL     1      -1.740  -7.968   0.704  1.00  0.00     0.092 A 
HETATM   30  C   UNL     1      -0.647  -7.975   1.583  1.00  0.00     0.069 A 
HETATM   31 CL   UNL     1       0.115  -9.446   2.089  1.00  0.00    -0.081 Cl
HETATM   32  C   UNL     1      -0.129  -6.783   2.088  1.00  0.00     0.059 A 
BRANCH  27  33
HETATM   33  O   UNL     1      -2.289  -4.293   0.553  1.00  0.00    -0.354 OA
HETATM   34  C   UNL     1      -2.993  -4.169  -0.680  1.00  0.00     0.210 C 
ENDBRANCH  27  33
BRANCH  29  35
HETATM   35  O   UNL     1      -2.174  -9.188   0.259  1.00  0.00    -0.354 OA
HETATM   36  C   UNL     1      -3.235  -9.213  -0.688  1.00  0.00     0.210 C 
ENDBRANCH  29  35
ENDBRANCH  22  26
ENDBRANCH   1  20
TORSDOF 7
