REMARK  4 active torsions:
REMARK  status: ('A' for Active; 'I' for Inactive)
REMARK    1  A    between atoms: C_6  and  C_7 
REMARK    2  A    between atoms: C_8  and  C_9 
REMARK       I    between atoms: C_9  and  N_10 
REMARK    3  A    between atoms: N_10  and  C_11 
REMARK    4  A    between atoms: C_18  and  C_19 
REMARK       I    between atoms: C_19  and  N_20 
ROOT
HETATM    1  C   UNL     1      -4.596  -4.519  -2.901  1.00  0.00     0.035 A 
HETATM    2  C   UNL     1      -5.264  -5.755  -2.882  1.00  0.00     0.046 A 
HETATM    3  C   UNL     1      -6.459  -5.915  -3.614  1.00  0.00     0.030 A 
HETATM    4  C   UNL     1      -6.961  -4.831  -4.320  1.00  0.00     0.063 A 
HETATM    5  N   UNL     1      -8.106  -5.282  -4.914  1.00  0.00    -0.277 N 
HETATM    6  H   UNL     1      -8.737  -4.755  -5.508  1.00  0.00     0.189 HD
HETATM    7  N   UNL     1      -8.389  -6.573  -4.667  1.00  0.00    -0.168 NA
HETATM    8  C   UNL     1      -7.379  -6.976  -3.864  1.00  0.00     0.156 A 
HETATM    9  C   UNL     1      -6.335  -3.584  -4.344  1.00  0.00     0.034 A 
HETATM   10  C   UNL     1      -5.140  -3.453  -3.622  1.00  0.00     0.032 A 
ENDROOT
BRANCH   1  11
HETATM   11  N   UNL     1      -3.397  -4.428  -2.163  1.00  0.00    -0.327 N 
HETATM   12  C   UNL     1      -2.496  -3.385  -2.168  1.00  0.00     0.227 C 
HETATM   13  O   UNL     1      -2.511  -2.399  -2.890  1.00  0.00    -0.273 OA
HETATM   14  H   UNL     1      -3.145  -5.240  -1.616  1.00  0.00     0.169 HD
BRANCH  12  15
HETATM   15  C   UNL     1      -1.337  -3.573  -1.252  1.00  0.00     0.087 A 
HETATM   16  C   UNL     1      -1.162  -2.737   0.005  1.00  0.00     0.032 A 
HETATM   17  C   UNL     1      -1.442  -4.221   0.101  1.00  0.00     0.025 A 
BRANCH  16  18
HETATM   18  C   UNL     1      -2.200  -1.771   0.535  1.00  0.00    -0.051 A 
HETATM   19  C   UNL     1      -2.676  -0.694  -0.231  1.00  0.00     0.031 A 
HETATM   20  C   UNL     1      -3.625   0.195   0.279  1.00  0.00     0.034 A 
HETATM   21  C   UNL     1      -4.103   0.050   1.577  1.00  0.00     0.024 A 
HETATM   22 CL   UNL     1      -4.205   1.485  -0.703  1.00  0.00    -0.084 Cl
HETATM   23  C   UNL     1      -3.626  -0.990   2.369  1.00  0.00     0.002 A 
HETATM   24  C   UNL     1      -2.685  -1.885   1.851  1.00  0.00     0.007 A 
ENDBRANCH  16  18
ENDBRANCH  12  15
ENDBRANCH   1  11
BRANCH   8  25
HETATM   25  C   UNL     1      -7.303  -8.355  -3.363  1.00  0.00     0.270 C 
HETATM   26  N   UNL     1      -8.316  -9.164  -3.798  1.00  0.00    -0.365 N 
HETATM   27  H   UNL     1      -9.015  -8.774  -4.420  1.00  0.00     0.159 HD
HETATM   28  H   UNL     1      -8.340 -10.134  -3.525  1.00  0.00     0.159 HD
HETATM   29  O   UNL     1      -6.419  -8.777  -2.624  1.00  0.00    -0.266 OA
ENDBRANCH   8  25
TORSDOF 4
