REMARK  11 active torsions:
REMARK  status: ('A' for Active; 'I' for Inactive)
REMARK    1  A    between atoms: C_1  and  C_7 
REMARK    2  A    between atoms: C_1  and  C_11 
REMARK    3  A    between atoms: C_8  and  C_13 
REMARK    4  A    between atoms: C_8  and  O_14 
REMARK       I    between atoms: C_11  and  N_12 
REMARK    5  A    between atoms: N_12  and  C_13 
REMARK    6  A    between atoms: C_18  and  N_19 
REMARK    7  A    between atoms: N_19  and  C_20 
REMARK    8  A    between atoms: C_20  and  C_21 
REMARK    9  A    between atoms: C_28  and  C_29 
REMARK   10  A    between atoms: C_29  and  O_30 
REMARK   11  A    between atoms: C_31  and  O_32 
ROOT
HETATM    1  C           1       0.224   1.998  -0.177  0.00  0.00     0.012 A 
HETATM    2  C           1       1.332   0.346   2.880  0.00  0.00     0.016 C 
HETATM    3  C           1      -0.061   0.916   2.502  0.00  0.00    -0.030 C 
HETATM    4  C           1      -0.570   0.139   1.245  0.00  0.00     0.056 C 
HETATM    5  C           1      -1.967   3.766   3.225  0.00  0.00     0.020 C 
HETATM    6  C           1       0.136   0.688   0.041  0.00  0.00     0.056 A 
HETATM    7  S           1       0.967   2.254  -1.413  0.00  0.00    -0.055 SA
HETATM    8  C           1       1.178   0.830  -1.711  0.00  0.00     0.167 A 
HETATM    9  N           1       0.708   0.018  -0.858  0.00  0.00    -0.228 NA
HETATM   10  C           1      -0.357   2.940   0.830  0.00  0.00     0.055 C 
HETATM   11  C           1       0.060   2.468   2.247  0.00  0.00     0.012 C 
HETATM   12  C           1      -0.462   3.428   3.365  0.00  0.00     0.008 C 
HETATM   13  C           1      -0.220   2.831   4.764  0.00  0.00     0.128 C 
HETATM   14  C           1      -0.665   1.383   4.964  0.00  0.00     0.033 C 
HETATM   15  C           1      -1.022   0.638   3.675  0.00  0.00     0.013 C 
ENDROOT
BRANCH   4  16
HETATM   16  C           1      -0.517  -1.403   1.267  0.00  0.00     0.114 C 
BRANCH  16  17
HETATM   17  C           1      -1.176  -2.052   0.054  0.00  0.00     0.218 C 
HETATM   18  N           1      -0.702  -3.303  -0.235  0.00  0.00    -0.359 N 
HETATM   19  H           1      -0.005  -3.710   0.388  0.00  0.00     0.162 HD
HETATM   20  O           1      -2.031  -1.501  -0.595  0.00  0.00    -0.274 OA
BRANCH  18  21
HETATM   21  C           1      -1.140  -4.085  -1.398  0.00  0.00     0.148 C 
BRANCH  21  22
HETATM   22  C           1       0.090  -4.533  -2.188  0.00  0.00     0.186 C 
BRANCH  22  23
HETATM   23  O           1      -0.331  -5.148  -3.381  0.00  0.00    -0.394 OA
HETATM   24  C           1       0.755  -5.516  -4.204  0.00  0.00     0.201 C 
ENDBRANCH  22  23
ENDBRANCH  21  22
ENDBRANCH  18  21
ENDBRANCH  16  17
ENDBRANCH   4  16
BRANCH  12  25
HETATM   25  C           1       0.293   4.779   3.256  0.00  0.00     0.176 C 
BRANCH  25  26
HETATM   26  O           1       0.164   5.530   4.446  0.00  0.00    -0.400 OA
HETATM   27  H           1       0.487   6.422   4.301  0.00  0.00     0.209 HD
ENDBRANCH  25  26
ENDBRANCH  12  25
BRANCH   8  28
HETATM   28  N           1       1.818   0.522  -2.760  0.00  0.00    -0.365 N 
HETATM   29  H           1       2.137   1.301  -3.389  0.00  0.00     0.162 HD
BRANCH  28  30
HETATM   30  C           1       2.147  -0.865  -3.153  0.00  0.00     0.160 C 
BRANCH  30  31
HETATM   31  C           1       1.186  -1.348  -4.216  0.00  0.00    -0.041 A 
HETATM   32  C           1      -0.126  -1.475  -3.945  0.00  0.00     0.009 A 
HETATM   33  C           1      -0.986  -1.927  -4.870  0.00  0.00     0.001 A 
HETATM   34  C           1      -0.543  -2.258  -6.091  0.00  0.00     0.000 A 
HETATM   35  C           1       0.761  -2.132  -6.379  0.00  0.00     0.001 A 
HETATM   36  C           1       1.616  -1.682  -5.447  0.00  0.00     0.009 A 
ENDBRANCH  30  31
ENDBRANCH  28  30
ENDBRANCH   8  28
BRANCH  13  37
HETATM   37  O           1       1.145   2.963   5.091  0.00  0.00    -0.395 OA
HETATM   38  H           1       1.307   3.888   5.302  0.00  0.00     0.210 HD
ENDBRANCH  13  37
TORSDOF 11
