REMARK  5 active torsions:
REMARK  status: ('A' for Active; 'I' for Inactive)
REMARK    1  A    between atoms: C_8  and  N_9 
REMARK    2  A    between atoms: C_12  and  N_13 
REMARK    3  A    between atoms: N_13  and  C_15 
REMARK    4  A    between atoms: C_15  and  C_16 
REMARK    5  A    between atoms: C_17  and  C_18 
ROOT
HETATM    1  N   UNL     1       7.814  -4.949   0.250  1.00  0.00    -0.067 N 
HETATM    2  H   UNL     1       7.754  -4.268   1.018  1.00  0.00     0.280 HD
HETATM    3  C   UNL     1       9.096  -4.641  -0.494  1.00  0.00     0.270 C 
ENDROOT
BRANCH   1   4
HETATM    4  C   UNL     1       6.530  -4.874  -0.600  1.00  0.00     0.190 C 
HETATM    5  C   UNL     1       5.293  -4.673   0.292  1.00  0.00     0.048 C 
HETATM    6  C   UNL     1       5.125  -3.233   0.780  1.00  0.00     0.099 C 
HETATM    7  N   UNL     1       5.145  -2.329  -0.378  1.00  0.00    -0.268 NA
HETATM    8  C   UNL     1       6.380  -2.381  -1.166  1.00  0.00     0.099 C 
HETATM    9  C   UNL     1       6.560  -3.800  -1.699  1.00  0.00     0.048 C 
BRANCH   7  10
HETATM   10  C   UNL     1       4.660  -1.038  -0.116  1.00  0.00     0.109 A 
HETATM   11  N   UNL     1       4.454  -0.650   1.155  1.00  0.00    -0.224 NA
HETATM   12  C   UNL     1       3.919   0.576   1.375  1.00  0.00     0.102 A 
HETATM   13  N   UNL     1       3.577   1.415   0.389  1.00  0.00    -0.348 N 
HETATM   14  C   UNL     1       3.652   0.986   2.789  1.00  0.00     0.091 C 
HETATM   15  C   UNL     1       3.771   1.061  -0.891  1.00  0.00     0.009 A 
HETATM   16  H   UNL     1       3.160   2.316   0.619  1.00  0.00     0.167 HD
HETATM   17  C   UNL     1       3.367   2.006  -1.976  1.00  0.00     0.068 C 
HETATM   18  C   UNL     1       4.320  -0.192  -1.167  1.00  0.00     0.069 A 
ENDBRANCH   7  10
ENDBRANCH   1   4
BRANCH   1  19
HETATM   19  C   UNL     1       7.944  -6.323   0.931  1.00  0.00     0.277 C 
BRANCH  19  20
HETATM   20  C   UNL     1       8.991  -6.375   1.982  1.00  0.00     0.016 A 
HETATM   21  C   UNL     1       8.991  -5.745   3.264  1.00  0.00     0.096 A 
HETATM   22  N   UNL     1      10.160  -5.934   3.885  1.00  0.00    -0.174 NA
HETATM   23  N   UNL     1      10.846  -6.770   3.098  1.00  0.00    -0.288 N 
HETATM   24  H   UNL     1      11.754  -7.099   3.418  1.00  0.00     0.188 HD
HETATM   25  C   UNL     1      10.202  -7.038   1.925  1.00  0.00     0.120 A 
BRANCH  21  26
HETATM   26  C   UNL     1       7.948  -4.932   3.882  1.00  0.00    -0.005 A 
HETATM   27  C   UNL     1       6.644  -5.423   4.021  1.00  0.00     0.014 A 
HETATM   28  C   UNL     1       5.659  -4.644   4.634  1.00  0.00     0.001 A 
HETATM   29  C   UNL     1       5.975  -3.375   5.118  1.00  0.00     0.000 A 
HETATM   30  C   UNL     1       7.274  -2.885   4.997  1.00  0.00     0.001 A 
HETATM   31  C   UNL     1       8.258  -3.661   4.383  1.00  0.00     0.014 A 
ENDBRANCH  21  26
ENDBRANCH  19  20
ENDBRANCH   1  19
TORSDOF 5
