REMARK  8 active torsions:
REMARK  status: ('A' for Active; 'I' for Inactive)
REMARK    1  A    between atoms: C_2  and  N_3 
REMARK    2  A    between atoms: N_7  and  C_8 
REMARK    3  A    between atoms: C_8  and  C_9 
REMARK    4  A    between atoms: C_10  and  C_11 
REMARK    5  A    between atoms: C_16  and  C_17 
REMARK       I    between atoms: C_17  and  N_18 
REMARK    6  A    between atoms: N_18  and  C_19 
REMARK    7  A    between atoms: C_21  and  O_22 
REMARK    8  A    between atoms: O_22  and  C_23 
ROOT
HETATM    1  C   UNL     1      -2.137  -5.667   5.415  1.00  0.00     0.256 C 
HETATM    2  N   UNL     1      -3.171  -4.841   5.820  1.00  0.00    -0.323 N 
HETATM    3  O   UNL     1      -1.763  -6.681   5.994  1.00  0.00    -0.267 OA
HETATM    4  H   UNL     1      -3.390  -4.034   5.262  1.00  0.00     0.169 HD
ENDROOT
BRANCH   1   5
HETATM    5  C   UNL     1      -1.418  -5.285   4.149  1.00  0.00     0.033 A 
HETATM    6  C   UNL     1      -0.449  -6.175   3.651  1.00  0.00     0.034 A 
HETATM    7  C   UNL     1       0.283  -5.909   2.473  1.00  0.00     0.056 A 
HETATM    8  C   UNL     1       0.038  -4.702   1.782  1.00  0.00    -0.015 A 
HETATM    9  C   UNL     1      -0.939  -3.819   2.277  1.00  0.00     0.011 A 
HETATM   10  C   UNL     1      -1.652  -4.101   3.446  1.00  0.00     0.017 A 
BRANCH   7  11
HETATM   11  C   UNL     1       1.336  -6.915   2.041  1.00  0.00     0.418 C 
HETATM   12  F   UNL     1       1.495  -7.002   0.690  1.00  0.00    -0.166 F 
HETATM   13  F   UNL     1       2.565  -6.631   2.551  1.00  0.00    -0.166 F 
HETATM   14  F   UNL     1       1.048  -8.184   2.444  1.00  0.00    -0.166 F 
ENDBRANCH   7  11
BRANCH   8  15
HETATM   15  C   UNL     1       0.811  -4.297   0.542  1.00  0.00     0.312 C 
BRANCH  15  16
HETATM   16  N   UNL     1       2.225  -3.999   0.823  1.00  0.00     0.096 N 
HETATM   17  C   UNL     1       2.431  -2.844   1.717  1.00  0.00     0.300 C 
HETATM   18  C   UNL     1       2.105  -1.474   1.089  1.00  0.00     0.265 C 
HETATM   19  N   UNL     1       2.877  -1.280  -0.211  1.00  0.00    -0.068 N 
HETATM   20  H   UNL     1       3.875  -1.251   0.039  1.00  0.00     0.280 HD
HETATM   21  C   UNL     1       2.711  -2.474  -1.153  1.00  0.00     0.265 C 
HETATM   22  C   UNL     1       2.994  -3.803  -0.422  1.00  0.00     0.300 C 
BRANCH  19  23
HETATM   23  C   UNL     1       2.538   0.009  -0.927  1.00  0.00     0.230 C 
HETATM   24  C   UNL     1       2.933   1.221  -0.105  1.00  0.00     0.034 C 
ENDBRANCH  19  23
ENDBRANCH  15  16
ENDBRANCH   8  15
ENDBRANCH   1   5
BRANCH   2  25
HETATM   25  C   UNL     1      -4.035  -5.021   6.924  1.00  0.00     0.037 A 
HETATM   26  C   UNL     1      -3.975  -6.101   7.804  1.00  0.00     0.067 A 
HETATM   27  C   UNL     1      -4.934  -6.237   8.820  1.00  0.00     0.084 A 
HETATM   28  C   UNL     1      -5.921  -5.260   9.015  1.00  0.00    -0.028 A 
HETATM   29  C   UNL     1      -6.909  -5.366  10.141  1.00  0.00     0.051 C 
HETATM   30  C   UNL     1      -5.950  -4.158   8.156  1.00  0.00     0.012 A 
HETATM   31  C   UNL     1      -5.025  -4.048   7.115  1.00  0.00     0.030 A 
BRANCH  27  32
HETATM   32  O   UNL     1      -4.899  -7.291   9.708  1.00  0.00    -0.310 OA
BRANCH  32  33
HETATM   33  C   UNL     1      -4.761  -8.573   9.217  1.00  0.00     0.076 A 
HETATM   34  C   UNL     1      -4.112  -9.476  10.068  1.00  0.00     0.047 A 
HETATM   35  C   UNL     1      -3.959 -10.780   9.636  1.00  0.00    -0.020 A 
HETATM   36  C   UNL     1      -4.443 -11.179   8.393  1.00  0.00     0.041 A 
HETATM   37  C   UNL     1      -3.311 -11.948  10.317  1.00  0.00     0.144 A 
HETATM   38  N   UNL     1      -4.154 -12.518   8.188  1.00  0.00    -0.326 N 
HETATM   39  C   UNL     1      -5.107 -10.320   7.545  1.00  0.00     0.033 A 
HETATM   40  C   UNL     1      -3.478 -13.059   9.274  1.00  0.00     0.226 A 
HETATM   41  H   UNL     1      -4.387 -13.056   7.367  1.00  0.00     0.169 HD
HETATM   42  O   UNL     1      -3.092 -14.213   9.370  1.00  0.00    -0.273 OA
HETATM   43  C   UNL     1      -5.281  -9.001   7.976  1.00  0.00     0.039 A 
ENDBRANCH  32  33
ENDBRANCH  27  32
ENDBRANCH   2  25
TORSDOF 8
