REMARK  8 active torsions:
REMARK  status: ('A' for Active; 'I' for Inactive)
REMARK    1  A    between atoms: C_2  and  C_3 
REMARK    2  A    between atoms: C_3  and  N_4 
REMARK    3  A    between atoms: C_7  and  C_8 
REMARK       I    between atoms: C_8  and  N_9 
REMARK    4  A    between atoms: N_9  and  N_10 
REMARK       I    between atoms: N_10  and  C_11 
REMARK    5  A    between atoms: C_11  and  C_12 
REMARK    6  A    between atoms: C_15  and  O_16 
REMARK    7  A    between atoms: O_16  and  C_17 
REMARK    8  A    between atoms: C_23  and  C_24 
ROOT
HETATM    1  C   UNL     1       1.547   0.463  -4.932  1.00  0.00     0.273 C 
HETATM    2  N   UNL     1       0.384   1.197  -4.843  1.00  0.00    -0.263 N 
HETATM    3  O   UNL     1       2.219   0.446  -5.963  1.00  0.00    -0.266 OA
HETATM    4  H   UNL     1      -0.250   1.166  -4.052  1.00  0.00     0.190 HD
ENDROOT
BRANCH   2   5
HETATM    5  N   UNL     1      -0.021   1.892  -5.995  1.00  0.00    -0.263 N 
HETATM    6  C   UNL     1      -0.503   3.180  -5.852  1.00  0.00     0.270 C 
HETATM    7  O   UNL     1      -0.857   3.664  -4.783  1.00  0.00    -0.266 OA
HETATM    8  H   UNL     1       0.544   1.669  -6.817  1.00  0.00     0.190 HD
BRANCH   6   9
HETATM    9  C   UNL     1      -0.512   3.983  -7.110  1.00  0.00     0.033 A 
HETATM   10  C   UNL     1      -0.642   3.374  -8.364  1.00  0.00     0.020 A 
HETATM   11  C   UNL     1      -0.536   4.142  -9.525  1.00  0.00     0.038 A 
HETATM   12  C   UNL     1      -0.305   5.517  -9.451  1.00  0.00     0.068 A 
HETATM   13  C   UNL     1      -0.241   6.135  -8.201  1.00  0.00     0.038 A 
HETATM   14  C   UNL     1      -0.344   5.370  -7.032  1.00  0.00     0.020 A 
BRANCH  12  15
HETATM   15  O   UNL     1      -0.167   6.133 -10.662  1.00  0.00    -0.352 OA
BRANCH  15  16
HETATM   16  C   UNL     1       0.399   7.443 -10.662  1.00  0.00     0.171 C 
HETATM   17  C   UNL     1       0.861   7.748 -12.077  1.00  0.00     0.034 C 
ENDBRANCH  15  16
ENDBRANCH  12  15
ENDBRANCH   6   9
ENDBRANCH   2   5
BRANCH   1  18
HETATM   18  C   UNL     1       1.852  -0.383  -3.804  1.00  0.00     0.077 A 
HETATM   19  C   UNL     1       1.973  -1.786  -3.915  1.00  0.00     0.158 A 
HETATM   20  N   UNL     1       2.337  -2.369  -2.779  1.00  0.00    -0.183 NA
HETATM   21  N   UNL     1       2.487  -1.341  -1.922  1.00  0.00    -0.268 N 
HETATM   22  C   UNL     1       2.219  -0.107  -2.493  1.00  0.00     0.052 A 
BRANCH  21  23
HETATM   23  C   UNL     1       3.014  -1.613  -0.583  1.00  0.00     0.106 C 
HETATM   24  C   UNL     1       4.543  -1.532  -0.606  1.00  0.00     0.034 C 
BRANCH  23  25
HETATM   25  C   UNL     1       2.565  -2.966   0.011  1.00  0.00     0.022 C 
HETATM   26  C   UNL     1       1.062  -3.053   0.236  1.00  0.00     0.007 C 
ENDBRANCH  23  25
ENDBRANCH  21  23
BRANCH  22  27
HETATM   27  C   UNL     1       2.443   1.226  -1.774  1.00  0.00     0.038 A 
HETATM   28  C   UNL     1       2.833   2.454  -2.567  1.00  0.00     0.011 A 
HETATM   29  C   UNL     1       1.492   2.388  -1.918  1.00  0.00     0.011 A 
ENDBRANCH  22  27
ENDBRANCH   1  18
TORSDOF 8
