REMARK  7 active torsions:
REMARK  status: ('A' for Active; 'I' for Inactive)
REMARK    1  A    between atoms: N_3  and  C_4 
REMARK    2  A    between atoms: C_7  and  O_8 
REMARK    3  A    between atoms: C_14  and  C_15 
REMARK    4  A    between atoms: C_15  and  N_16 
REMARK       I    between atoms: N_16  and  C_17 
REMARK       I    between atoms: C_17  and  N_18 
REMARK    5  A    between atoms: N_18  and  C_19 
REMARK    6  A    between atoms: C_19  and  C_20 
REMARK    7  A    between atoms: C_20  and  C_21 
ROOT
HETATM    1  C   UNL     1       1.025   0.012   0.265  1.00  0.00     0.068 C 
HETATM    2  C   UNL     1       2.510   0.023   0.133  1.00  0.00     0.014 A 
HETATM    3  N   UNL     1       3.297   1.170   0.059  1.00  0.00    -0.319 N 
HETATM    4  C   UNL     1       4.634   0.769   0.017  1.00  0.00     0.021 A 
HETATM    5  C   UNL     1       5.779   1.707  -0.200  1.00  0.00     0.069 C 
HETATM    6  C   UNL     1       4.688  -0.616   0.126  1.00  0.00    -0.016 A 
HETATM    7  C   UNL     1       3.350  -1.073   0.169  1.00  0.00     0.035 A 
ENDROOT
BRANCH   6   8
HETATM    8  C   UNL     1       5.905  -1.477   0.162  1.00  0.00     0.165 C 
BRANCH   8   9
HETATM    9  N   UNL     1       6.358  -1.702  -1.190  1.00  0.00    -0.339 N 
HETATM   10  C   UNL     1       7.507  -2.316  -1.570  1.00  0.00     0.316 C 
HETATM   11  N   UNL     1       8.161  -3.004  -0.590  1.00  0.00    -0.343 N 
HETATM   12  O   UNL     1       7.911  -2.216  -2.723  1.00  0.00    -0.248 OA
HETATM   13  H   UNL     1       7.550  -3.440   0.085  1.00  0.00     0.164 HD
HETATM   14  H   UNL     1       5.945  -1.142  -1.924  1.00  0.00     0.164 HD
BRANCH  11  15
HETATM   15  C   UNL     1       9.357  -3.762  -0.912  1.00  0.00     0.129 C 
BRANCH  15  16
HETATM   16  C   UNL     1      10.111  -4.224   0.338  1.00  0.00     0.058 C 
BRANCH  16  17
HETATM   17  C   UNL     1       9.290  -5.108   1.251  1.00  0.00    -0.057 A 
HETATM   18  C   UNL     1       8.821  -6.354   0.813  1.00  0.00     0.007 A 
HETATM   19  C   UNL     1       8.049  -7.156   1.655  1.00  0.00     0.001 A 
HETATM   20  C   UNL     1       7.744  -6.725   2.945  1.00  0.00     0.000 A 
HETATM   21  C   UNL     1       8.214  -5.493   3.395  1.00  0.00     0.001 A 
HETATM   22  C   UNL     1       8.983  -4.688   2.553  1.00  0.00     0.007 A 
ENDBRANCH  16  17
ENDBRANCH  15  16
ENDBRANCH  11  15
ENDBRANCH   8   9
ENDBRANCH   6   8
BRANCH   3  23
HETATM   23  C   UNL     1       2.823   2.515   0.050  1.00  0.00     0.039 A 
HETATM   24  C   UNL     1       3.442   3.481   0.851  1.00  0.00     0.033 A 
HETATM   25  C   UNL     1       2.973   4.797   0.844  1.00  0.00     0.039 A 
HETATM   26  C   UNL     1       1.891   5.167   0.042  1.00  0.00     0.068 A 
HETATM   27  C   UNL     1       1.275   4.203  -0.756  1.00  0.00     0.039 A 
HETATM   28  C   UNL     1       1.737   2.881  -0.752  1.00  0.00     0.033 A 
BRANCH  26  29
HETATM   29  O   UNL     1       1.540   6.485   0.132  1.00  0.00    -0.356 OA
HETATM   30  C   UNL     1       0.458   6.920  -0.682  1.00  0.00     0.210 C 
ENDBRANCH  26  29
ENDBRANCH   3  23
TORSDOF 7
