REMARK  4 active torsions:
REMARK  status: ('A' for Active; 'I' for Inactive)
REMARK    1  A    between atoms: C_2  and  N_3 
REMARK    2  A    between atoms: C_2  and  C_13 
REMARK       I    between atoms: N_3  and  C_4 
REMARK    3  A    between atoms: C_4  and  C_5 
REMARK    4  A    between atoms: C_6  and  C_7 
ROOT
HETATM    1  C   UNL     1       0.948   0.252   0.276  1.00  0.00     0.040 C 
HETATM    2  C   UNL     1       2.467   0.205   0.150  1.00  0.00     0.150 C 
ENDROOT
BRANCH   2   3
HETATM    3  N   UNL     1       2.893   0.816  -1.098  1.00  0.00    -0.346 N 
HETATM    4  C   UNL     1       4.096   0.493  -1.671  1.00  0.00     0.241 C 
HETATM    5  O   UNL     1       4.859  -0.354  -1.220  1.00  0.00    -0.269 OA
HETATM    6  H   UNL     1       2.431   1.677  -1.361  1.00  0.00     0.163 HD
BRANCH   4   7
HETATM    7  C   UNL     1       4.399   1.296  -2.880  1.00  0.00     0.075 C 
HETATM    8  C   UNL     1       5.554   1.102  -3.538  1.00  0.00     0.017 C 
BRANCH   8   9
HETATM    9  C   UNL     1       5.969   1.785  -4.728  1.00  0.00    -0.029 A 
HETATM   10  C   UNL     1       7.217   1.578  -5.282  1.00  0.00     0.061 A 
HETATM   11  S   UNL     1       7.468   2.503  -6.701  1.00  0.00    -0.113 SA
HETATM   12  C   UNL     1       5.907   3.188  -6.592  1.00  0.00     0.050 A 
HETATM   13  C   UNL     1       5.211   2.723  -5.496  1.00  0.00     0.019 A 
ENDBRANCH   8   9
ENDBRANCH   4   7
ENDBRANCH   2   3
BRANCH   2  14
HETATM   14  C   UNL     1       3.147   0.923   1.276  1.00  0.00     0.127 A 
HETATM   15  N   UNL     1       2.660   1.879   2.044  1.00  0.00    -0.231 NA
HETATM   16  C   UNL     1       3.673   2.203   2.914  1.00  0.00     0.085 A 
HETATM   17  C   UNL     1       4.809   1.441   2.664  1.00  0.00     0.062 A 
HETATM   18  C   UNL     1       3.698   3.149   3.949  1.00  0.00     0.034 A 
HETATM   19  N   UNL     1       4.453   0.643   1.610  1.00  0.00    -0.341 N 
HETATM   20  C   UNL     1       5.992   1.565   3.394  1.00  0.00     0.032 A 
HETATM   21  H   UNL     1       5.046  -0.015   1.118  1.00  0.00     0.167 HD
HETATM   22  C   UNL     1       5.997   2.512   4.425  1.00  0.00     0.002 A 
HETATM   23  C   UNL     1       4.871   3.293   4.701  1.00  0.00     0.002 A 
ENDBRANCH   2  14
TORSDOF 4
