REMARK  6 active torsions:
REMARK  status: ('A' for Active; 'I' for Inactive)
REMARK    1  A    between atoms: C_2  and  S_3 
REMARK    2  A    between atoms: C_2  and  C_18 
REMARK    3  A    between atoms: S_3  and  C_4 
REMARK    4  A    between atoms: C_4  and  C_5 
REMARK       I    between atoms: C_5  and  N_6 
REMARK    5  A    between atoms: N_6  and  C_7 
REMARK    6  A    between atoms: C_10  and  C_11 
REMARK       I    between atoms: C_11  and  N_12 
ROOT
HETATM    1  C   UNL     1       3.094  -3.594  -2.051  1.00  0.00     0.231 C 
HETATM    2  N   UNL     1       2.778  -3.564  -3.399  1.00  0.00    -0.327 N 
HETATM    3  O   UNL     1       3.847  -4.394  -1.500  1.00  0.00    -0.272 OA
HETATM    4  H   UNL     1       2.302  -2.736  -3.737  1.00  0.00     0.169 HD
ENDROOT
BRANCH   1   5
HETATM    5  C   UNL     1       2.367  -2.517  -1.253  1.00  0.00     0.177 C 
BRANCH   5   6
HETATM    6  S   UNL     1       3.511  -1.426  -0.346  1.00  0.00    -0.147 SA
BRANCH   6   7
HETATM    7  C   UNL     1       4.105  -0.300  -1.672  1.00  0.00     0.113 C 
HETATM    8  C   UNL     1       2.969   0.541  -2.251  1.00  0.00     0.029 C 
BRANCH   7   9
HETATM    9  C   UNL     1       4.882  -1.021  -2.728  1.00  0.00     0.118 A 
HETATM   10  N   UNL     1       4.660  -1.018  -4.029  1.00  0.00    -0.232 NA
HETATM   11  C   UNL     1       5.655  -1.795  -4.578  1.00  0.00     0.085 A 
HETATM   12  C   UNL     1       6.492  -2.299  -3.590  1.00  0.00     0.062 A 
HETATM   13  C   UNL     1       5.903  -2.127  -5.917  1.00  0.00     0.034 A 
HETATM   14  N   UNL     1       5.979  -1.797  -2.424  1.00  0.00    -0.342 N 
HETATM   15  C   UNL     1       7.576  -3.137  -3.854  1.00  0.00     0.032 A 
HETATM   16  H   UNL     1       6.314  -1.997  -1.492  1.00  0.00     0.167 HD
HETATM   17  C   UNL     1       7.805  -3.462  -5.196  1.00  0.00     0.002 A 
HETATM   18  C   UNL     1       6.984  -2.968  -6.213  1.00  0.00     0.002 A 
ENDBRANCH   7   9
ENDBRANCH   6   7
ENDBRANCH   5   6
ENDBRANCH   1   5
BRANCH   2  19
HETATM   19  C   UNL     1       3.204  -4.452  -4.407  1.00  0.00     0.034 A 
HETATM   20  C   UNL     1       3.982  -5.588  -4.176  1.00  0.00     0.030 A 
HETATM   21  C   UNL     1       4.371  -6.414  -5.240  1.00  0.00     0.019 A 
HETATM   22  C   UNL     1       3.969  -6.118  -6.547  1.00  0.00     0.032 A 
HETATM   23  C   UNL     1       3.198  -4.977  -6.782  1.00  0.00     0.019 A 
HETATM   24  C   UNL     1       2.816  -4.154  -5.719  1.00  0.00     0.030 A 
BRANCH  22  25
HETATM   25  C   UNL     1       4.354  -6.960  -7.714  1.00  0.00     0.251 C 
HETATM   26  N   UNL     1       4.570  -8.299  -7.464  1.00  0.00    -0.361 N 
HETATM   27  C   UNL     1       4.957  -9.212  -8.510  1.00  0.00     0.149 C 
HETATM   28  H   UNL     1       4.430  -8.672  -6.536  1.00  0.00     0.162 HD
HETATM   29  O   UNL     1       4.436  -6.458  -8.829  1.00  0.00    -0.268 OA
ENDBRANCH  22  25
ENDBRANCH   2  19
TORSDOF 6
