REMARK  5 active torsions:
REMARK  status: ('A' for Active; 'I' for Inactive)
REMARK    1  A    between atoms: C_7  and  C_8 
REMARK    2  A    between atoms: N_9  and  C_10 
REMARK    3  A    between atoms: C_10  and  C_11 
REMARK       I    between atoms: C_11  and  N_12 
REMARK    4  A    between atoms: N_12  and  C_13 
REMARK    5  A    between atoms: C_13  and  C_14 
ROOT
HETATM    1  C   UNL     1       2.928  -0.360   2.057  1.00  0.00     0.158 A 
HETATM    2  N   UNL     1       2.273  -0.772   3.288  1.00  0.00    -0.326 N 
HETATM    3  C   UNL     1       3.177  -1.113   4.273  1.00  0.00     0.255 A 
HETATM    4  O   UNL     1       2.950  -1.416   5.428  1.00  0.00    -0.267 OA
HETATM    5  C   UNL     1       4.515  -1.044   3.665  1.00  0.00     0.040 A 
HETATM    6  C   UNL     1       4.374  -0.635   2.338  1.00  0.00    -0.015 A 
HETATM    7  C   UNL     1       5.744  -1.316   4.237  1.00  0.00     0.017 A 
HETATM    8  C   UNL     1       6.875  -1.158   3.433  1.00  0.00     0.001 A 
HETATM    9  C   UNL     1       6.751  -0.738   2.096  1.00  0.00     0.001 A 
HETATM   10  C   UNL     1       5.496  -0.468   1.540  1.00  0.00     0.011 A 
ENDROOT
BRANCH   1  11
HETATM   11  C   UNL     1       2.513  -1.136   0.848  1.00  0.00     0.004 A 
HETATM   12  C   UNL     1       2.280  -0.586  -0.412  1.00  0.00     0.017 A 
HETATM   13  C   UNL     1       2.402   0.826  -0.882  1.00  0.00     0.069 C 
HETATM   14  N   UNL     1       1.865  -1.599  -1.250  1.00  0.00    -0.354 N 
HETATM   15  C   UNL     1       1.510  -1.411  -2.642  1.00  0.00     0.156 C 
HETATM   16  C   UNL     1       1.811  -2.797  -0.570  1.00  0.00     0.045 A 
HETATM   17  C   UNL     1       2.239  -2.546   0.737  1.00  0.00     0.001 A 
HETATM   18  C   UNL     1       1.415  -4.080  -0.989  1.00  0.00     0.030 A 
HETATM   19  C   UNL     1       2.287  -3.631   1.643  1.00  0.00     0.014 A 
HETATM   20  C   UNL     1       1.895  -4.909   1.233  1.00  0.00     0.001 A 
HETATM   21  C   UNL     1       1.460  -5.128  -0.067  1.00  0.00     0.002 A 
ENDBRANCH   1  11
BRANCH   2  22
HETATM   22  C   UNL     1       0.825  -0.732   3.459  1.00  0.00     0.229 C 
BRANCH  22  23
HETATM   23  C   UNL     1       0.231   0.645   3.162  1.00  0.00     0.235 C 
HETATM   24  N   UNL     1       0.935   1.699   3.699  1.00  0.00    -0.357 N 
HETATM   25  H   UNL     1       1.652   1.496   4.390  1.00  0.00     0.162 HD
HETATM   26  O   UNL     1      -0.836   0.788   2.571  1.00  0.00    -0.272 OA
BRANCH  24  27
HETATM   27  C   UNL     1       0.534   3.083   3.528  1.00  0.00     0.154 C 
BRANCH  27  28
HETATM   28  C   UNL     1      -0.277   3.657   4.698  1.00  0.00     0.139 C 
HETATM   29  O   UNL     1       0.463   3.485   5.925  1.00  0.00    -0.384 OA
HETATM   30  C   UNL     1      -0.405   2.874   6.888  1.00  0.00     0.168 C 
HETATM   31  C   UNL     1      -1.457   2.134   6.097  1.00  0.00     0.029 C 
HETATM   32  C   UNL     1      -1.655   3.043   4.910  1.00  0.00     0.035 C 
ENDBRANCH  27  28
ENDBRANCH  24  27
ENDBRANCH  22  23
ENDBRANCH   2  22
TORSDOF 5
