REMARK  3 active torsions:
REMARK  status: ('A' for Active; 'I' for Inactive)
REMARK    1  A    between atoms: C_2  and  N_3 
REMARK       I    between atoms: N_6  and  C_7 
REMARK    2  A    between atoms: C_7  and  C_8 
REMARK    3  A    between atoms: C_24  and  O_25 
ROOT
HETATM    1  N   UNL     1       0.777   2.683  -0.402  1.00  0.00    -0.280 NA
HETATM    2  C   UNL     1       2.006   2.519  -1.224  1.00  0.00     0.115 C 
HETATM    3  C   UNL     1       2.464   3.865  -1.817  1.00  0.00     0.141 C 
HETATM    4  N   UNL     1       2.572   4.913  -0.797  1.00  0.00    -0.346 N 
HETATM    5  C   UNL     1       3.458   5.960  -1.043  1.00  0.00     0.256 C 
HETATM    6  O   UNL     1       4.076   6.081  -2.098  1.00  0.00    -0.267 OA
HETATM    7  C   UNL     1       1.351   5.064   0.011  1.00  0.00     0.141 C 
HETATM    8  C   UNL     1       0.916   3.727   0.637  1.00  0.00     0.115 C 
ENDROOT
BRANCH   5   9
HETATM    9  C   UNL     1       3.722   6.943   0.028  1.00  0.00     0.064 A 
HETATM   10  C   UNL     1       3.894   8.281  -0.264  1.00  0.00     0.077 A 
HETATM   11  C   UNL     1       4.173   9.219   0.734  1.00  0.00     0.065 A 
HETATM   12  N   UNL     1       3.853   8.963  -1.483  1.00  0.00    -0.330 N 
HETATM   13  N   UNL     1       4.294  10.470   0.132  1.00  0.00    -0.331 N 
HETATM   14  C   UNL     1       4.309   8.871   2.056  1.00  0.00     0.074 A 
HETATM   15  C   UNL     1       4.114  10.315  -1.249  1.00  0.00     0.176 A 
HETATM   16  H   UNL     1       4.516  11.343   0.587  1.00  0.00     0.168 HD
HETATM   17  S   UNL     1       4.206  11.509  -2.380  1.00  0.00    -0.041 SA
HETATM   18  C   UNL     1       4.171   7.516   2.354  1.00  0.00     0.119 A 
HETATM   19  F   UNL     1       4.311   7.112   3.623  1.00  0.00    -0.206 F 
HETATM   20  C   UNL     1       3.894   6.555   1.365  1.00  0.00     0.061 A 
HETATM   21  H   UNL     1       3.739   8.523  -2.389  1.00  0.00     0.168 HD
ENDBRANCH   5   9
BRANCH   1  22
HETATM   22  C   UNL     1       0.212   1.453  -0.012  1.00  0.00     0.010 A 
HETATM   23  C   UNL     1       0.065   1.055   1.326  1.00  0.00     0.026 A 
HETATM   24  C   UNL     1      -0.500  -0.181   1.662  1.00  0.00     0.038 A 
HETATM   25  C   UNL     1      -0.938  -1.035   0.662  1.00  0.00     0.065 A 
HETATM   26  C   UNL     1      -0.827  -0.669  -0.672  1.00  0.00     0.038 A 
HETATM   27  C   UNL     1      -0.259   0.568  -0.998  1.00  0.00     0.026 A 
BRANCH  25  28
HETATM   28  O   UNL     1      -1.478  -2.229   1.033  1.00  0.00    -0.361 OA
HETATM   29  H   UNL     1      -1.739  -2.712   0.232  1.00  0.00     0.217 HD
ENDBRANCH  25  28
ENDBRANCH   1  22
TORSDOF 3
