REMARK  8 active torsions:
REMARK  status: ('A' for Active; 'I' for Inactive)
REMARK    1  A    between atoms: C_2  and  O_3 
REMARK    2  A    between atoms: O_3  and  C_4 
REMARK    3  A    between atoms: C_4  and  C_5 
REMARK    4  A    between atoms: C_6  and  O_7 
REMARK    5  A    between atoms: C_6  and  C_8 
REMARK    6  A    between atoms: C_16  and  C_17 
REMARK    7  A    between atoms: C_18  and  C_19 
REMARK    8  A    between atoms: N_26  and  C_27 
ROOT
HETATM    1  C   UNL     1       7.109   0.934  -1.698  1.00  0.00     0.177 C 
HETATM    2  C   UNL     1       8.099  -0.106  -1.169  1.00  0.00     0.250 C 
HETATM    3  N   UNL     1       7.923  -0.375   0.247  1.00  0.00    -0.303 N 
HETATM    4  C   UNL     1       6.776  -0.198   0.940  1.00  0.00     0.319 C 
HETATM    5  O   UNL     1       6.684  -0.543   2.111  1.00  0.00    -0.247 OA
HETATM    6  N   UNL     1       5.753   0.396   0.286  1.00  0.00    -0.333 N 
HETATM    7  C   UNL     1       5.726   0.593  -1.147  1.00  0.00     0.142 C 
HETATM    8  H   UNL     1       8.671  -0.797   0.786  1.00  0.00     0.167 HD
HETATM    9  H   UNL     1       4.886   0.420   0.809  1.00  0.00     0.165 HD
ENDROOT
BRANCH   7  10
HETATM   10  C   UNL     1       4.653   1.587  -1.480  1.00  0.00     0.015 A 
HETATM   11  C   UNL     1       3.630   1.504  -2.474  1.00  0.00     0.097 A 
HETATM   12  N   UNL     1       2.839   2.585  -2.440  1.00  0.00    -0.167 NA
HETATM   13  N   UNL     1       3.322   3.374  -1.456  1.00  0.00    -0.244 N 
HETATM   14  C   UNL     1       4.407   2.793  -0.848  1.00  0.00     0.130 A 
BRANCH  11  15
HETATM   15  C   UNL     1       3.344   0.429  -3.425  1.00  0.00    -0.005 A 
HETATM   16  C   UNL     1       2.025  -0.023  -3.582  1.00  0.00     0.014 A 
HETATM   17  C   UNL     1       1.726  -1.053  -4.477  1.00  0.00     0.001 A 
HETATM   18  C   UNL     1       2.742  -1.640  -5.227  1.00  0.00     0.000 A 
HETATM   19  C   UNL     1       4.054  -1.190  -5.092  1.00  0.00     0.001 A 
HETATM   20  C   UNL     1       4.354  -0.155  -4.201  1.00  0.00     0.014 A 
ENDBRANCH  11  15
BRANCH  13  21
HETATM   21  C   UNL     1       2.713   4.625  -1.156  1.00  0.00     0.058 A 
HETATM   22  C   UNL     1       1.591   5.039  -1.893  1.00  0.00     0.031 A 
HETATM   23  C   UNL     1       0.975   6.260  -1.614  1.00  0.00     0.002 A 
HETATM   24  C   UNL     1       1.474   7.078  -0.602  1.00  0.00     0.000 A 
HETATM   25  C   UNL     1       2.589   6.676   0.132  1.00  0.00     0.002 A 
HETATM   26  C   UNL     1       3.210   5.454  -0.141  1.00  0.00     0.031 A 
ENDBRANCH  13  21
ENDBRANCH   7  10
BRANCH   1  27
HETATM   27  C   UNL     1       7.543   2.339  -1.351  1.00  0.00     0.270 C 
HETATM   28  O   UNL     1       7.794   2.742  -0.227  1.00  0.00    -0.265 OA
BRANCH  27  29
HETATM   29  O   UNL     1       7.640   3.085  -2.487  1.00  0.00    -0.321 OA
BRANCH  29  30
HETATM   30  C   UNL     1       8.104   4.435  -2.320  1.00  0.00     0.174 C 
HETATM   31  C   UNL     1       6.968   5.349  -1.899  1.00  0.00     0.034 C 
ENDBRANCH  29  30
ENDBRANCH  27  29
ENDBRANCH   1  27
BRANCH   2  32
HETATM   32  O   UNL     1       7.751  -1.359  -1.798  1.00  0.00    -0.363 OA
HETATM   33  H   UNL     1       8.246  -2.045  -1.314  1.00  0.00     0.213 HD
ENDBRANCH   2  32
BRANCH   2  34
HETATM   34  C   UNL     1       9.576   0.254  -1.547  1.00  0.00     0.439 C 
HETATM   35  F   UNL     1       9.707   0.468  -2.876  1.00  0.00    -0.166 F 
HETATM   36  F   UNL     1      10.041   1.346  -0.909  1.00  0.00    -0.166 F 
HETATM   37  F   UNL     1      10.396  -0.778  -1.218  1.00  0.00    -0.166 F 
ENDBRANCH   2  34
TORSDOF 8
