REMARK  3 active torsions:
REMARK  status: ('A' for Active; 'I' for Inactive)
REMARK    1  A    between atoms: C_6  and  C_7 
REMARK    2  A    between atoms: C_14  and  N_15 
REMARK    3  A    between atoms: N_15  and  C_16 
ROOT
HETATM    1  C   UNL     1      -2.431   0.658   0.133  1.00  0.00     0.001 A 
HETATM    2  C   UNL     1      -1.244   1.363  -0.048  1.00  0.00     0.018 A 
HETATM    3  C   UNL     1       0.007   0.692  -0.059  1.00  0.00     0.039 A 
HETATM    4  C   UNL     1       0.043  -0.699   0.099  1.00  0.00     0.073 A 
HETATM    5  N   UNL     1       1.180  -1.401   0.083  1.00  0.00    -0.228 NA
HETATM    6  C   UNL     1       2.325  -0.725  -0.099  1.00  0.00     0.164 A 
HETATM    7  N   UNL     1       2.401   0.604  -0.263  1.00  0.00    -0.210 NA
HETATM    8  C   UNL     1       1.257   1.309  -0.238  1.00  0.00     0.143 A 
HETATM    9  C   UNL     1      -1.155  -1.380   0.278  1.00  0.00     0.032 A 
HETATM   10  C   UNL     1      -2.386  -0.719   0.299  1.00  0.00     0.002 A 
ENDROOT
BRANCH   8  11
HETATM   11  N   UNL     1       1.317   2.722  -0.374  1.00  0.00    -0.340 N 
HETATM   12  H   UNL     1       0.882   3.148   0.437  1.00  0.00     0.167 HD
BRANCH  11  13
HETATM   13  C   UNL     1       2.392   3.497  -0.865  1.00  0.00     0.036 A 
HETATM   14  C   UNL     1       2.535   4.825  -0.435  1.00  0.00     0.069 A 
HETATM   15  C   UNL     1       3.536   5.648  -0.961  1.00  0.00     0.104 A 
HETATM   16  C   UNL     1       4.414   5.152  -1.925  1.00  0.00     0.102 A 
HETATM   17  O   UNL     1       3.654   6.895  -0.408  1.00  0.00    -0.348 OA
HETATM   18  O   UNL     1       5.477   5.860  -2.411  1.00  0.00    -0.348 OA
HETATM   19  C   UNL     1       4.283   3.838  -2.365  1.00  0.00     0.042 A 
HETATM   20  C   UNL     1       5.067   7.036  -3.110  1.00  0.00     0.178 C 
HETATM   21  C   UNL     1       4.773   8.186  -2.161  1.00  0.00     0.053 C 
HETATM   22  C   UNL     1       3.496   7.934  -1.375  1.00  0.00     0.178 C 
HETATM   23  C   UNL     1       3.263   3.028  -1.858  1.00  0.00     0.032 A 
ENDBRANCH  11  13
ENDBRANCH   8  11
BRANCH   6  24
HETATM   24  C   UNL     1       3.582  -1.483  -0.107  1.00  0.00     0.029 A 
HETATM   25  C   UNL     1       3.604  -2.877  -0.055  1.00  0.00     0.131 A 
HETATM   26  N   UNL     1       4.726  -3.645  -0.057  1.00  0.00    -0.272 NA
HETATM   27  C   UNL     1       5.904  -2.992  -0.111  1.00  0.00     0.116 A 
HETATM   28  C   UNL     1       6.012  -1.614  -0.165  1.00  0.00     0.020 A 
HETATM   29  C   UNL     1       4.840  -0.859  -0.164  1.00  0.00     0.018 A 
ENDBRANCH   6  24
TORSDOF 3
