REMARK  5 active torsions:
REMARK  status: ('A' for Active; 'I' for Inactive)
REMARK    1  A    between atoms: C_7  and  C_8 
REMARK    2  A    between atoms: N_9  and  C_10 
REMARK    3  A    between atoms: C_10  and  C_11 
REMARK       I    between atoms: C_11  and  N_12 
REMARK    4  A    between atoms: N_12  and  C_13 
REMARK    5  A    between atoms: C_13  and  C_14 
ROOT
HETATM    1  C   UNL     1       2.444  -2.847  -0.399  1.00  0.00     0.158 C 
HETATM    2  N   UNL     1       3.305  -3.925  -0.856  1.00  0.00    -0.326 N 
HETATM    3  C   UNL     1       3.659  -4.754   0.198  1.00  0.00     0.255 C 
HETATM    4  O   UNL     1       4.501  -5.633   0.199  1.00  0.00    -0.267 OA
HETATM    5  C   UNL     1       2.842  -4.370   1.356  1.00  0.00     0.040 A 
HETATM    6  C   UNL     1       2.099  -3.244   1.005  1.00  0.00    -0.015 A 
HETATM    7  C   UNL     1       2.785  -4.946   2.611  1.00  0.00     0.017 A 
HETATM    8  C   UNL     1       1.937  -4.354   3.549  1.00  0.00     0.001 A 
HETATM    9  C   UNL     1       1.185  -3.213   3.215  1.00  0.00     0.001 A 
HETATM   10  C   UNL     1       1.266  -2.646   1.939  1.00  0.00     0.011 A 
ENDROOT
BRANCH   1  11
HETATM   11  C   UNL     1       1.167  -2.725  -1.173  1.00  0.00     0.004 A 
HETATM   12  C   UNL     1       0.578  -1.524  -1.574  1.00  0.00     0.017 A 
HETATM   13  C   UNL     1       1.049  -0.120  -1.388  1.00  0.00     0.069 C 
HETATM   14  N   UNL     1      -0.615  -1.824  -2.194  1.00  0.00    -0.354 N 
HETATM   15  C   UNL     1      -1.571  -0.858  -2.698  1.00  0.00     0.156 C 
HETATM   16  C   UNL     1      -0.788  -3.190  -2.275  1.00  0.00     0.045 A 
HETATM   17  C   UNL     1       0.306  -3.781  -1.639  1.00  0.00     0.001 A 
HETATM   18  C   UNL     1      -1.821  -3.951  -2.851  1.00  0.00     0.030 A 
HETATM   19  C   UNL     1       0.353  -5.192  -1.574  1.00  0.00     0.014 A 
HETATM   20  C   UNL     1      -0.670  -5.958  -2.142  1.00  0.00     0.001 A 
HETATM   21  C   UNL     1      -1.743  -5.343  -2.773  1.00  0.00     0.002 A 
ENDBRANCH   1  11
BRANCH   2  22
HETATM   22  C   UNL     1       4.141  -3.749  -2.035  1.00  0.00     0.229 C 
BRANCH  22  23
HETATM   23  C   UNL     1       4.143  -4.903  -3.047  1.00  0.00     0.235 C 
HETATM   24  N   UNL     1       4.350  -6.159  -2.524  1.00  0.00    -0.357 N 
HETATM   25  H   UNL     1       4.609  -6.229  -1.538  1.00  0.00     0.162 HD
HETATM   26  O   UNL     1       4.129  -4.691  -4.261  1.00  0.00    -0.272 OA
BRANCH  24  27
HETATM   27  C   UNL     1       4.594  -7.310  -3.375  1.00  0.00     0.154 C 
BRANCH  27  28
HETATM   28  C   UNL     1       5.999  -7.311  -3.993  1.00  0.00     0.139 C 
HETATM   29  O   UNL     1       6.994  -7.633  -3.002  1.00  0.00    -0.384 OA
HETATM   30  C   UNL     1       8.137  -8.093  -3.729  1.00  0.00     0.168 C 
HETATM   31  C   UNL     1       7.590  -8.871  -4.906  1.00  0.00     0.029 C 
HETATM   32  C   UNL     1       6.172  -8.364  -5.080  1.00  0.00     0.035 C 
ENDBRANCH  27  28
ENDBRANCH  24  27
ENDBRANCH  22  23
ENDBRANCH   2  22
TORSDOF 5
