REMARK  6 active torsions:
REMARK  status: ('A' for Active; 'I' for Inactive)
REMARK    1  A    between atoms: C_2  and  C_3 
REMARK    2  A    between atoms: C_3  and  C_4 
REMARK    3  A    between atoms: C_3  and  C_10 
REMARK    4  A    between atoms: C_10  and  C_11 
REMARK       I    between atoms: C_11  and  N_12 
REMARK    5  A    between atoms: N_12  and  C_13 
REMARK    6  A    between atoms: C_15  and  C_16 
ROOT
HETATM    1  C   UNL     1       5.366   2.391   1.658  1.00  0.00     0.223 C 
HETATM    2  N   UNL     1       4.548   3.278   2.325  1.00  0.00    -0.327 N 
HETATM    3  O   UNL     1       6.538   2.602   1.350  1.00  0.00    -0.273 OA
HETATM    4  H   UNL     1       3.579   3.015   2.438  1.00  0.00     0.169 HD
ENDROOT
BRANCH   2   5
HETATM    5  C   UNL     1       4.860   4.576   2.783  1.00  0.00     0.035 A 
HETATM    6  C   UNL     1       6.145   5.127   2.767  1.00  0.00     0.042 A 
HETATM    7  C   UNL     1       6.382   6.425   3.252  1.00  0.00    -0.021 A 
HETATM    8  C   UNL     1       5.303   7.171   3.744  1.00  0.00     0.012 A 
HETATM    9  C   UNL     1       4.018   6.629   3.766  1.00  0.00     0.003 A 
HETATM   10  C   UNL     1       3.801   5.335   3.294  1.00  0.00     0.029 A 
BRANCH   7  11
HETATM   11  C   UNL     1       7.729   6.973   3.237  1.00  0.00     0.010 A 
HETATM   12  C   UNL     1       8.846   6.664   2.422  1.00  0.00     0.152 A 
HETATM   13  N   UNL     1       9.929   7.384   2.732  1.00  0.00    -0.187 NA
HETATM   14  N   UNL     1       9.515   8.148   3.754  1.00  0.00    -0.289 N 
HETATM   15  H   UNL     1      10.181   8.786   4.176  1.00  0.00     0.188 HD
HETATM   16  C   UNL     1       8.209   7.942   4.094  1.00  0.00     0.123 A 
ENDBRANCH   7  11
ENDBRANCH   2   5
BRANCH   1  17
HETATM   17  C   UNL     1       4.766   1.012   1.382  1.00  0.00     0.116 C 
BRANCH  17  18
HETATM   18  C   UNL     1       3.296   0.918   0.918  1.00  0.00     0.049 C 
BRANCH  18  19
HETATM   19  C   UNL     1       3.132   1.714  -0.370  1.00  0.00    -0.027 C 
HETATM   20  C   UNL     1       2.716   2.980  -0.513  1.00  0.00     0.007 C 
ENDBRANCH  18  19
BRANCH  18  21
HETATM   21  C   UNL     1       2.207   1.099   1.985  1.00  0.00    -0.050 A 
HETATM   22  C   UNL     1       0.872   1.346   1.614  1.00  0.00     0.008 A 
HETATM   23  C   UNL     1      -0.137   1.493   2.571  1.00  0.00     0.001 A 
HETATM   24  C   UNL     1       0.159   1.363   3.923  1.00  0.00     0.000 A 
HETATM   25  C   UNL     1       1.460   1.070   4.315  1.00  0.00     0.001 A 
HETATM   26  C   UNL     1       2.469   0.926   3.357  1.00  0.00     0.008 A 
ENDBRANCH  18  21
ENDBRANCH  17  18
ENDBRANCH   1  17
TORSDOF 6
