REMARK  6 active torsions:
REMARK  status: ('A' for Active; 'I' for Inactive)
REMARK    1  A    between atoms: O_2  and  C_3 
REMARK    2  A    between atoms: C_6  and  C_7 
REMARK    3  A    between atoms: C_9  and  N_10 
REMARK    4  A    between atoms: N_10  and  N_11 
REMARK       I    between atoms: N_10  and  C_22 
REMARK       I    between atoms: N_11  and  C_12 
REMARK       I    between atoms: C_12  and  N_13 
REMARK    5  A    between atoms: N_13  and  C_14 
REMARK       I    between atoms: C_22  and  N_23 
REMARK    6  A    between atoms: N_23  and  C_24 
ROOT
HETATM    1  N   UNL     1       5.677   8.191   3.909  1.00  0.00    -0.195 N 
HETATM    2  C   UNL     1       6.340   8.801   4.985  1.00  0.00     0.340 C 
HETATM    3  N   UNL     1       7.117   7.987   5.782  1.00  0.00    -0.337 N 
HETATM    4  O   UNL     1       6.293  10.022   5.169  1.00  0.00    -0.245 OA
HETATM    5  H   UNL     1       7.280   7.049   5.448  1.00  0.00     0.164 HD
ENDROOT
BRANCH   1   6
HETATM    6  C   UNL     1       5.698   6.817   3.714  1.00  0.00     0.193 A 
HETATM    7  N   UNL     1       6.096   6.238   2.605  1.00  0.00    -0.222 NA
HETATM    8  C   UNL     1       6.088   4.862   2.768  1.00  0.00     0.076 A 
HETATM    9  C   UNL     1       5.553   4.423   3.965  1.00  0.00     0.085 A 
HETATM   10  S   UNL     1       5.125   5.772   4.941  1.00  0.00    -0.060 SA
BRANCH   8  11
HETATM   11  C   UNL     1       6.682   3.997   1.759  1.00  0.00    -0.007 A 
HETATM   12  C   UNL     1       7.765   4.481   1.010  1.00  0.00     0.016 A 
HETATM   13  C   UNL     1       8.388   3.684   0.044  1.00  0.00     0.037 A 
HETATM   14  C   UNL     1       7.927   2.391  -0.195  1.00  0.00     0.068 A 
HETATM   15  C   UNL     1       6.850   1.903   0.550  1.00  0.00     0.037 A 
HETATM   16  C   UNL     1       6.227   2.697   1.520  1.00  0.00     0.016 A 
BRANCH  14  17
HETATM   17  O   UNL     1       8.439   1.516  -1.112  1.00  0.00    -0.356 OA
HETATM   18  C   UNL     1       9.428   2.028  -1.998  1.00  0.00     0.210 C 
ENDBRANCH  14  17
ENDBRANCH   8  11
ENDBRANCH   1   6
BRANCH   1  19
HETATM   19  N   UNL     1       5.678   8.946   2.686  1.00  0.00    -0.142 NA
HETATM   20  C   UNL     1       4.639   9.809   2.405  1.00  0.00     0.317 C 
HETATM   21  N   UNL     1       4.212  10.558   3.470  1.00  0.00    -0.312 N 
HETATM   22  O   UNL     1       4.222   9.871   1.252  1.00  0.00    -0.252 OA
HETATM   23  H   UNL     1       4.859  10.565   4.256  1.00  0.00     0.170 HD
HETATM   24  H   UNL     1       5.915   8.371   1.879  1.00  0.00     0.158 HD
BRANCH  21  25
HETATM   25  C   UNL     1       3.174  11.508   3.498  1.00  0.00     0.036 A 
HETATM   26  C   UNL     1       2.246  11.675   2.467  1.00  0.00     0.031 A 
HETATM   27  C   UNL     1       1.248  12.651   2.564  1.00  0.00     0.026 A 
HETATM   28  C   UNL     1       1.174  13.459   3.695  1.00  0.00     0.034 A 
HETATM   29 CL   UNL     1      -0.049  14.664   3.809  1.00  0.00    -0.084 Cl
HETATM   30  C   UNL     1       2.085  13.295   4.734  1.00  0.00     0.026 A 
HETATM   31  C   UNL     1       3.080  12.319   4.636  1.00  0.00     0.031 A 
ENDBRANCH  21  25
ENDBRANCH   1  19
BRANCH   3  32
HETATM   32  C   UNL     1       8.167   8.530   6.637  1.00  0.00     0.086 C 
HETATM   33  C   UNL     1       8.555   7.517   7.722  1.00  0.00     0.025 C 
HETATM   34  C   UNL     1       9.299   6.301   7.165  1.00  0.00     0.002 C 
HETATM   35  C   UNL     1      10.496   6.703   6.308  1.00  0.00     0.000 C 
HETATM   36  C   UNL     1      10.112   7.698   5.217  1.00  0.00     0.002 C 
HETATM   37  C   UNL     1       9.395   8.919   5.797  1.00  0.00     0.025 C 
ENDBRANCH   3  32
TORSDOF 6
