REMARK  2 active torsions:
REMARK  status: ('A' for Active; 'I' for Inactive)
REMARK    1  A    between atoms: C_5  and  O_6 
REMARK    2  A    between atoms: C_5  and  C_7 
ROOT
HETATM    1  C   UNL     1       1.067  -0.097   0.154  1.00  0.00     0.050 C 
HETATM    2  C   UNL     1       2.554  -0.027   0.005  1.00  0.00    -0.034 A 
HETATM    3  C   UNL     1       3.259   1.164   0.104  1.00  0.00     0.052 A 
HETATM    4  C   UNL     1       4.658   1.244  -0.006  1.00  0.00     0.039 A 
HETATM    5  C   UNL     1       5.081   2.683   0.130  1.00  0.00     0.200 A 
HETATM    6  C   UNL     1       3.713   3.402   0.359  1.00  0.00     0.266 A 
HETATM    7  O   UNL     1       3.516   4.603   0.475  1.00  0.00    -0.269 OA
HETATM    8  N   UNL     1       2.722   2.427   0.331  1.00  0.00    -0.323 N 
HETATM    9  C   UNL     1       5.390   0.092  -0.232  1.00  0.00     0.046 A 
HETATM   10 CL   UNL     1       7.099   0.101  -0.414  1.00  0.00    -0.084 Cl
HETATM   11  C   UNL     1       4.710  -1.129  -0.315  1.00  0.00     0.025 A 
HETATM   12  C   UNL     1       3.311  -1.189  -0.192  1.00  0.00     0.011 A 
HETATM   13  H   UNL     1       1.743   2.650   0.428  1.00  0.00     0.169 HD
ENDROOT
BRANCH   5  14
HETATM   14  O   UNL     1       5.654   3.139  -1.093  1.00  0.00    -0.371 OA
HETATM   15  H   UNL     1       5.738   4.102  -0.983  1.00  0.00     0.212 HD
ENDBRANCH   5  14
BRANCH   5  16
HETATM   16  C   UNL     1       6.001   2.834   1.316  1.00  0.00     0.018 A 
HETATM   17  C   UNL     1       5.815   2.386   2.677  1.00  0.00     0.002 A 
HETATM   18  C   UNL     1       6.943   2.771   3.406  1.00  0.00     0.043 A 
HETATM   19  C   UNL     1       4.802   1.682   3.365  1.00  0.00     0.014 A 
HETATM   20  C   UNL     1       7.109   2.488   4.768  1.00  0.00     0.030 A 
HETATM   21  N   UNL     1       7.781   3.432   2.543  1.00  0.00    -0.365 N 
HETATM   22  C   UNL     1       6.094   1.783   5.415  1.00  0.00     0.002 A 
HETATM   23  C   UNL     1       4.955   1.383   4.725  1.00  0.00     0.001 A 
HETATM   24  H   UNL     1       8.677   3.822   2.801  1.00  0.00     0.165 HD
HETATM   25  C   UNL     1       7.232   3.476   1.294  1.00  0.00     0.100 A 
ENDBRANCH   5  16
TORSDOF 2
