REMARK  6 active torsions:
REMARK  status: ('A' for Active; 'I' for Inactive)
REMARK    1  A    between atoms: C_2  and  C_3 
REMARK    2  A    between atoms: C_3  and  C_4 
REMARK    3  A    between atoms: C_5  and  O_6 
REMARK    4  A    between atoms: C_7  and  C_8 
REMARK    5  A    between atoms: N_9  and  N_10 
REMARK       I    between atoms: N_10  and  C_11 
REMARK    6  A    between atoms: C_11  and  C_12 
ROOT
HETATM    1  N   UNL     1       6.530  -4.073   0.007  1.00  0.00    -0.243 N 
HETATM    2  C   UNL     1       5.711  -5.193  -0.002  1.00  0.00     0.274 C 
HETATM    3  O   UNL     1       4.521  -5.179   0.315  1.00  0.00    -0.266 OA
HETATM    4  H   UNL     1       7.504  -4.112  -0.255  1.00  0.00     0.192 HD
ENDROOT
BRANCH   1   5
HETATM    5  N   UNL     1       6.017  -2.873   0.407  1.00  0.00    -0.183 NA
HETATM    6  C   UNL     1       6.839  -1.872   0.387  1.00  0.00     0.153 C 
BRANCH   6   7
HETATM    7  C   UNL     1       6.417  -0.517   0.804  1.00  0.00     0.017 A 
HETATM    8  C   UNL     1       7.326   0.551   0.770  1.00  0.00     0.084 A 
HETATM    9  C   UNL     1       6.924   1.842   1.158  1.00  0.00    -0.021 A 
HETATM   10  C   UNL     1       5.602   2.025   1.607  1.00  0.00     0.010 A 
HETATM   11  C   UNL     1       4.702   0.960   1.651  1.00  0.00     0.002 A 
HETATM   12  C   UNL     1       5.106  -0.309   1.246  1.00  0.00     0.016 A 
BRANCH   8  13
HETATM   13  O   UNL     1       8.606   0.302   0.348  1.00  0.00    -0.359 OA
HETATM   14  H   UNL     1       9.181   1.029   0.638  1.00  0.00     0.218 HD
ENDBRANCH   8  13
BRANCH   9  15
HETATM   15  C   UNL     1       7.838   3.046   1.100  1.00  0.00     0.067 C 
BRANCH  15  16
HETATM   16  C   UNL     1       8.868   3.048   2.196  1.00  0.00    -0.032 C 
HETATM   17  C   UNL     1      10.185   3.195   1.995  1.00  0.00     0.007 C 
ENDBRANCH  15  16
ENDBRANCH   9  15
ENDBRANCH   6   7
ENDBRANCH   1   5
BRANCH   2  18
HETATM   18  C   UNL     1       6.331  -6.491  -0.420  1.00  0.00     0.061 A 
HETATM   19  C   UNL     1       5.537  -7.657  -0.418  1.00  0.00     0.058 A 
HETATM   20  C   UNL     1       6.017  -8.914  -0.783  1.00  0.00    -0.007 A 
HETATM   21  N   UNL     1       4.207  -7.821  -0.083  1.00  0.00    -0.364 N 
HETATM   22  C   UNL     1       4.938  -9.833  -0.655  1.00  0.00     0.030 A 
HETATM   23  C   UNL     1       7.362  -9.037  -1.176  1.00  0.00     0.014 A 
HETATM   24  C   UNL     1       3.836  -9.130  -0.222  1.00  0.00     0.089 A 
HETATM   25  C   UNL     1       8.175  -7.900  -1.192  1.00  0.00     0.002 A 
HETATM   26  C   UNL     1       7.670  -6.650  -0.822  1.00  0.00     0.019 A 
HETATM   27  H   UNL     1       3.619  -7.050   0.220  1.00  0.00     0.165 HD
ENDBRANCH   2  18
TORSDOF 6
