REMARK  7 active torsions:
REMARK  status: ('A' for Active; 'I' for Inactive)
REMARK    1  A    between atoms: N_3  and  C_4 
REMARK    2  A    between atoms: C_12  and  C_13 
REMARK       I    between atoms: C_13  and  N_14 
REMARK    3  A    between atoms: N_14  and  C_15 
REMARK    4  A    between atoms: C_15  and  C_16 
REMARK    5  A    between atoms: C_16  and  O_17 
REMARK    6  A    between atoms: C_16  and  C_18 
REMARK    7  A    between atoms: C_21  and  O_22 
ROOT
HETATM    1  C   UNL     1       2.073  -4.016  -0.814  1.00  0.00     0.255 C 
HETATM    2  N   UNL     1       1.873  -2.831  -0.142  1.00  0.00    -0.350 N 
HETATM    3  O   UNL     1       1.239  -4.497  -1.574  1.00  0.00    -0.268 OA
HETATM    4  H   UNL     1       2.695  -2.367   0.221  1.00  0.00     0.163 HD
ENDROOT
BRANCH   2   5
HETATM    5  C   UNL     1       0.689  -1.990  -0.340  1.00  0.00     0.114 C 
HETATM    6  C   UNL     1      -0.593  -2.722   0.074  1.00  0.00     0.035 C 
BRANCH   5   7
HETATM    7  C   UNL     1       0.594  -1.393  -1.777  1.00  0.00     0.173 C 
BRANCH   7   8
HETATM    8  O   UNL     1      -0.652  -0.713  -1.964  1.00  0.00    -0.389 OA
HETATM    9  H   UNL     1      -1.298  -1.390  -2.231  1.00  0.00     0.210 HD
ENDBRANCH   7   8
BRANCH   7  10
HETATM   10  C   UNL     1       1.721  -0.410  -2.048  1.00  0.00    -0.028 A 
HETATM   11  C   UNL     1       2.913  -0.849  -2.643  1.00  0.00     0.012 A 
HETATM   12  C   UNL     1       3.958   0.047  -2.885  1.00  0.00     0.037 A 
HETATM   13  C   UNL     1       3.823   1.397  -2.561  1.00  0.00     0.068 A 
HETATM   14  C   UNL     1       2.655   1.841  -1.944  1.00  0.00     0.037 A 
HETATM   15  C   UNL     1       1.613   0.943  -1.689  1.00  0.00     0.012 A 
BRANCH  13  16
HETATM   16  O   UNL     1       4.900   2.184  -2.865  1.00  0.00    -0.356 OA
HETATM   17  C   UNL     1       4.597   3.551  -3.129  1.00  0.00     0.210 C 
ENDBRANCH  13  16
ENDBRANCH   7  10
ENDBRANCH   5   7
ENDBRANCH   2   5
BRANCH   1  18
HETATM   18  C   UNL     1       3.383  -4.625  -0.645  1.00  0.00     0.075 C 
HETATM   19  C   UNL     1       4.334  -4.495   0.363  1.00  0.00     0.051 C 
HETATM   20  C   UNL     1       4.282  -3.787   1.672  1.00  0.00     0.071 C 
HETATM   21  N   UNL     1       5.451  -5.223  -0.058  1.00  0.00    -0.220 N 
HETATM   22  N   UNL     1       5.169  -5.951  -1.176  1.00  0.00    -0.177 NA
HETATM   23  C   UNL     1       3.944  -5.571  -1.525  1.00  0.00     0.158 C 
BRANCH  21  24
HETATM   24  C   UNL     1       6.770  -5.253   0.512  1.00  0.00     0.150 A 
HETATM   25  N   UNL     1       7.063  -4.426   1.552  1.00  0.00    -0.241 NA
HETATM   26  C   UNL     1       8.325  -4.455   2.035  1.00  0.00     0.119 A 
HETATM   27  C   UNL     1       9.324  -5.273   1.537  1.00  0.00     0.019 A 
HETATM   28  C   UNL     1       9.013  -6.115   0.477  1.00  0.00     0.005 A 
HETATM   29  C   UNL     1       7.722  -6.107  -0.047  1.00  0.00     0.052 A 
ENDBRANCH  21  24
ENDBRANCH   1  18
TORSDOF 7
