REMARK  8 active torsions:
REMARK  status: ('A' for Active; 'I' for Inactive)
REMARK    1  A    between atoms: N_2  and  C_4 
REMARK    2  A    between atoms: C_4  and  C_5 
REMARK    3  A    between atoms: C_5  and  N_6 
REMARK       I    between atoms: N_6  and  C_7 
REMARK    4  A    between atoms: N_6  and  C_23 
REMARK       I    between atoms: C_7  and  N_8 
REMARK    5  A    between atoms: N_8  and  C_9 
REMARK    6  A    between atoms: C_11  and  O_12 
REMARK    7  A    between atoms: O_12  and  C_13 
REMARK    8  A    between atoms: C_23  and  C_24 
ROOT
HETATM    1  N   UNL     1       3.037  -3.427  -1.314  1.00  0.00    -0.328 N 
HETATM    2  C   UNL     1       4.172  -3.547  -2.124  1.00  0.00     0.323 C 
HETATM    3  N   UNL     1       4.207  -4.699  -2.871  1.00  0.00    -0.309 N 
HETATM    4  O   UNL     1       5.001  -2.642  -2.152  1.00  0.00    -0.247 OA
HETATM    5  H   UNL     1       3.377  -5.271  -2.846  1.00  0.00     0.170 HD
ENDROOT
BRANCH   1   6
HETATM    6  C   UNL     1       2.749  -2.116  -0.741  1.00  0.00     0.155 C 
BRANCH   6   7
HETATM    7  C   UNL     1       3.469  -1.871   0.595  1.00  0.00     0.254 C 
BRANCH   7   8
HETATM    8  N   UNL     1       2.911  -0.643   1.305  1.00  0.00    -0.077 N 
HETATM    9  C   UNL     1       3.350   0.649   0.666  1.00  0.00     0.269 C 
HETATM   10  H   UNL     1       1.884  -0.678   1.242  1.00  0.00     0.279 HD
HETATM   11  C   UNL     1       3.237  -0.657   2.775  1.00  0.00     0.269 C 
ENDBRANCH   7   8
ENDBRANCH   6   7
ENDBRANCH   1   6
BRANCH   1  12
HETATM   12  C   UNL     1       2.169  -4.544  -0.922  1.00  0.00     0.166 C 
BRANCH  12  13
HETATM   13  C   UNL     1       1.187  -4.981  -1.984  1.00  0.00    -0.040 A 
HETATM   14  C   UNL     1       0.803  -4.152  -3.050  1.00  0.00     0.009 A 
HETATM   15  C   UNL     1      -0.060  -4.623  -4.041  1.00  0.00     0.001 A 
HETATM   16  C   UNL     1      -0.564  -5.918  -3.971  1.00  0.00     0.000 A 
HETATM   17  C   UNL     1      -0.214  -6.743  -2.906  1.00  0.00     0.001 A 
HETATM   18  C   UNL     1       0.653  -6.277  -1.916  1.00  0.00     0.009 A 
ENDBRANCH  12  13
ENDBRANCH   1  12
BRANCH   3  19
HETATM   19  C   UNL     1       5.110  -5.073  -3.886  1.00  0.00     0.042 A 
HETATM   20  C   UNL     1       4.753  -6.191  -4.642  1.00  0.00     0.087 A 
HETATM   21  C   UNL     1       5.581  -6.598  -5.675  1.00  0.00     0.171 A 
HETATM   22  N   UNL     1       6.731  -5.972  -5.990  1.00  0.00    -0.237 NA
HETATM   23  C   UNL     1       7.057  -4.894  -5.241  1.00  0.00     0.122 A 
HETATM   24  C   UNL     1       6.288  -4.408  -4.190  1.00  0.00     0.049 A 
BRANCH  21  25
HETATM   25  O   UNL     1       5.123  -7.708  -6.379  1.00  0.00    -0.292 OA
BRANCH  25  26
HETATM   26  C   UNL     1       5.949  -8.292  -7.302  1.00  0.00     0.077 A 
HETATM   27  C   UNL     1       6.311  -7.653  -8.487  1.00  0.00     0.037 A 
HETATM   28  C   UNL     1       7.051  -8.345  -9.447  1.00  0.00     0.003 A 
HETATM   29  C   UNL     1       7.408  -9.677  -9.230  1.00  0.00     0.000 A 
HETATM   30  C   UNL     1       7.026 -10.321  -8.053  1.00  0.00     0.003 A 
HETATM   31  C   UNL     1       6.288  -9.630  -7.092  1.00  0.00     0.037 A 
ENDBRANCH  25  26
ENDBRANCH  21  25
ENDBRANCH   3  19
TORSDOF 8
