REMARK  5 active torsions:
REMARK  status: ('A' for Active; 'I' for Inactive)
REMARK    1  A    between atoms: C_9  and  C_10 
REMARK       I    between atoms: C_10  and  N_11 
REMARK    2  A    between atoms: N_11  and  C_12 
REMARK    3  A    between atoms: C_12  and  C_13 
REMARK    4  A    between atoms: C_12  and  C_16 
REMARK    5  A    between atoms: C_19  and  O_20 
ROOT
HETATM    1  C   UNL     1       5.695   4.047   1.108  1.00  0.00     0.273 C 
HETATM    2  N   UNL     1       6.515   4.605   0.159  1.00  0.00    -0.346 N 
HETATM    3  O   UNL     1       6.030   3.125   1.846  1.00  0.00    -0.266 OA
HETATM    4  H   UNL     1       6.116   5.377  -0.364  1.00  0.00     0.163 HD
ENDROOT
BRANCH   2   5
HETATM    5  C   UNL     1       7.890   4.227  -0.041  1.00  0.00     0.122 C 
BRANCH   5   6
HETATM    6  C   UNL     1       8.104   3.496  -1.349  1.00  0.00     0.013 A 
HETATM    7  C   UNL     1       7.220   2.334  -1.746  1.00  0.00     0.007 A 
HETATM    8  C   UNL     1       7.180   3.608  -2.544  1.00  0.00     0.007 A 
ENDBRANCH   5   6
BRANCH   5   9
HETATM    9  C   UNL     1       8.769   5.466   0.028  1.00  0.00    -0.035 A 
HETATM   10  C   UNL     1       9.625   5.656   1.122  1.00  0.00     0.012 A 
HETATM   11  C   UNL     1      10.417   6.803   1.214  1.00  0.00     0.037 A 
HETATM   12  C   UNL     1      10.366   7.787   0.225  1.00  0.00     0.068 A 
HETATM   13  C   UNL     1       9.515   7.612  -0.865  1.00  0.00     0.037 A 
HETATM   14  C   UNL     1       8.722   6.462  -0.961  1.00  0.00     0.012 A 
BRANCH  12  15
HETATM   15  O   UNL     1      11.188   8.859   0.441  1.00  0.00    -0.356 OA
HETATM   16  C   UNL     1      11.139   9.908  -0.517  1.00  0.00     0.210 C 
ENDBRANCH  12  15
ENDBRANCH   5   9
ENDBRANCH   2   5
BRANCH   1  17
HETATM   17  C   UNL     1       4.366   4.681   1.152  1.00  0.00     0.157 A 
HETATM   18  C   UNL     1       3.287   4.374   2.033  1.00  0.00     0.029 A 
HETATM   19  C   UNL     1       3.059   3.459   3.081  1.00  0.00     0.023 A 
HETATM   20  C   UNL     1       2.273   5.258   1.685  1.00  0.00     0.063 A 
HETATM   21  C   UNL     1       1.820   3.460   3.744  1.00  0.00    -0.061 A 
HETATM   22  C   UNL     1       1.558   2.499   4.868  1.00  0.00     0.048 C 
HETATM   23  C   UNL     1       0.827   4.372   3.364  1.00  0.00     0.009 A 
HETATM   24  C   UNL     1       1.032   5.289   2.326  1.00  0.00     0.032 A 
HETATM   25  N   UNL     1       2.782   6.004   0.659  1.00  0.00    -0.277 N 
HETATM   26  H   UNL     1       2.317   6.752   0.158  1.00  0.00     0.189 HD
HETATM   27  N   UNL     1       4.039   5.685   0.306  1.00  0.00    -0.168 NA
ENDBRANCH   1  17
TORSDOF 5
