REMARK  3 active torsions:
REMARK  status: ('A' for Active; 'I' for Inactive)
REMARK    1  A    between atoms: C_3  and  N_4 
REMARK    2  A    between atoms: C_3  and  C_17 
REMARK       I    between atoms: N_4  and  C_5 
REMARK    3  A    between atoms: C_5  and  C_6 
ROOT
HETATM    1  N   UNL     1       0.666  -2.435   2.110  1.00  0.00    -0.306 N 
HETATM    2  C   UNL     1       0.628  -1.054   2.192  1.00  0.00     0.275 C 
HETATM    3  O   UNL     1       1.131  -0.390   3.091  1.00  0.00    -0.266 OA
HETATM    4  H   UNL     1       0.198  -2.811   1.293  1.00  0.00     0.170 HD
ENDROOT
BRANCH   2   5
HETATM    5  C   UNL     1      -0.107  -0.418   1.056  1.00  0.00     0.125 A 
HETATM    6  N   UNL     1      -0.617  -1.285   0.133  1.00  0.00    -0.243 NA
HETATM    7  C   UNL     1      -1.278  -0.754  -0.910  1.00  0.00     0.068 A 
HETATM    8  C   UNL     1      -1.453   0.640  -1.070  1.00  0.00    -0.007 A 
HETATM    9  C   UNL     1      -1.814  -1.596  -1.876  1.00  0.00     0.032 A 
HETATM   10  C   UNL     1      -0.913   1.493  -0.097  1.00  0.00     0.016 A 
HETATM   11  C   UNL     1      -2.151   1.143  -2.180  1.00  0.00     0.014 A 
HETATM   12  C   UNL     1      -0.227   0.959   0.987  1.00  0.00     0.038 A 
HETATM   13  C   UNL     1      -2.677   0.274  -3.134  1.00  0.00     0.001 A 
HETATM   14  C   UNL     1      -2.509  -1.097  -2.982  1.00  0.00     0.002 A 
ENDBRANCH   2   5
BRANCH   1  15
HETATM   15  C   UNL     1       1.298  -3.295   2.970  1.00  0.00     0.133 C 
HETATM   16  N   UNL     1       1.949  -2.896   4.006  1.00  0.00    -0.283 NA
HETATM   17  H   UNL     1       1.889  -1.866   4.049  1.00  0.00     0.188 HD
BRANCH  15  18
HETATM   18  C   UNL     1       1.224  -4.724   2.677  1.00  0.00     0.016 A 
HETATM   19  C   UNL     1       1.937  -5.666   3.403  1.00  0.00     0.065 A 
HETATM   20  S   UNL     1       1.691  -7.269   2.867  1.00  0.00    -0.113 SA
HETATM   21  C   UNL     1       0.612  -6.750   1.652  1.00  0.00     0.050 A 
HETATM   22  C   UNL     1       0.449  -5.381   1.656  1.00  0.00     0.023 A 
ENDBRANCH  15  18
ENDBRANCH   1  15
TORSDOF 3
