REMARK  7 active torsions:
REMARK  status: ('A' for Active; 'I' for Inactive)
REMARK    1  A    between atoms: C_5  and  C_6 
REMARK       I    between atoms: C_6  and  N_7 
REMARK    2  A    between atoms: N_7  and  C_8 
REMARK    3  A    between atoms: C_8  and  C_9 
REMARK    4  A    between atoms: C_9  and  C_10 
REMARK    5  A    between atoms: N_15  and  C_17 
REMARK    6  A    between atoms: C_17  and  C_18 
REMARK    7  A    between atoms: C_21  and  C_22 
ROOT
HETATM    1  C   UNL     1       7.948  -0.539   4.671  1.00  0.00     0.131 A 
HETATM    2  N   UNL     1       7.261  -1.483   5.400  1.00  0.00    -0.319 N 
HETATM    3  C   UNL     1       7.870  -2.682   5.129  1.00  0.00     0.131 A 
HETATM    4  C   UNL     1       7.590  -3.984   5.790  1.00  0.00     0.108 C 
HETATM    5  C   UNL     1       7.658  -3.844   7.306  1.00  0.00     0.243 C 
HETATM    6  N   UNL     1       6.411  -3.196   7.918  1.00  0.00    -0.065 N 
HETATM    7  H   UNL     1       5.838  -3.994   8.228  1.00  0.00     0.280 HD
HETATM    8  C   UNL     1       5.512  -2.408   6.981  1.00  0.00     0.255 C 
HETATM    9  C   UNL     1       6.187  -1.204   6.325  1.00  0.00     0.159 C 
HETATM   10  N   UNL     1       8.821  -2.482   4.246  1.00  0.00    -0.135 NA
HETATM   11  N   UNL     1       8.870  -1.147   3.961  1.00  0.00    -0.135 NA
ENDROOT
BRANCH   1  12
HETATM   12  C   UNL     1       7.753   0.936   4.744  1.00  0.00     0.100 C 
BRANCH  12  13
HETATM   13  C   UNL     1       8.823   1.558   5.645  1.00  0.00     0.130 C 
BRANCH  13  14
HETATM   14  N   UNL     1       8.590   2.965   5.929  1.00  0.00    -0.360 N 
HETATM   15  C   UNL     1       7.641   3.377   6.834  1.00  0.00     0.223 C 
HETATM   16  O   UNL     1       6.879   2.598   7.401  1.00  0.00    -0.273 OA
HETATM   17  H   UNL     1       9.245   3.627   5.526  1.00  0.00     0.162 HD
BRANCH  15  18
HETATM   18  C   UNL     1       7.638   4.875   7.118  1.00  0.00     0.103 C 
HETATM   19  C   UNL     1       6.593   5.174   8.194  1.00  0.00     0.248 C 
HETATM   20  N   UNL     1       6.542   6.663   8.480  1.00  0.00    -0.074 N 
HETATM   21  C   UNL     1       5.588   6.979   9.605  1.00  0.00     0.269 C 
HETATM   22  H   UNL     1       7.472   6.957   8.810  1.00  0.00     0.279 HD
HETATM   23  C   UNL     1       6.223   7.475   7.247  1.00  0.00     0.234 C 
HETATM   24  C   UNL     1       7.265   7.189   6.176  1.00  0.00     0.029 C 
HETATM   25  C   UNL     1       7.366   5.699   5.855  1.00  0.00     0.017 C 
ENDBRANCH  15  18
ENDBRANCH  13  14
ENDBRANCH  12  13
ENDBRANCH   1  12
BRANCH   6  26
HETATM   26  C   UNL     1       6.726  -2.441   9.201  1.00  0.00     0.273 C 
BRANCH  26  27
HETATM   27  C   UNL     1       7.228  -3.323  10.308  1.00  0.00    -0.033 A 
HETATM   28  C   UNL     1       8.597  -3.393  10.597  1.00  0.00     0.010 A 
HETATM   29  C   UNL     1       9.064  -4.221  11.622  1.00  0.00     0.015 A 
HETATM   30  C   UNL     1       8.181  -4.996  12.387  1.00  0.00    -0.002 A 
HETATM   31  C   UNL     1       6.813  -4.921  12.094  1.00  0.00     0.015 A 
HETATM   32  C   UNL     1       6.339  -4.099  11.065  1.00  0.00     0.010 A 
BRANCH  30  33
HETATM   33  C   UNL     1       8.670  -5.850  13.467  1.00  0.00     0.085 A 
HETATM   34  O   UNL     1      10.029  -5.968  13.572  1.00  0.00    -0.322 OA
HETATM   35  C   UNL     1      10.287  -6.793  14.619  1.00  0.00     0.142 A 
HETATM   36  C   UNL     1       9.115  -7.213  15.197  1.00  0.00     0.027 A 
HETATM   37  C   UNL     1       8.070  -6.608  14.455  1.00  0.00     0.040 A 
ENDBRANCH  30  33
ENDBRANCH  26  27
ENDBRANCH   6  26
TORSDOF 7
