REMARK  6 active torsions:
REMARK  status: ('A' for Active; 'I' for Inactive)
REMARK    1  A    between atoms: C_4  and  N_5 
REMARK       I    between atoms: N_5  and  C_6 
REMARK    2  A    between atoms: C_6  and  C_7 
REMARK    3  A    between atoms: C_9  and  N_10 
REMARK       I    between atoms: N_10  and  C_11 
REMARK    4  A    between atoms: C_11  and  C_12 
REMARK    5  A    between atoms: C_12  and  O_13 
REMARK    6  A    between atoms: O_13  and  C_14 
ROOT
HETATM    1  C   UNL     1       2.689   3.670  -0.457  1.00  0.00     0.034 A 
HETATM    2  C   UNL     1       2.387   2.493   0.239  1.00  0.00     0.046 A 
HETATM    3  C   UNL     1       1.127   2.280   0.798  1.00  0.00     0.035 A 
HETATM    4  C   UNL     1       0.190   3.316   0.752  1.00  0.00     0.029 A 
HETATM    5  C   UNL     1       0.501   4.522   0.109  1.00  0.00     0.003 A 
HETATM    6  C   UNL     1       1.746   4.697  -0.504  1.00  0.00     0.017 A 
ENDROOT
BRANCH   3   7
HETATM    7  N   UNL     1       0.780   1.059   1.414  1.00  0.00    -0.325 N 
HETATM    8  C   UNL     1       1.470  -0.137   1.273  1.00  0.00     0.246 C 
HETATM    9  O   UNL     1       2.431  -0.331   0.529  1.00  0.00    -0.271 OA
HETATM   10  H   UNL     1      -0.112   1.001   1.896  1.00  0.00     0.169 HD
BRANCH   8  11
HETATM   11  C   UNL     1       0.978  -1.256   2.185  1.00  0.00     0.278 C 
BRANCH  11  12
HETATM   12  O   UNL     1      -0.385  -1.118   2.565  1.00  0.00    -0.342 OA
BRANCH  12  13
HETATM   13  C   UNL     1      -0.908  -2.191   3.245  1.00  0.00     0.069 A 
HETATM   14  C   UNL     1      -2.294  -2.168   3.413  1.00  0.00     0.037 A 
HETATM   15  C   UNL     1      -2.944  -3.211   4.078  1.00  0.00     0.003 A 
HETATM   16  C   UNL     1      -2.210  -4.281   4.584  1.00  0.00     0.000 A 
HETATM   17  C   UNL     1      -0.826  -4.306   4.430  1.00  0.00     0.003 A 
HETATM   18  C   UNL     1      -0.175  -3.263   3.766  1.00  0.00     0.037 A 
ENDBRANCH  12  13
ENDBRANCH  11  12
ENDBRANCH   8  11
ENDBRANCH   3   7
BRANCH   1  19
HETATM   19  C   UNL     1       4.021   3.830  -1.123  1.00  0.00     0.257 C 
HETATM   20  N   UNL     1       4.574   2.637  -1.542  1.00  0.00    -0.307 N 
HETATM   21  H   UNL     1       3.999   1.809  -1.499  1.00  0.00     0.170 HD
HETATM   22  O   UNL     1       4.477   4.959  -1.248  1.00  0.00    -0.267 OA
BRANCH  20  23
HETATM   23  C   UNL     1       5.887   2.426  -1.975  1.00  0.00     0.130 A 
HETATM   24  C   UNL     1       6.246   1.102  -2.235  1.00  0.00     0.057 A 
HETATM   25  C   UNL     1       7.561   0.798  -2.596  1.00  0.00    -0.057 A 
HETATM   26  C   UNL     1       7.971  -0.616  -2.875  1.00  0.00     0.048 C 
HETATM   27  C   UNL     1       8.465   1.848  -2.729  1.00  0.00     0.026 A 
HETATM   28  C   UNL     1       8.023   3.134  -2.462  1.00  0.00     0.119 A 
HETATM   29  N   UNL     1       6.763   3.436  -2.081  1.00  0.00    -0.243 NA
ENDBRANCH  20  23
ENDBRANCH   1  19
TORSDOF 6
