REMARK  8 active torsions:
REMARK  status: ('A' for Active; 'I' for Inactive)
REMARK    1  A    between atoms: C_2  and  O_3 
REMARK    2  A    between atoms: O_3  and  C_4 
REMARK    3  A    between atoms: C_5  and  N_6 
REMARK       I    between atoms: N_6  and  C_7 
REMARK       I    between atoms: C_7  and  N_8 
REMARK    4  A    between atoms: N_8  and  C_9 
REMARK    5  A    between atoms: C_9  and  C_10 
REMARK       I    between atoms: C_10  and  N_11 
REMARK    6  A    between atoms: N_11  and  N_12 
REMARK    7  A    between atoms: C_13  and  C_14 
REMARK    8  A    between atoms: C_17  and  N_18 
REMARK       I    between atoms: N_18  and  C_19 
ROOT
HETATM    1  C   UNL     1       8.199   4.876  -1.549  1.00  0.00     0.255 C 
HETATM    2  N   UNL     1       8.544   6.152  -1.135  1.00  0.00    -0.246 N 
HETATM    3  O   UNL     1       8.961   4.082  -2.104  1.00  0.00    -0.270 OA
HETATM    4  H   UNL     1       7.891   6.678  -0.548  1.00  0.00     0.192 HD
ENDROOT
BRANCH   1   5
HETATM    5  C   UNL     1       6.796   4.438  -1.118  1.00  0.00     0.228 C 
BRANCH   5   6
HETATM    6  N   UNL     1       5.713   5.354  -1.457  1.00  0.00    -0.334 N 
HETATM    7  C   UNL     1       5.449   6.446  -0.660  1.00  0.00     0.321 C 
HETATM    8  N   UNL     1       4.281   7.060  -1.054  1.00  0.00    -0.306 N 
HETATM    9  O   UNL     1       6.235   6.830   0.198  1.00  0.00    -0.247 OA
HETATM   10  H   UNL     1       4.177   7.109  -2.057  1.00  0.00     0.171 HD
HETATM   11  H   UNL     1       4.874   4.913  -1.805  1.00  0.00     0.164 HD
BRANCH   8  12
HETATM   12  C   UNL     1       3.600   8.038  -0.294  1.00  0.00     0.069 A 
HETATM   13  C   UNL     1       3.444   7.961   1.106  1.00  0.00     0.095 A 
HETATM   14  C   UNL     1       2.771   8.993   1.772  1.00  0.00     0.039 A 
HETATM   15  C   UNL     1       2.216  10.058   1.058  1.00  0.00     0.003 A 
HETATM   16  C   UNL     1       2.316  10.097  -0.329  1.00  0.00     0.002 A 
HETATM   17  C   UNL     1       2.998   9.086  -1.004  1.00  0.00     0.032 A 
BRANCH  13  18
HETATM   18  O   UNL     1       3.897   6.822   1.721  1.00  0.00    -0.349 OA
BRANCH  18  19
HETATM   19  C   UNL     1       3.607   6.645   3.105  1.00  0.00     0.171 C 
HETATM   20  C   UNL     1       4.099   5.268   3.513  1.00  0.00     0.034 C 
ENDBRANCH  18  19
ENDBRANCH  13  18
ENDBRANCH   8  12
ENDBRANCH   5   6
ENDBRANCH   1   5
BRANCH   2  21
HETATM   21  N   UNL     1       9.815   6.606  -1.322  1.00  0.00    -0.184 NA
HETATM   22  C   UNL     1      10.064   7.781  -0.841  1.00  0.00     0.150 C 
BRANCH  22  23
HETATM   23  C   UNL     1      11.415   8.374  -0.925  1.00  0.00    -0.017 A 
HETATM   24  C   UNL     1      12.475   7.660  -1.487  1.00  0.00     0.015 A 
HETATM   25  C   UNL     1      13.761   8.214  -1.515  1.00  0.00     0.030 A 
HETATM   26  C   UNL     1      13.997   9.483  -0.985  1.00  0.00     0.034 A 
HETATM   27  C   UNL     1      12.922  10.200  -0.440  1.00  0.00     0.030 A 
HETATM   28  C   UNL     1      11.634   9.650  -0.407  1.00  0.00     0.015 A 
BRANCH  26  29
HETATM   29  N   UNL     1      15.267  10.096  -0.943  1.00  0.00    -0.328 N 
HETATM   30  C   UNL     1      16.466   9.581  -1.404  1.00  0.00     0.218 C 
HETATM   31  C   UNL     1      17.627  10.506  -1.136  1.00  0.00     0.117 C 
HETATM   32  O   UNL     1      16.638   8.519  -1.991  1.00  0.00    -0.274 OA
HETATM   33  H   UNL     1      15.303  11.013  -0.517  1.00  0.00     0.169 HD
ENDBRANCH  26  29
ENDBRANCH  22  23
ENDBRANCH   2  21
TORSDOF 8
