REMARK  6 active torsions:
REMARK  status: ('A' for Active; 'I' for Inactive)
REMARK    1  A    between atoms: C_4  and  C_5 
REMARK    2  A    between atoms: C_5  and  N_6 
REMARK       I    between atoms: N_6  and  C_7 
REMARK       I    between atoms: C_7  and  N_8 
REMARK    3  A    between atoms: N_8  and  C_9 
REMARK    4  A    between atoms: C_9  and  C_10 
REMARK    5  A    between atoms: C_12  and  O_13 
REMARK    6  A    between atoms: O_13  and  C_14 
ROOT
HETATM    1  N   UNL     1       2.591   1.653   2.077  1.00  0.00    -0.333 N 
HETATM    2  C   UNL     1       3.355   2.771   2.026  1.00  0.00     0.317 C 
HETATM    3  N   UNL     1       3.587   3.288   0.793  1.00  0.00    -0.339 N 
HETATM    4  O   UNL     1       3.826   3.322   3.015  1.00  0.00    -0.247 OA
HETATM    5  H   UNL     1       2.042   1.397   1.270  1.00  0.00     0.165 HD
HETATM    6  H   UNL     1       4.187   4.102   0.826  1.00  0.00     0.164 HD
ENDROOT
BRANCH   3   7
HETATM    7  C   UNL     1       3.351   2.680  -0.500  1.00  0.00     0.163 C 
BRANCH   7   8
HETATM    8  C   UNL     1       1.911   2.663  -0.945  1.00  0.00    -0.035 A 
HETATM    9  C   UNL     1       0.927   3.471  -0.367  1.00  0.00     0.066 A 
HETATM   10  C   UNL     1      -0.381   3.347  -0.807  1.00  0.00     0.164 A 
HETATM   11  N   UNL     1      -0.772   2.522  -1.801  1.00  0.00    -0.237 NA
HETATM   12  C   UNL     1       0.195   1.780  -2.376  1.00  0.00     0.120 A 
HETATM   13  C   UNL     1       1.527   1.812  -1.988  1.00  0.00     0.028 A 
BRANCH  10  14
HETATM   14  O   UNL     1      -1.327   4.117  -0.159  1.00  0.00    -0.329 OA
BRANCH  14  15
HETATM   15  C   UNL     1      -2.699   3.708  -0.341  1.00  0.00     0.130 C 
HETATM   16  C   UNL     1      -3.132   2.380   0.338  1.00  0.00     0.032 C 
HETATM   17  C   UNL     1      -4.460   3.066   0.699  1.00  0.00     0.005 C 
HETATM   18  C   UNL     1      -3.714   4.409   0.601  1.00  0.00     0.032 C 
ENDBRANCH  14  15
ENDBRANCH  10  14
ENDBRANCH   7   8
ENDBRANCH   3   7
BRANCH   1  19
HETATM   19  C   UNL     1       2.165   1.062   3.332  1.00  0.00     0.139 C 
HETATM   20  C   UNL     1       3.181   0.039   3.824  1.00  0.00     0.039 C 
BRANCH  19  21
HETATM   21  C   UNL     1       0.824   0.434   3.118  1.00  0.00     0.075 A 
HETATM   22  O   UNL     1       0.581  -0.122   1.891  1.00  0.00    -0.318 OA
HETATM   23  C   UNL     1      -0.697  -0.590   1.907  1.00  0.00     0.049 A 
HETATM   24  C   UNL     1      -1.185  -1.218   0.663  1.00  0.00     0.076 C 
HETATM   25  C   UNL     1      -1.272  -0.360   3.137  1.00  0.00     0.035 A 
HETATM   26  C   UNL     1      -0.294   0.303   3.917  1.00  0.00     0.037 A 
ENDBRANCH  19  21
ENDBRANCH   1  19
TORSDOF 6
