REMARK  7 active torsions:
REMARK  status: ('A' for Active; 'I' for Inactive)
REMARK    1  A    between atoms: C_4  and  N_5 
REMARK    2  A    between atoms: C_6  and  S_7 
REMARK    3  A    between atoms: S_7  and  C_8 
REMARK    4  A    between atoms: C_8  and  C_9 
REMARK       I    between atoms: C_9  and  N_10 
REMARK    5  A    between atoms: N_10  and  C_11 
REMARK    6  A    between atoms: C_24  and  C_25 
REMARK    7  A    between atoms: C_26  and  O_27 
ROOT
HETATM    1  N   UNL     1       2.550   0.188  -0.733  1.00  0.00    -0.271 N 
HETATM    2  C   UNL     1       3.321   1.284  -1.099  1.00  0.00     0.197 A 
HETATM    3  N   UNL     1       4.574   0.924  -1.261  1.00  0.00    -0.122 NA
HETATM    4  N   UNL     1       4.661  -0.415  -1.045  1.00  0.00    -0.128 NA
HETATM    5  C   UNL     1       3.448  -0.882  -0.799  1.00  0.00     0.172 A 
ENDROOT
BRANCH   2   6
HETATM    6  S   UNL     1       2.806   2.945  -1.169  1.00  0.00    -0.080 SA
BRANCH   6   7
HETATM    7  C   UNL     1       4.411   3.746  -1.493  1.00  0.00     0.185 C 
BRANCH   7   8
HETATM    8  C   UNL     1       4.283   5.237  -1.758  1.00  0.00     0.231 C 
HETATM    9  N   UNL     1       3.290   5.566  -2.666  1.00  0.00    -0.326 N 
HETATM   10  H   UNL     1       2.603   4.844  -2.848  1.00  0.00     0.169 HD
HETATM   11  O   UNL     1       5.079   6.024  -1.251  1.00  0.00    -0.272 OA
BRANCH   9  12
HETATM   12  C   UNL     1       3.085   6.810  -3.296  1.00  0.00     0.037 A 
HETATM   13  C   UNL     1       4.000   7.866  -3.246  1.00  0.00     0.069 A 
HETATM   14  C   UNL     1       3.750   9.048  -3.947  1.00  0.00     0.104 A 
HETATM   15  C   UNL     1       2.565   9.203  -4.669  1.00  0.00     0.102 A 
HETATM   16  O   UNL     1       4.720  10.018  -3.884  1.00  0.00    -0.346 OA
HETATM   17  O   UNL     1       2.242  10.347  -5.353  1.00  0.00    -0.346 OA
HETATM   18  C   UNL     1       1.652   8.156  -4.732  1.00  0.00     0.042 A 
HETATM   19  C   UNL     1       3.085  11.441  -4.969  1.00  0.00     0.202 C 
HETATM   20  C   UNL     1       4.539  11.003  -4.906  1.00  0.00     0.202 C 
HETATM   21  C   UNL     1       1.914   6.961  -4.053  1.00  0.00     0.032 A 
ENDBRANCH   9  12
ENDBRANCH   7   8
ENDBRANCH   6   7
ENDBRANCH   2   6
BRANCH   1  22
HETATM   22  C   UNL     1       1.186   0.144  -0.325  1.00  0.00     0.043 A 
HETATM   23  C   UNL     1       0.212   0.908  -0.981  1.00  0.00     0.030 A 
HETATM   24  C   UNL     1      -1.124   0.833  -0.578  1.00  0.00     0.002 A 
HETATM   25  C   UNL     1      -1.495   0.001   0.477  1.00  0.00     0.000 A 
HETATM   26  C   UNL     1      -0.531  -0.759   1.135  1.00  0.00     0.002 A 
HETATM   27  C   UNL     1       0.806  -0.689   0.738  1.00  0.00     0.030 A 
ENDBRANCH   1  22
BRANCH   5  28
HETATM   28  C   UNL     1       3.172  -2.318  -0.679  1.00  0.00     0.045 A 
HETATM   29  C   UNL     1       4.055  -3.152   0.026  1.00  0.00     0.079 A 
HETATM   30  C   UNL     1       3.812  -4.519   0.152  1.00  0.00     0.037 A 
HETATM   31  C   UNL     1       2.694  -5.083  -0.458  1.00  0.00     0.003 A 
HETATM   32  C   UNL     1       1.825  -4.280  -1.194  1.00  0.00     0.001 A 
HETATM   33  C   UNL     1       2.065  -2.907  -1.310  1.00  0.00     0.018 A 
BRANCH  29  34
HETATM   34  O   UNL     1       5.197  -2.682   0.621  1.00  0.00    -0.360 OA
HETATM   35  H   UNL     1       5.413  -1.815   0.221  1.00  0.00     0.217 HD
ENDBRANCH  29  34
ENDBRANCH   5  28
TORSDOF 7
