REMARK  7 active torsions:
REMARK  status: ('A' for Active; 'I' for Inactive)
REMARK    1  A    between atoms: C_4  and  C_5 
REMARK    2  A    between atoms: C_10  and  C_11 
REMARK       I    between atoms: C_11  and  N_12 
REMARK    3  A    between atoms: N_12  and  C_13 
REMARK    4  A    between atoms: C_13  and  C_14 
REMARK    5  A    between atoms: C_14  and  C_15 
REMARK    6  A    between atoms: C_15  and  N_16 
REMARK    7  A    between atoms: C_26  and  C_27 
ROOT
HETATM    1  C   UNL     1       3.003  -1.934  -0.326  1.00  0.00     0.125 C 
HETATM    2  N   UNL     1       2.327  -1.880  -1.626  1.00  0.00    -0.365 N 
HETATM    3  C   UNL     1       2.143  -3.033  -2.313  1.00  0.00     0.141 A 
HETATM    4  N   UNL     1       2.165  -4.244  -1.669  1.00  0.00    -0.238 N 
HETATM    5  N   UNL     1       2.057  -5.296  -2.503  1.00  0.00    -0.163 NA
HETATM    6  C   UNL     1       1.865  -4.735  -3.720  1.00  0.00     0.165 A 
HETATM    7  C   UNL     1       1.909  -3.323  -3.632  1.00  0.00     0.092 A 
HETATM    8 BR   UNL     1       1.717  -2.099  -5.035  1.00  0.00    -0.044 Br
HETATM    9  C   UNL     1       2.453  -4.408  -0.251  1.00  0.00     0.221 C 
HETATM   10  C   UNL     1       2.359  -3.062   0.496  1.00  0.00     0.067 C 
HETATM   11  H   UNL     1       2.503  -1.014  -2.141  1.00  0.00     0.162 HD
ENDROOT
BRANCH   6  12
HETATM   12  C   UNL     1       1.654  -5.588  -4.894  1.00  0.00     0.273 C 
HETATM   13  N   UNL     1       1.584  -6.935  -4.599  1.00  0.00    -0.355 N 
HETATM   14  H   UNL     1       1.775  -7.167  -3.621  1.00  0.00     0.162 HD
HETATM   15  O   UNL     1       1.506  -5.184  -6.049  1.00  0.00    -0.266 OA
BRANCH  13  16
HETATM   16  C   UNL     1       1.562  -7.969  -5.604  1.00  0.00     0.124 C 
BRANCH  16  17
HETATM   17  C   UNL     1       0.155  -8.383  -6.036  1.00  0.00     0.047 C 
BRANCH  17  18
HETATM   18  C   UNL     1      -0.768  -7.281  -6.560  1.00  0.00     0.236 C 
BRANCH  18  19
HETATM   19  N   UNL     1      -0.165  -6.436  -7.648  1.00  0.00    -0.067 N 
HETATM   20  H   UNL     1       0.690  -5.995  -7.247  1.00  0.00     0.280 HD
HETATM   21  C   UNL     1       0.216  -7.181  -8.914  1.00  0.00     0.261 C 
HETATM   22  C   UNL     1       0.832  -6.206  -9.925  1.00  0.00     0.195 C 
HETATM   23  O   UNL     1      -0.065  -5.130 -10.217  1.00  0.00    -0.388 OA
HETATM   24  C   UNL     1      -0.368  -4.369  -9.042  1.00  0.00     0.195 C 
HETATM   25  C   UNL     1      -1.059  -5.245  -7.992  1.00  0.00     0.261 C 
ENDBRANCH  18  19
ENDBRANCH  17  18
ENDBRANCH  16  17
ENDBRANCH  13  16
ENDBRANCH   6  12
BRANCH   9  26
HETATM   26  C   UNL     1       1.517  -5.414   0.386  1.00  0.00     0.409 C 
HETATM   27  F   UNL     1       1.668  -6.661  -0.111  1.00  0.00    -0.169 F 
HETATM   28  F   UNL     1       1.760  -5.499   1.718  1.00  0.00    -0.169 F 
HETATM   29  F   UNL     1       0.219  -5.064   0.243  1.00  0.00    -0.169 F 
ENDBRANCH   9  26
BRANCH   1  30
HETATM   30  C   UNL     1       2.946  -0.621   0.412  1.00  0.00     0.005 A 
HETATM   31  S   UNL     1       4.395   0.246   0.723  1.00  0.00    -0.104 SA
HETATM   32  C   UNL     1       3.551   1.510   1.505  1.00  0.00     0.050 A 
HETATM   33  C   UNL     1       2.194   1.284   1.533  1.00  0.00     0.008 A 
HETATM   34  C   UNL     1       1.843   0.059   0.894  1.00  0.00     0.017 A 
ENDBRANCH   1  30
TORSDOF 7
