REMARK  6 active torsions:
REMARK  status: ('A' for Active; 'I' for Inactive)
REMARK    1  A    between atoms: C_2  and  N_3 
REMARK    2  A    between atoms: C_2  and  C_18 
REMARK    3  A    between atoms: N_3  and  C_6 
REMARK    4  A    between atoms: C_6  and  C_7 
REMARK    5  A    between atoms: C_10  and  N_11 
REMARK       I    between atoms: N_11  and  C_12 
REMARK    6  A    between atoms: C_12  and  O_13 
ROOT
HETATM    1  N   UNL     1       2.991  -0.233  -1.082  1.00  0.00    -0.061 N 
HETATM    2  H   UNL     1       2.781   0.617  -1.623  1.00  0.00     0.278 HD
HETATM    3  H   UNL     1       4.019  -0.202  -1.004  1.00  0.00     0.278 HD
ENDROOT
BRANCH   1   4
HETATM    4  C   UNL     1       2.431  -0.033   0.306  1.00  0.00     0.241 C 
HETATM    5  C   UNL     1       2.759  -1.248   1.170  1.00  0.00     0.047 C 
BRANCH   4   6
HETATM    6  C   UNL     1       3.045   1.215   0.890  1.00  0.00     0.106 A 
HETATM    7  S   UNL     1       2.277   2.090   2.141  1.00  0.00    -0.070 SA
HETATM    8  C   UNL     1       3.585   3.212   2.153  1.00  0.00     0.035 A 
HETATM    9  C   UNL     1       4.512   2.843   1.174  1.00  0.00     0.075 A 
HETATM   10  C   UNL     1       3.777   4.338   2.970  1.00  0.00     0.021 A 
HETATM   11  N   UNL     1       4.182   1.706   0.444  1.00  0.00    -0.243 NA
HETATM   12  C   UNL     1       5.671   3.627   1.007  1.00  0.00     0.033 A 
HETATM   13  C   UNL     1       5.873   4.748   1.819  1.00  0.00     0.002 A 
HETATM   14  C   UNL     1       4.937   5.097   2.787  1.00  0.00     0.002 A 
ENDBRANCH   4   6
ENDBRANCH   1   4
BRANCH   1  15
HETATM   15  C   UNL     1       2.548  -1.418  -1.853  1.00  0.00     0.271 C 
BRANCH  15  16
HETATM   16  C   UNL     1       2.946  -1.311  -3.298  1.00  0.00    -0.033 A 
HETATM   17  C   UNL     1       4.290  -1.408  -3.680  1.00  0.00     0.011 A 
HETATM   18  C   UNL     1       4.664  -1.294  -5.026  1.00  0.00     0.030 A 
HETATM   19  C   UNL     1       3.706  -1.086  -6.018  1.00  0.00     0.036 A 
HETATM   20  C   UNL     1       2.362  -0.997  -5.634  1.00  0.00     0.030 A 
HETATM   21  C   UNL     1       1.983  -1.102  -4.291  1.00  0.00     0.011 A 
BRANCH  19  22
HETATM   22  N   UNL     1       3.976  -0.969  -7.391  1.00  0.00    -0.303 N 
HETATM   23  C   UNL     1       5.144  -0.947  -8.108  1.00  0.00     0.364 C 
HETATM   24  O   UNL     1       5.108  -0.858  -9.331  1.00  0.00    -0.238 OA
HETATM   25  H   UNL     1       3.184  -0.877  -8.015  1.00  0.00     0.171 HD
BRANCH  23  26
HETATM   26  O   UNL     1       6.285  -1.006  -7.380  1.00  0.00    -0.309 OA
HETATM   27  C   UNL     1       7.479  -0.961  -8.165  1.00  0.00     0.215 C 
ENDBRANCH  23  26
ENDBRANCH  19  22
ENDBRANCH  15  16
ENDBRANCH   1  15
TORSDOF 6
