REMARK  9 active torsions:
REMARK  status: ('A' for Active; 'I' for Inactive)
REMARK    1  A    between atoms: C_2  and  O_3 
REMARK    2  A    between atoms: O_3  and  C_4 
REMARK    3  A    between atoms: C_4  and  C_5 
REMARK    4  A    between atoms: C_8  and  N_9 
REMARK       I    between atoms: N_9  and  C_10 
REMARK    5  A    between atoms: C_10  and  C_11 
REMARK    6  A    between atoms: C_13  and  N_14 
REMARK    7  A    between atoms: N_17  and  C_19 
REMARK    8  A    between atoms: C_19  and  C_20 
REMARK    9  A    between atoms: C_19  and  C_26 
ROOT
HETATM    1  C   UNL     1       6.742  -5.378  -1.434  1.00  0.00     0.200 C 
HETATM    2  N   UNL     1       6.363  -4.435  -2.475  1.00  0.00    -0.211 N 
HETATM    3  C   UNL     1       5.240  -3.693  -2.323  1.00  0.00     0.702 C 
HETATM    4  N   UNL     1       4.326  -3.884  -1.436  1.00  0.00    -0.028 NA
HETATM    5  C   UNL     1       4.529  -4.879  -0.508  1.00  0.00     0.263 C 
HETATM    6  O   UNL     1       3.893  -4.919   0.541  1.00  0.00    -0.271 OA
HETATM    7  C   UNL     1       5.487  -5.992  -0.852  1.00  0.00     0.141 C 
HETATM    8  H   UNL     1       7.136  -3.986  -2.951  1.00  0.00     0.178 HD
ENDROOT
BRANCH   3   9
HETATM    9  N   UNL     1       5.127  -2.722  -3.290  1.00  0.00    -0.213 N 
HETATM   10  C   UNL     1       5.925  -1.489  -3.089  1.00  0.00     0.169 C 
HETATM   11  C   UNL     1       5.181  -0.480  -2.186  1.00  0.00     0.256 C 
HETATM   12  N   UNL     1       3.823  -0.150  -2.810  1.00  0.00    -0.056 N 
HETATM   13  H   UNL     1       3.976   0.137  -3.780  1.00  0.00     0.281 HD
HETATM   14  C   UNL     1       3.001  -1.438  -2.904  1.00  0.00     0.256 C 
HETATM   15  C   UNL     1       3.757  -2.452  -3.790  1.00  0.00     0.169 C 
BRANCH  12  16
HETATM   16  C   UNL     1       3.067   1.012  -2.172  1.00  0.00     0.254 C 
BRANCH  16  17
HETATM   17  C   UNL     1       2.959   0.915  -0.655  1.00  0.00    -0.023 A 
HETATM   18  C   UNL     1       3.948   1.444   0.194  1.00  0.00     0.009 A 
HETATM   19  C   UNL     1       3.830   1.333   1.580  1.00  0.00     0.001 A 
HETATM   20  C   UNL     1       2.725   0.696   2.139  1.00  0.00     0.000 A 
HETATM   21  C   UNL     1       1.734   0.171   1.315  1.00  0.00     0.001 A 
HETATM   22  C   UNL     1       1.848   0.278  -0.072  1.00  0.00     0.009 A 
ENDBRANCH  16  17
BRANCH  16  23
HETATM   23  C   UNL     1       3.473   2.402  -2.688  1.00  0.00    -0.023 A 
HETATM   24  C   UNL     1       4.559   2.641  -3.551  1.00  0.00     0.009 A 
HETATM   25  C   UNL     1       4.845   3.933  -4.007  1.00  0.00     0.001 A 
HETATM   26  C   UNL     1       4.058   5.009  -3.611  1.00  0.00     0.000 A 
HETATM   27  C   UNL     1       2.979   4.800  -2.761  1.00  0.00     0.001 A 
HETATM   28  C   UNL     1       2.686   3.511  -2.309  1.00  0.00     0.009 A 
ENDBRANCH  16  23
ENDBRANCH  12  16
ENDBRANCH   3   9
BRANCH   1  29
HETATM   29  C   UNL     1       7.611  -4.705  -0.345  1.00  0.00     0.246 C 
HETATM   30  N   UNL     1       8.188  -5.632   0.512  1.00  0.00    -0.325 N 
HETATM   31  H   UNL     1       8.059  -6.614   0.293  1.00  0.00     0.169 HD
HETATM   32  O   UNL     1       7.757  -3.485  -0.309  1.00  0.00    -0.271 OA
BRANCH  30  33
HETATM   33  C   UNL     1       8.939  -5.388   1.680  1.00  0.00     0.034 A 
HETATM   34  C   UNL     1       9.200  -4.120   2.198  1.00  0.00     0.030 A 
HETATM   35  C   UNL     1       9.903  -3.980   3.404  1.00  0.00     0.020 A 
HETATM   36  C   UNL     1      10.351  -5.105   4.107  1.00  0.00     0.039 A 
HETATM   37  C   UNL     1      10.114  -6.376   3.575  1.00  0.00     0.020 A 
HETATM   38  C   UNL     1       9.414  -6.513   2.371  1.00  0.00     0.030 A 
BRANCH  36  39
HETATM   39  C   UNL     1      11.038  -4.903   5.412  1.00  0.00     0.293 C 
HETATM   40  O   UNL     1      11.346  -3.805   5.845  1.00  0.00    -0.259 OA
BRANCH  39  41
HETATM   41  O   UNL     1      11.218  -6.092   6.039  1.00  0.00    -0.318 OA
BRANCH  41  42
HETATM   42  C   UNL     1      11.774  -6.030   7.361  1.00  0.00     0.174 C 
HETATM   43  C   UNL     1      13.289  -6.039   7.299  1.00  0.00     0.034 C 
ENDBRANCH  41  42
ENDBRANCH  39  41
ENDBRANCH  36  39
ENDBRANCH  30  33
ENDBRANCH   1  29
TORSDOF 9
