REMARK  6 active torsions:
REMARK  status: ('A' for Active; 'I' for Inactive)
REMARK    1  A    between atoms: C_3  and  N_4 
REMARK    2  A    between atoms: N_4  and  C_5 
REMARK    3  A    between atoms: C_5  and  C_6 
REMARK    4  A    between atoms: N_8  and  C_10 
REMARK    5  A    between atoms: C_10  and  C_11 
REMARK    6  A    between atoms: C_12  and  C_13 
ROOT
HETATM    1  C   UNL     1       5.080  -0.469  -0.531  1.00  0.00     0.031 C 
HETATM    2  C   UNL     1       5.984  -1.383   0.307  1.00  0.00     0.241 C 
HETATM    3  N   UNL     1       7.279  -0.613   0.493  1.00  0.00    -0.067 N 
HETATM    4  H   UNL     1       7.416  -0.474   1.504  1.00  0.00     0.280 HD
HETATM    5  C   UNL     1       7.091   0.764  -0.105  1.00  0.00     0.235 C 
HETATM    6  C   UNL     1       5.586   0.923  -0.160  1.00  0.00     0.035 C 
ENDROOT
BRANCH   3   7
HETATM    7  C   UNL     1       8.519  -1.350   0.033  1.00  0.00     0.277 C 
BRANCH   7   8
HETATM    8  C   UNL     1       9.755  -0.531   0.084  1.00  0.00     0.016 A 
HETATM    9  C   UNL     1      10.749  -0.382  -0.937  1.00  0.00     0.102 A 
HETATM   10  N   UNL     1      11.688   0.489  -0.552  1.00  0.00    -0.174 NA
HETATM   11  N   UNL     1      11.394   0.798   0.713  1.00  0.00    -0.288 N 
HETATM   12  H   UNL     1      12.033   1.407   1.221  1.00  0.00     0.188 HD
HETATM   13  C   UNL     1      10.225   0.234   1.138  1.00  0.00     0.120 A 
BRANCH   9  14
HETATM   14  C   UNL     1      10.841  -1.010  -2.248  1.00  0.00     0.072 A 
HETATM   15  C   UNL     1       9.834  -0.867  -3.206  1.00  0.00     0.132 A 
HETATM   16  F   UNL     1       8.708  -0.191  -2.917  1.00  0.00    -0.205 F 
HETATM   17  C   UNL     1       9.946  -1.445  -4.471  1.00  0.00     0.043 A 
HETATM   18  C   UNL     1      11.081  -2.186  -4.797  1.00  0.00     0.006 A 
HETATM   19  C   UNL     1      12.092  -2.350  -3.851  1.00  0.00     0.043 A 
HETATM   20  C   UNL     1      11.967  -1.764  -2.591  1.00  0.00     0.132 A 
HETATM   21  F   UNL     1      12.941  -1.980  -1.695  1.00  0.00    -0.205 F 
ENDBRANCH   9  14
ENDBRANCH   7   8
ENDBRANCH   3   7
BRANCH   1  22
HETATM   22  C   UNL     1       5.179  -0.799  -2.034  1.00  0.00     0.127 C 
BRANCH  22  23
HETATM   23  N   UNL     1       4.422   0.159  -2.838  1.00  0.00    -0.376 N 
HETATM   24  H   UNL     1       3.675   0.659  -2.364  1.00  0.00     0.161 HD
BRANCH  23  25
HETATM   25  C   UNL     1       4.406   0.107  -4.218  1.00  0.00     0.100 A 
HETATM   26  C   UNL     1       5.204  -0.747  -4.993  1.00  0.00     0.048 A 
HETATM   27  C   UNL     1       5.138  -0.705  -6.385  1.00  0.00     0.005 A 
HETATM   28  C   UNL     1       4.292   0.204  -7.004  1.00  0.00     0.017 A 
HETATM   29  C   UNL     1       3.530   1.047  -6.213  1.00  0.00     0.089 A 
HETATM   30  N   UNL     1       3.609   0.970  -4.875  1.00  0.00    -0.353 N 
HETATM   31  H   UNL     1       3.049   1.616  -4.326  1.00  0.00     0.166 HD
ENDBRANCH  23  25
ENDBRANCH  22  23
ENDBRANCH   1  22
TORSDOF 6
