REMARK  3 active torsions:
REMARK  status: ('A' for Active; 'I' for Inactive)
REMARK    1  A    between atoms: C_8  and  C_9 
REMARK       I    between atoms: C_9  and  N_10 
REMARK    2  A    between atoms: N_10  and  C_11 
REMARK    3  A    between atoms: C_18  and  C_19 
REMARK       I    between atoms: C_19  and  N_20 
ROOT
HETATM    1  C   UNL     1      -1.081  -3.652   2.897  1.00  0.00     0.035 A 
HETATM    2  C   UNL     1      -1.248  -5.013   2.609  1.00  0.00     0.046 A 
HETATM    3  C   UNL     1      -1.193  -5.960   3.656  1.00  0.00     0.030 A 
HETATM    4  C   UNL     1      -0.977  -5.513   4.954  1.00  0.00     0.063 A 
HETATM    5  N   UNL     1      -0.973  -6.639   5.729  1.00  0.00    -0.277 N 
HETATM    6  H   UNL     1      -0.840  -6.692   6.733  1.00  0.00     0.189 HD
HETATM    7  N   UNL     1      -1.169  -7.782   5.053  1.00  0.00    -0.168 NA
HETATM    8  C   UNL     1      -1.308  -7.379   3.769  1.00  0.00     0.156 A 
HETATM    9  C   UNL     1      -0.811  -4.166   5.278  1.00  0.00     0.034 A 
HETATM   10  C   UNL     1      -0.869  -3.248   4.223  1.00  0.00     0.032 A 
ENDROOT
BRANCH   1  11
HETATM   11  N   UNL     1      -1.113  -2.631   1.924  1.00  0.00    -0.327 N 
HETATM   12  C   UNL     1      -1.243  -2.769   0.551  1.00  0.00     0.231 C 
HETATM   13  O   UNL     1      -1.376  -3.825  -0.061  1.00  0.00    -0.272 OA
HETATM   14  H   UNL     1      -0.966  -1.688   2.266  1.00  0.00     0.169 HD
BRANCH  12  15
HETATM   15  C   UNL     1      -1.265  -1.441  -0.211  1.00  0.00     0.116 C 
HETATM   16  C   UNL     1      -0.110  -0.518   0.124  1.00  0.00    -0.012 A 
HETATM   17  C   UNL     1       1.207  -1.003   0.177  1.00  0.00     0.011 A 
HETATM   18  C   UNL     1      -0.335   0.846   0.351  1.00  0.00     0.075 A 
HETATM   19  C   UNL     1       2.264  -0.152   0.503  1.00  0.00     0.001 A 
HETATM   20  C   UNL     1       2.020   1.194   0.767  1.00  0.00     0.003 A 
HETATM   21  C   UNL     1       0.720   1.692   0.691  1.00  0.00     0.037 A 
HETATM   22  O   UNL     1      -1.573   1.427   0.290  1.00  0.00    -0.351 OA
HETATM   23  C   UNL     1      -2.526   0.680  -0.470  1.00  0.00     0.176 C 
HETATM   24  C   UNL     1      -2.611  -0.750   0.024  1.00  0.00     0.045 C 
ENDBRANCH  12  15
ENDBRANCH   1  11
BRANCH   8  25
HETATM   25  C   UNL     1      -1.545  -8.349   2.690  1.00  0.00     0.270 C 
HETATM   26  N   UNL     1      -1.598  -9.650   3.111  1.00  0.00    -0.365 N 
HETATM   27  H   UNL     1      -1.475  -9.846   4.098  1.00  0.00     0.159 HD
HETATM   28  H   UNL     1      -1.756 -10.385   2.441  1.00  0.00     0.159 HD
HETATM   29  O   UNL     1      -1.689  -8.060   1.508  1.00  0.00    -0.266 OA
ENDBRANCH   8  25
TORSDOF 3
