REMARK  7 active torsions:
REMARK  status: ('A' for Active; 'I' for Inactive)
REMARK    1  A    between atoms: S_2  and  C_3 
REMARK    2  A    between atoms: C_3  and  C_4 
REMARK    3  A    between atoms: C_4  and  C_5 
REMARK    4  A    between atoms: C_5  and  N_6 
REMARK    5  A    between atoms: C_5  and  C_26 
REMARK       I    between atoms: N_6  and  C_7 
REMARK    6  A    between atoms: C_7  and  C_8 
REMARK    7  A    between atoms: C_8  and  N_9 
ROOT
HETATM    1  N   UNL     1       4.723   2.389   3.370  1.00  0.00    -0.348 N 
HETATM    2  C   UNL     1       3.443   2.784   3.698  1.00  0.00     0.236 C 
HETATM    3  O   UNL     1       3.043   2.768   4.865  1.00  0.00    -0.272 OA
HETATM    4  H   UNL     1       4.856   1.958   2.458  1.00  0.00     0.163 HD
ENDROOT
BRANCH   2   5
HETATM    5  C   UNL     1       2.470   3.027   2.546  1.00  0.00     0.239 C 
BRANCH   5   6
HETATM    6  N   UNL     1       3.036   3.603   1.345  1.00  0.00    -0.259 N 
HETATM    7  C   UNL     1       3.599   2.877   0.348  1.00  0.00     0.326 A 
HETATM    8  O   UNL     1       3.874   1.689   0.389  1.00  0.00    -0.247 OA
HETATM    9  N   UNL     1       3.828   3.694  -0.727  1.00  0.00    -0.320 N 
HETATM   10  C   UNL     1       3.393   5.058  -0.496  1.00  0.00     0.144 A 
HETATM   11  H   UNL     1       4.149   3.329  -1.613  1.00  0.00     0.165 HD
HETATM   12  C   UNL     1       2.305   5.446  -1.491  1.00  0.00    -0.014 A 
HETATM   13  C   UNL     1       4.594   6.016  -0.512  1.00  0.00     0.047 C 
HETATM   14  C   UNL     1       2.880   4.909   0.959  1.00  0.00     0.261 A 
HETATM   15  C   UNL     1       2.585   6.325  -2.561  1.00  0.00    -0.049 A 
HETATM   16  C   UNL     1       1.005   4.911  -1.389  1.00  0.00     0.011 A 
HETATM   17  C   UNL     1       1.566   6.673  -3.464  1.00  0.00     0.007 A 
HETATM   18  C   UNL     1       3.938   6.972  -2.734  1.00  0.00     0.039 C 
HETATM   19  C   UNL     1       0.284   6.147  -3.331  1.00  0.00     0.001 A 
HETATM   20  C   UNL     1       0.004   5.263  -2.296  1.00  0.00     0.001 A 
HETATM   21  C   UNL     1       5.047   6.288  -1.944  1.00  0.00     0.008 C 
HETATM   22  O   UNL     1       2.384   5.797   1.640  1.00  0.00    -0.270 OA
ENDBRANCH   5   6
ENDBRANCH   2   5
BRANCH   1  23
HETATM   23  C   UNL     1       5.670   2.017   4.421  1.00  0.00     0.155 C 
BRANCH  23  24
HETATM   24  C   UNL     1       7.127   2.221   3.976  1.00  0.00     0.043 C 
BRANCH  24  25
HETATM   25  C   UNL     1       7.545   3.681   3.807  1.00  0.00     0.076 C 
BRANCH  25  26
HETATM   26  S   UNL     1       7.399   4.730   5.296  1.00  0.00    -0.173 SA
HETATM   27  C   UNL     1       8.502   3.840   6.425  1.00  0.00     0.089 C 
ENDBRANCH  25  26
ENDBRANCH  24  25
ENDBRANCH  23  24
BRANCH  23  28
HETATM   28  C   UNL     1       5.426   0.584   4.821  1.00  0.00     0.128 A 
HETATM   29  N   UNL     1       6.241  -0.446   4.686  1.00  0.00    -0.231 NA
HETATM   30  C   UNL     1       5.617  -1.497   5.315  1.00  0.00     0.085 A 
HETATM   31  C   UNL     1       4.376  -1.114   5.812  1.00  0.00     0.062 A 
HETATM   32  C   UNL     1       6.058  -2.813   5.514  1.00  0.00     0.034 A 
HETATM   33  N   UNL     1       4.278   0.212   5.484  1.00  0.00    -0.341 N 
HETATM   34  C   UNL     1       3.521  -1.984   6.492  1.00  0.00     0.032 A 
HETATM   35  H   UNL     1       3.512   0.840   5.702  1.00  0.00     0.167 HD
HETATM   36  C   UNL     1       3.977  -3.295   6.680  1.00  0.00     0.002 A 
HETATM   37  C   UNL     1       5.226  -3.704   6.205  1.00  0.00     0.002 A 
ENDBRANCH  23  28
ENDBRANCH   1  23
TORSDOF 7
