REMARK  3 active torsions:
REMARK  status: ('A' for Active; 'I' for Inactive)
REMARK    1  A    between atoms: O_2  and  C_3 
REMARK       I    between atoms: N_13  and  C_14 
REMARK       I    between atoms: C_14  and  N_15 
REMARK    2  A    between atoms: N_15  and  C_16 
REMARK    3  A    between atoms: C_22  and  C_23 
ROOT
HETATM    1  C   UNL     1       2.861  -1.086   0.251  1.00  0.00     0.069 A 
HETATM    2  C   UNL     1       4.148  -1.082  -0.302  1.00  0.00     0.051 A 
HETATM    3  C   UNL     1       4.808  -2.301  -0.551  1.00  0.00     0.002 A 
HETATM    4  C   UNL     1       4.169  -3.493  -0.206  1.00  0.00     0.043 A 
HETATM    5  N   UNL     1       5.007  -4.528  -0.563  1.00  0.00    -0.356 N 
HETATM    6  H   UNL     1       4.779  -5.508  -0.461  1.00  0.00     0.166 HD
HETATM    7  C   UNL     1       6.126  -4.032  -1.182  1.00  0.00     0.045 A 
HETATM    8  C   UNL     1       6.046  -2.656  -1.143  1.00  0.00    -0.019 A 
HETATM    9  C   UNL     1       7.113  -1.817  -1.735  1.00  0.00     0.061 C 
HETATM   10  C   UNL     1       8.403  -2.642  -1.834  1.00  0.00     0.133 C 
HETATM   11  N   UNL     1       8.224  -3.973  -2.462  1.00  0.00    -0.320 N 
HETATM   12  C   UNL     1       9.419  -4.493  -2.977  1.00  0.00     0.319 C 
HETATM   13  N   UNL     1       9.278  -5.636  -3.716  1.00  0.00    -0.338 N 
HETATM   14  O   UNL     1      10.504  -3.937  -2.828  1.00  0.00    -0.247 OA
HETATM   15  C   UNL     1       7.198  -4.871  -1.839  1.00  0.00     0.172 C 
HETATM   16  C   UNL     1       2.898  -3.519   0.377  1.00  0.00     0.033 A 
HETATM   17  C   UNL     1       2.253  -2.294   0.596  1.00  0.00     0.039 A 
HETATM   18  H   UNL     1       8.389  -5.681  -4.188  1.00  0.00     0.164 HD
ENDROOT
BRANCH  15  19
HETATM   19  C   UNL     1       6.529  -5.842  -2.811  1.00  0.00    -0.029 A 
HETATM   20  C   UNL     1       6.613  -7.230  -2.591  1.00  0.00     0.012 A 
HETATM   21  C   UNL     1       5.997  -8.122  -3.470  1.00  0.00     0.043 A 
HETATM   22  C   UNL     1       5.293  -7.633  -4.564  1.00  0.00     0.116 A 
HETATM   23  F   UNL     1       4.702  -8.493  -5.404  1.00  0.00    -0.206 F 
HETATM   24  C   UNL     1       5.192  -6.268  -4.799  1.00  0.00     0.043 A 
HETATM   25  C   UNL     1       5.808  -5.372  -3.925  1.00  0.00     0.012 A 
ENDBRANCH  15  19
BRANCH  13  26
HETATM   26  C   UNL     1      10.349  -6.265  -4.465  1.00  0.00     0.086 C 
HETATM   27  C   UNL     1      10.945  -5.402  -5.573  1.00  0.00     0.025 C 
HETATM   28  C   UNL     1      12.185  -6.186  -5.975  1.00  0.00     0.002 C 
HETATM   29  C   UNL     1      12.703  -6.810  -4.679  1.00  0.00     0.002 C 
HETATM   30  C   UNL     1      11.563  -6.723  -3.661  1.00  0.00     0.025 C 
ENDBRANCH  13  26
BRANCH   1  31
HETATM   31  O   UNL     1       2.309   0.157   0.412  1.00  0.00    -0.356 OA
HETATM   32  C   UNL     1       0.901   0.204   0.602  1.00  0.00     0.210 C 
ENDBRANCH   1  31
TORSDOF 3
