REMARK  6 active torsions:
REMARK  status: ('A' for Active; 'I' for Inactive)
REMARK    1  A    between atoms: C_3  and  C_4 
REMARK    2  A    between atoms: C_9  and  N_10 
REMARK       I    between atoms: N_10  and  C_11 
REMARK       I    between atoms: C_11  and  N_12 
REMARK    3  A    between atoms: N_12  and  C_13 
REMARK    4  A    between atoms: C_13  and  C_14 
REMARK    5  A    between atoms: C_14  and  C_15 
REMARK    6  A    between atoms: C_18  and  N_19 
ROOT
HETATM    1  N   UNL     1       5.085  -2.428   0.071  1.00  0.00    -0.309 N 
HETATM    2  C   UNL     1       4.511  -3.612  -0.301  1.00  0.00     0.320 C 
HETATM    3  N   UNL     1       3.182  -3.739  -0.022  1.00  0.00    -0.343 N 
HETATM    4  O   UNL     1       5.066  -4.545  -0.872  1.00  0.00    -0.247 OA
HETATM    5  H   UNL     1       4.465  -1.731   0.447  1.00  0.00     0.170 HD
HETATM    6  H   UNL     1       2.802  -4.612  -0.370  1.00  0.00     0.164 HD
ENDROOT
BRANCH   3   7
HETATM    7  C   UNL     1       2.252  -2.808   0.598  1.00  0.00     0.129 C 
BRANCH   7   8
HETATM    8  C   UNL     1       1.795  -1.682  -0.336  1.00  0.00     0.058 C 
BRANCH   8   9
HETATM    9  C   UNL     1       0.891  -2.153  -1.450  1.00  0.00    -0.057 A 
HETATM   10  C   UNL     1      -0.499  -2.051  -1.325  1.00  0.00     0.009 A 
HETATM   11  C   UNL     1      -1.336  -2.469  -2.363  1.00  0.00     0.032 A 
HETATM   12  C   UNL     1      -0.795  -3.004  -3.541  1.00  0.00     0.058 A 
HETATM   13  C   UNL     1       0.595  -3.121  -3.664  1.00  0.00     0.032 A 
HETATM   14  C   UNL     1       1.429  -2.695  -2.624  1.00  0.00     0.009 A 
BRANCH  12  15
HETATM   15  N   UNL     1      -1.667  -3.408  -4.590  1.00  0.00    -0.246 N 
HETATM   16  N   UNL     1      -3.016  -3.271  -4.471  1.00  0.00    -0.180 NA
HETATM   17  C   UNL     1      -3.509  -3.726  -5.623  1.00  0.00     0.140 A 
HETATM   18  C   UNL     1      -2.508  -4.169  -6.497  1.00  0.00     0.040 A 
HETATM   19  C   UNL     1      -1.335  -3.957  -5.813  1.00  0.00     0.120 A 
ENDBRANCH  12  15
ENDBRANCH   8   9
ENDBRANCH   7   8
ENDBRANCH   3   7
BRANCH   1  20
HETATM   20  C   UNL     1       6.428  -2.032  -0.083  1.00  0.00     0.036 A 
HETATM   21  C   UNL     1       7.447  -2.878  -0.513  1.00  0.00     0.030 A 
HETATM   22  C   UNL     1       8.759  -2.407  -0.626  1.00  0.00     0.018 A 
HETATM   23  C   UNL     1       9.073  -1.074  -0.324  1.00  0.00     0.015 A 
HETATM   24  C   UNL     1       8.053  -0.202   0.101  1.00  0.00    -0.046 A 
HETATM   25  C   UNL     1       8.308   1.244   0.434  1.00  0.00     0.049 C 
HETATM   26  C   UNL     1       6.743  -0.702   0.232  1.00  0.00     0.037 A 
BRANCH  23  27
HETATM   27  C   UNL     1      10.492  -0.621  -0.438  1.00  0.00     0.156 C 
HETATM   28  C   UNL     1      11.357  -1.236  -1.508  1.00  0.00     0.097 C 
HETATM   29  O   UNL     1      10.946   0.213   0.341  1.00  0.00    -0.293 OA
ENDBRANCH  23  27
ENDBRANCH   1  20
TORSDOF 6
