REMARK  5 active torsions:
REMARK  status: ('A' for Active; 'I' for Inactive)
REMARK    1  A    between atoms: C_3  and  O_4 
REMARK    2  A    between atoms: C_6  and  N_7 
REMARK       I    between atoms: N_7  and  C_8 
REMARK    3  A    between atoms: C_8  and  C_9 
REMARK    4  A    between atoms: C_14  and  C_15 
REMARK    5  A    between atoms: C_23  and  C_24 
ROOT
HETATM    1  C   UNL     1      -3.739  -1.565  -0.458  1.00  0.00     0.148 A 
HETATM    2  N   UNL     1      -3.214  -0.317  -0.455  1.00  0.00    -0.165 NA
HETATM    3  N   UNL     1      -4.300   0.477  -0.382  1.00  0.00    -0.240 N 
HETATM    4  C   UNL     1      -5.486  -0.198  -0.434  1.00  0.00     0.123 A 
HETATM    5  N   UNL     1      -6.673   0.443  -0.450  1.00  0.00    -0.366 N 
HETATM    6  C   UNL     1      -6.786   1.888  -0.298  1.00  0.00     0.118 C 
HETATM    7  C   UNL     1      -5.497   2.592  -0.762  1.00  0.00     0.066 C 
HETATM    8  C   UNL     1      -4.189   1.921  -0.301  1.00  0.00     0.221 C 
HETATM    9  C   UNL     1      -5.160  -1.527  -0.458  1.00  0.00     0.089 A 
HETATM   10  H   UNL     1      -7.548  -0.074  -0.378  1.00  0.00     0.161 HD
ENDROOT
BRANCH   1  11
HETATM   11  C   UNL     1      -2.896  -2.776  -0.465  1.00  0.00     0.276 C 
HETATM   12  N   UNL     1      -1.551  -2.466  -0.503  1.00  0.00    -0.322 N 
HETATM   13  H   UNL     1      -1.368  -1.467  -0.550  1.00  0.00     0.169 HD
HETATM   14  O   UNL     1      -3.393  -3.895  -0.444  1.00  0.00    -0.266 OA
BRANCH  12  15
HETATM   15  C   UNL     1      -0.453  -3.343  -0.484  1.00  0.00     0.037 A 
HETATM   16  C   UNL     1      -0.564  -4.728  -0.342  1.00  0.00     0.066 A 
HETATM   17  C   UNL     1       0.583  -5.520  -0.319  1.00  0.00     0.067 A 
HETATM   18  C   UNL     1       1.849  -4.957  -0.445  1.00  0.00     0.036 A 
HETATM   19  C   UNL     1       1.967  -3.577  -0.591  1.00  0.00     0.005 A 
HETATM   20  C   UNL     1       0.822  -2.774  -0.606  1.00  0.00     0.029 A 
BRANCH  17  21
HETATM   21  O   UNL     1       0.422  -6.866  -0.164  1.00  0.00    -0.361 OA
HETATM   22  H   UNL     1       1.297  -7.286  -0.143  1.00  0.00     0.217 HD
ENDBRANCH  17  21
ENDBRANCH  12  15
ENDBRANCH   1  11
BRANCH   8  23
HETATM   23  C   UNL     1      -3.745   2.333   1.084  1.00  0.00     0.409 C 
HETATM   24  F   UNL     1      -4.502   1.828   2.075  1.00  0.00    -0.169 F 
HETATM   25  F   UNL     1      -2.463   1.971   1.330  1.00  0.00    -0.169 F 
HETATM   26  F   UNL     1      -3.782   3.686   1.202  1.00  0.00    -0.169 F 
ENDBRANCH   8  23
BRANCH   6  27
HETATM   27  C   UNL     1      -7.290   2.295   1.077  1.00  0.00    -0.035 A 
HETATM   28  C   UNL     1      -7.289   1.423   2.181  1.00  0.00     0.012 A 
HETATM   29  C   UNL     1      -7.788   1.831   3.420  1.00  0.00     0.043 A 
HETATM   30  C   UNL     1      -8.301   3.112   3.564  1.00  0.00     0.116 A 
HETATM   31  F   UNL     1      -8.787   3.501   4.750  1.00  0.00    -0.206 F 
HETATM   32  C   UNL     1      -8.322   3.994   2.493  1.00  0.00     0.043 A 
HETATM   33  C   UNL     1      -7.818   3.589   1.255  1.00  0.00     0.012 A 
ENDBRANCH   6  27
TORSDOF 5
