REMARK  9 active torsions:
REMARK  status: ('A' for Active; 'I' for Inactive)
REMARK       I    between atoms: C_2  and  N_3 
REMARK    1  A    between atoms: N_3  and  C_4 
REMARK    2  A    between atoms: C_7  and  C_8 
REMARK    3  A    between atoms: C_8  and  N_9 
REMARK    4  A    between atoms: C_11  and  C_12 
REMARK       I    between atoms: C_12  and  N_13 
REMARK    5  A    between atoms: N_13  and  C_14 
REMARK    6  A    between atoms: C_16  and  S_17 
REMARK    7  A    between atoms: C_24  and  N_25 
REMARK    8  A    between atoms: C_28  and  C_29 
REMARK    9  A    between atoms: C_29  and  O_30 
ROOT
HETATM    1  N   UNL     1      -0.646  -0.997   5.357  1.00  0.00    -0.052 N 
HETATM    2  H   UNL     1      -0.208  -1.117   6.283  1.00  0.00     0.281 HD
HETATM    3  C   UNL     1      -2.165  -1.193   5.528  1.00  0.00     0.282 C 
HETATM    4  C   UNL     1      -2.712  -0.542   4.268  1.00  0.00     0.072 C 
HETATM    5  C   UNL     1      -1.813   0.698   4.075  1.00  0.00     0.134 C 
HETATM    6  C   UNL     1      -0.521   0.421   4.864  1.00  0.00     0.263 C 
ENDROOT
BRANCH   1   7
HETATM    7  C   UNL     1       0.007  -2.039   4.458  1.00  0.00     0.274 C 
BRANCH   7   8
HETATM    8  C   UNL     1       1.507  -1.977   4.420  1.00  0.00    -0.032 A 
HETATM    9  C   UNL     1       2.260  -2.295   5.557  1.00  0.00     0.011 A 
HETATM   10  C   UNL     1       3.655  -2.368   5.487  1.00  0.00     0.030 A 
HETATM   11  C   UNL     1       4.323  -2.137   4.284  1.00  0.00     0.034 A 
HETATM   12  C   UNL     1       3.573  -1.774   3.159  1.00  0.00     0.030 A 
HETATM   13  C   UNL     1       2.178  -1.694   3.224  1.00  0.00     0.011 A 
BRANCH  11  14
HETATM   14  N   UNL     1       5.713  -2.294   4.112  1.00  0.00    -0.328 N 
HETATM   15  C   UNL     1       6.632  -2.709   5.060  1.00  0.00     0.218 C 
HETATM   16  C   UNL     1       8.008  -2.922   4.480  1.00  0.00     0.117 C 
HETATM   17  O   UNL     1       6.407  -2.937   6.244  1.00  0.00    -0.274 OA
HETATM   18  H   UNL     1       6.068  -2.146   3.175  1.00  0.00     0.169 HD
ENDBRANCH  11  14
ENDBRANCH   7   8
ENDBRANCH   1   7
BRANCH   3  19
HETATM   19  C   UNL     1      -2.490  -2.648   5.902  1.00  0.00     0.253 C 
HETATM   20  N   UNL     1      -3.424  -3.307   5.139  1.00  0.00    -0.325 N 
HETATM   21  H   UNL     1      -4.084  -2.776   4.581  1.00  0.00     0.169 HD
HETATM   22  O   UNL     1      -1.822  -3.138   6.815  1.00  0.00    -0.271 OA
BRANCH  20  23
HETATM   23  C   UNL     1      -3.639  -4.710   5.126  1.00  0.00     0.036 A 
HETATM   24  C   UNL     1      -2.777  -5.632   5.738  1.00  0.00     0.048 A 
HETATM   25  C   UNL     1      -3.017  -7.011   5.668  1.00  0.00     0.002 A 
HETATM   26  C   UNL     1      -4.131  -7.463   4.955  1.00  0.00     0.018 A 
HETATM   27  C   UNL     1      -4.992  -6.558   4.334  1.00  0.00     0.004 A 
HETATM   28  C   UNL     1      -4.745  -5.187   4.416  1.00  0.00     0.029 A 
BRANCH  25  29
HETATM   29  S   UNL     1      -1.945  -8.251   6.385  1.00  0.00    -0.134 SA
HETATM   30  C   UNL     1      -1.082  -7.345   7.698  1.00  0.00     0.095 C 
ENDBRANCH  25  29
ENDBRANCH  20  23
ENDBRANCH   3  19
BRANCH   5  31
HETATM   31  N   UNL     1      -1.495   1.009   2.699  1.00  0.00    -0.276 N 
HETATM   32  N   UNL     1      -0.911   0.079   1.930  1.00  0.00     0.005 NA
HETATM   33  N   UNL     1      -0.444   0.690   0.851  1.00  0.00    -0.152 NA
HETATM   34  C   UNL     1      -0.757   2.027   0.939  1.00  0.00     0.166 A 
HETATM   35  C   UNL     1      -1.462   2.234   2.111  1.00  0.00     0.147 A 
BRANCH  34  36
HETATM   36  C   UNL     1      -0.342   3.040  -0.020  1.00  0.00     0.314 C 
HETATM   37  O   UNL     1      -0.663   4.218   0.083  1.00  0.00    -0.257 OA
BRANCH  36  38
HETATM   38  O   UNL     1       0.475   2.539  -0.990  1.00  0.00    -0.321 OA
HETATM   39  C   UNL     1       0.984   3.523  -1.892  1.00  0.00     0.213 C 
ENDBRANCH  36  38
ENDBRANCH  34  36
ENDBRANCH   5  31
TORSDOF 9
