REMARK  9 active torsions:
REMARK  status: ('A' for Active; 'I' for Inactive)
REMARK    1  A    between atoms: C_2  and  C_3 
REMARK    2  A    between atoms: C_3  and  O_4 
REMARK    3  A    between atoms: C_3  and  C_5 
REMARK    4  A    between atoms: C_5  and  N_6 
REMARK    5  A    between atoms: N_6  and  C_8 
REMARK    6  A    between atoms: N_6  and  C_21 
REMARK    7  A    between atoms: C_8  and  C_9 
REMARK    8  A    between atoms: C_10  and  C_11 
REMARK    9  A    between atoms: C_21  and  C_22 
ROOT
HETATM    1  N   UNL     1       5.124   2.538   1.255  1.00  0.00    -0.061 N 
HETATM    2  H   UNL     1       4.722   3.358   0.796  1.00  0.00     0.280 HD
ENDROOT
BRANCH   1   3
HETATM    3  C   UNL     1       4.645   1.344   0.437  1.00  0.00     0.267 C 
BRANCH   3   4
HETATM    4  C   UNL     1       3.108   1.286   0.272  1.00  0.00     0.143 C 
BRANCH   4   5
HETATM    5  C   UNL     1       2.739   0.193  -0.742  1.00  0.00     0.029 C 
HETATM    6  C   UNL     1       1.254   0.159  -1.079  1.00  0.00     0.007 C 
ENDBRANCH   4   5
BRANCH   4   7
HETATM    7  O   UNL     1       2.514   0.998   1.536  1.00  0.00    -0.394 OA
HETATM    8  H   UNL     1       1.557   0.851   1.414  1.00  0.00     0.210 HD
ENDBRANCH   4   7
ENDBRANCH   3   4
ENDBRANCH   1   3
BRANCH   1   9
HETATM    9  C   UNL     1       4.623   2.627   2.684  1.00  0.00     0.277 C 
BRANCH   9  10
HETATM   10  C   UNL     1       5.067   1.630   3.698  1.00  0.00     0.016 A 
HETATM   11  C   UNL     1       4.925   1.783   5.120  1.00  0.00     0.096 A 
HETATM   12  N   UNL     1       5.475   0.752   5.773  1.00  0.00    -0.174 NA
HETATM   13  N   UNL     1       5.888  -0.082   4.820  1.00  0.00    -0.288 N 
HETATM   14  H   UNL     1       6.309  -0.963   5.103  1.00  0.00     0.188 HD
HETATM   15  C   UNL     1       5.696   0.406   3.559  1.00  0.00     0.120 A 
BRANCH  11  16
HETATM   16  C   UNL     1       4.331   2.892   5.865  1.00  0.00    -0.005 A 
HETATM   17  C   UNL     1       3.050   3.368   5.556  1.00  0.00     0.014 A 
HETATM   18  C   UNL     1       2.506   4.439   6.269  1.00  0.00     0.001 A 
HETATM   19  C   UNL     1       3.231   5.033   7.302  1.00  0.00     0.000 A 
HETATM   20  C   UNL     1       4.497   4.552   7.630  1.00  0.00     0.001 A 
HETATM   21  C   UNL     1       5.044   3.484   6.916  1.00  0.00     0.014 A 
ENDBRANCH  11  16
ENDBRANCH   9  10
ENDBRANCH   1   9
BRANCH   1  22
HETATM   22  C   UNL     1       6.625   2.739   1.191  1.00  0.00     0.273 C 
BRANCH  22  23
HETATM   23  C   UNL     1       7.117   3.096  -0.187  1.00  0.00    -0.033 A 
HETATM   24  C   UNL     1       6.796   4.333  -0.768  1.00  0.00     0.009 A 
HETATM   25  C   UNL     1       7.230   4.641  -2.058  1.00  0.00     0.001 A 
HETATM   26  C   UNL     1       7.992   3.723  -2.778  1.00  0.00     0.000 A 
HETATM   27  C   UNL     1       8.327   2.497  -2.208  1.00  0.00     0.001 A 
HETATM   28  C   UNL     1       7.894   2.184  -0.919  1.00  0.00     0.009 A 
ENDBRANCH  22  23
ENDBRANCH   1  22
TORSDOF 9
