REMARK  6 active torsions:
REMARK  status: ('A' for Active; 'I' for Inactive)
REMARK    1  A    between atoms: C_4  and  C_5 
REMARK    2  A    between atoms: N_8  and  C_9 
REMARK    3  A    between atoms: C_12  and  N_13 
REMARK       I    between atoms: N_13  and  C_14 
REMARK       I    between atoms: C_14  and  N_15 
REMARK    4  A    between atoms: N_15  and  C_16 
REMARK    5  A    between atoms: C_19  and  O_20 
REMARK    6  A    between atoms: O_20  and  C_21 
ROOT
HETATM    1  C   UNL     1       5.753  -1.229  -1.432  1.00  0.00     0.161 C 
HETATM    2  C   UNL     1       7.131  -0.754  -1.866  1.00  0.00     0.179 C 
HETATM    3  C   UNL     1       8.007  -1.999  -1.876  1.00  0.00     0.177 C 
HETATM    4  C   UNL     1       9.163  -1.674  -0.936  1.00  0.00     0.141 C 
HETATM    5  C   UNL     1       9.035  -0.166  -0.716  1.00  0.00     0.196 C 
HETATM    6  O   UNL     1       7.656   0.166  -0.894  1.00  0.00    -0.379 OA
HETATM    7  O   UNL     1       7.193  -3.082  -1.382  1.00  0.00    -0.379 OA
HETATM    8  C   UNL     1       5.832  -2.722  -1.693  1.00  0.00     0.198 C 
ENDROOT
BRANCH   4   9
HETATM    9  N   UNL     1      10.496  -2.070  -1.382  1.00  0.00    -0.334 N 
HETATM   10  C   UNL     1      11.022  -1.627  -2.560  1.00  0.00     0.321 C 
HETATM   11  N   UNL     1      12.367  -1.748  -2.729  1.00  0.00    -0.309 N 
HETATM   12  O   UNL     1      10.358  -1.030  -3.403  1.00  0.00    -0.247 OA
HETATM   13  H   UNL     1      12.695  -1.147  -3.476  1.00  0.00     0.170 HD
HETATM   14  H   UNL     1      11.175  -2.186  -0.644  1.00  0.00     0.164 HD
BRANCH  11  15
HETATM   15  C   UNL     1      13.344  -2.455  -2.011  1.00  0.00     0.036 A 
HETATM   16  C   UNL     1      13.085  -3.622  -1.291  1.00  0.00     0.032 A 
HETATM   17  C   UNL     1      14.116  -4.262  -0.594  1.00  0.00     0.039 A 
HETATM   18  C   UNL     1      15.410  -3.738  -0.606  1.00  0.00     0.076 A 
HETATM   19  C   UNL     1      15.680  -2.594  -1.358  1.00  0.00     0.039 A 
HETATM   20  C   UNL     1      14.653  -1.967  -2.070  1.00  0.00     0.032 A 
BRANCH  18  21
HETATM   21  O   UNL     1      16.356  -4.456   0.095  1.00  0.00    -0.311 OA
BRANCH  21  22
HETATM   22  C   UNL     1      17.446  -3.766   0.564  1.00  0.00     0.076 A 
HETATM   23  C   UNL     1      17.372  -3.099   1.786  1.00  0.00     0.037 A 
HETATM   24  C   UNL     1      18.496  -2.434   2.276  1.00  0.00     0.003 A 
HETATM   25  C   UNL     1      19.687  -2.445   1.546  1.00  0.00     0.000 A 
HETATM   26  C   UNL     1      19.760  -3.132   0.333  1.00  0.00     0.003 A 
HETATM   27  C   UNL     1      18.642  -3.808  -0.154  1.00  0.00     0.037 A 
ENDBRANCH  21  22
ENDBRANCH  18  21
ENDBRANCH  11  15
ENDBRANCH   4   9
BRANCH   1  28
HETATM   28  N   UNL     1       4.686  -0.518  -2.090  1.00  0.00    -0.273 N 
HETATM   29  N   UNL     1       3.645  -1.159  -2.646  1.00  0.00     0.005 NA
HETATM   30  N   UNL     1       2.846  -0.238  -3.171  1.00  0.00    -0.158 NA
HETATM   31  C   UNL     1       3.387   1.000  -2.921  1.00  0.00     0.101 A 
HETATM   32  C   UNL     1       4.547   0.836  -2.199  1.00  0.00     0.142 A 
BRANCH  31  33
HETATM   33  C   UNL     1       2.802   2.255  -3.357  1.00  0.00    -0.005 A 
HETATM   34  C   UNL     1       1.483   2.282  -3.830  1.00  0.00     0.014 A 
HETATM   35  C   UNL     1       0.904   3.478  -4.263  1.00  0.00     0.001 A 
HETATM   36  C   UNL     1       1.639   4.661  -4.233  1.00  0.00     0.000 A 
HETATM   37  C   UNL     1       2.952   4.650  -3.770  1.00  0.00     0.001 A 
HETATM   38  C   UNL     1       3.531   3.455  -3.333  1.00  0.00     0.014 A 
ENDBRANCH  31  33
ENDBRANCH   1  28
TORSDOF 6
