REMARK  6 active torsions:
REMARK  status: ('A' for Active; 'I' for Inactive)
REMARK    1  A    between atoms: C_4  and  C_5 
REMARK    2  A    between atoms: C_6  and  N_7 
REMARK    3  A    between atoms: C_9  and  C_10 
REMARK       I    between atoms: C_10  and  N_11 
REMARK    4  A    between atoms: N_11  and  C_12 
REMARK    5  A    between atoms: C_12  and  C_13 
REMARK    6  A    between atoms: C_13  and  N_14 
ROOT
HETATM    1  C   UNL     1       4.852  -0.809   0.180  1.00  0.00     0.019 A 
HETATM    2  C   UNL     1       3.547  -1.198   0.156  1.00  0.00     0.111 A 
HETATM    3  C   UNL     1       2.508  -0.317   0.854  1.00  0.00     0.273 A 
HETATM    4  O   UNL     1       1.303  -0.571   0.836  1.00  0.00    -0.266 OA
HETATM    5  N   UNL     1       2.948   0.788   1.520  1.00  0.00    -0.321 N 
HETATM    6  C   UNL     1       4.279   1.183   1.576  1.00  0.00     0.046 A 
HETATM    7  C   UNL     1       5.250   0.425   0.913  1.00  0.00     0.006 A 
HETATM    8  C   UNL     1       4.615   2.336   2.291  1.00  0.00     0.032 A 
HETATM    9  C   UNL     1       5.944   2.750   2.350  1.00  0.00     0.026 A 
HETATM   10  C   UNL     1       6.922   2.013   1.688  1.00  0.00     0.035 A 
HETATM   11 CL   UNL     1       8.564   2.523   1.756  1.00  0.00    -0.084 Cl
HETATM   12  C   UNL     1       6.583   0.863   0.972  1.00  0.00     0.038 A 
HETATM   13  H   UNL     1       2.232   1.331   1.984  1.00  0.00     0.169 HD
ENDROOT
BRANCH   2  14
HETATM   14  N   UNL     1       3.085  -2.395  -0.461  1.00  0.00    -0.375 N 
HETATM   15  C   UNL     1       1.818  -2.397  -1.215  1.00  0.00     0.137 C 
HETATM   16  C   UNL     1       1.813  -3.543  -2.232  1.00  0.00     0.096 C 
HETATM   17  C   UNL     1       2.060  -4.885  -1.531  1.00  0.00     0.017 C 
HETATM   18  C   UNL     1       3.327  -4.828  -0.682  1.00  0.00     0.021 C 
HETATM   19  C   UNL     1       3.279  -3.654   0.292  1.00  0.00     0.123 C 
BRANCH  16  20
HETATM   20  C   UNL     1       0.470  -3.531  -2.943  1.00  0.00     0.223 C 
HETATM   21  N   UNL     1       0.367  -2.625  -3.973  1.00  0.00    -0.359 N 
HETATM   22  H   UNL     1       1.157  -1.997  -4.108  1.00  0.00     0.162 HD
HETATM   23  O   UNL     1      -0.479  -4.244  -2.619  1.00  0.00    -0.273 OA
BRANCH  21  24
HETATM   24  C   UNL     1      -0.886  -2.234  -4.614  1.00  0.00     0.150 C 
BRANCH  24  25
HETATM   25  C   UNL     1      -1.741  -3.368  -5.226  1.00  0.00     0.254 C 
BRANCH  25  26
HETATM   26  N   UNL     1      -2.449  -4.204  -4.188  1.00  0.00    -0.066 N 
HETATM   27  H   UNL     1      -1.737  -4.402  -3.452  1.00  0.00     0.280 HD
HETATM   28  C   UNL     1      -3.601  -3.510  -3.481  1.00  0.00     0.261 C 
HETATM   29  C   UNL     1      -4.185  -4.440  -2.412  1.00  0.00     0.195 C 
HETATM   30  O   UNL     1      -4.612  -5.679  -2.990  1.00  0.00    -0.388 OA
HETATM   31  C   UNL     1      -3.513  -6.380  -3.585  1.00  0.00     0.195 C 
HETATM   32  C   UNL     1      -2.888  -5.558  -4.718  1.00  0.00     0.261 C 
ENDBRANCH  25  26
ENDBRANCH  24  25
ENDBRANCH  21  24
ENDBRANCH  16  20
ENDBRANCH   2  14
BRANCH   1  33
HETATM   33  C   UNL     1       5.838  -1.641  -0.564  1.00  0.00    -0.023 A 
HETATM   34  C   UNL     1       5.946  -1.528  -1.957  1.00  0.00     0.012 A 
HETATM   35  C   UNL     1       6.894  -2.280  -2.653  1.00  0.00     0.001 A 
HETATM   36  C   UNL     1       7.739  -3.148  -1.964  1.00  0.00     0.000 A 
HETATM   37  C   UNL     1       7.641  -3.265  -0.578  1.00  0.00     0.001 A 
HETATM   38  C   UNL     1       6.697  -2.511   0.122  1.00  0.00     0.012 A 
ENDBRANCH   1  33
TORSDOF 6
