REMARK  7 active torsions:
REMARK  status: ('A' for Active; 'I' for Inactive)
REMARK    1  A    between atoms: C_2  and  O_3 
REMARK    2  A    between atoms: O_3  and  C_4 
REMARK    3  A    between atoms: C_4  and  C_5 
REMARK    4  A    between atoms: C_8  and  N_9 
REMARK       I    between atoms: N_9  and  C_10 
REMARK    5  A    between atoms: C_10  and  C_11 
REMARK    6  A    between atoms: C_11  and  N_12 
REMARK    7  A    between atoms: C_18  and  C_19 
ROOT
HETATM    1  N   UNL     1       6.621  -2.711  -1.433  1.00  0.00    -0.063 N 
HETATM    2  H   UNL     1       5.701  -3.154  -1.561  1.00  0.00     0.280 HD
HETATM    3  C   UNL     1       7.153  -3.253  -0.114  1.00  0.00     0.240 C 
HETATM    4  C   UNL     1       6.651  -2.494   1.096  1.00  0.00     0.083 C 
HETATM    5  C   UNL     1       6.789  -0.991   0.901  1.00  0.00     0.131 A 
HETATM    6  N   UNL     1       6.288  -0.300   2.113  1.00  0.00    -0.251 NA
HETATM    7  C   UNL     1       7.257   0.470   2.539  1.00  0.00     0.132 A 
HETATM    8  C   UNL     1       8.494   0.344   1.675  1.00  0.00     0.272 A 
HETATM    9  O   UNL     1       9.545   0.926   1.778  1.00  0.00    -0.266 OA
HETATM   10  N   UNL     1       8.146  -0.576   0.740  1.00  0.00    -0.327 N 
HETATM   11  C   UNL     1       5.904  -0.582  -0.269  1.00  0.00     0.083 C 
HETATM   12  C   UNL     1       6.381  -1.216  -1.555  1.00  0.00     0.240 C 
HETATM   13  H   UNL     1       8.812  -0.850   0.017  1.00  0.00     0.165 HD
ENDROOT
BRANCH   1  14
HETATM   14  C   UNL     1       7.513  -3.195  -2.625  1.00  0.00     0.337 C 
BRANCH  14  15
HETATM   15  C   UNL     1       8.932  -2.598  -2.621  1.00  0.00     0.248 C 
HETATM   16  N   UNL     1       9.789  -2.711  -3.665  1.00  0.00    -0.326 N 
HETATM   17  H   UNL     1      10.648  -2.198  -3.473  1.00  0.00     0.169 HD
HETATM   18  O   UNL     1       9.324  -1.940  -1.646  1.00  0.00    -0.271 OA
BRANCH  16  19
HETATM   19  C   UNL     1       9.736  -3.312  -4.933  1.00  0.00     0.034 A 
HETATM   20  C   UNL     1       8.727  -4.150  -5.404  1.00  0.00     0.030 A 
HETATM   21  C   UNL     1       8.783  -4.654  -6.714  1.00  0.00     0.020 A 
HETATM   22  C   UNL     1       9.847  -4.333  -7.566  1.00  0.00     0.039 A 
HETATM   23  C   UNL     1      10.874  -3.520  -7.086  1.00  0.00     0.020 A 
HETATM   24  C   UNL     1      10.816  -3.021  -5.782  1.00  0.00     0.030 A 
BRANCH  22  25
HETATM   25  C   UNL     1       9.841  -4.876  -8.952  1.00  0.00     0.293 C 
HETATM   26  O   UNL     1       9.025  -5.695  -9.341  1.00  0.00    -0.259 OA
BRANCH  25  27
HETATM   27  O   UNL     1      10.831  -4.309  -9.680  1.00  0.00    -0.318 OA
BRANCH  27  28
HETATM   28  C   UNL     1      10.927  -4.723 -11.052  1.00  0.00     0.174 C 
HETATM   29  C   UNL     1      11.853  -5.919 -11.163  1.00  0.00     0.034 C 
ENDBRANCH  27  28
ENDBRANCH  25  27
ENDBRANCH  22  25
ENDBRANCH  16  19
ENDBRANCH  14  15
ENDBRANCH   1  14
BRANCH   7  30
HETATM   30  C   UNL     1       7.146   1.356   3.717  1.00  0.00    -0.001 A 
HETATM   31  C   UNL     1       8.222   2.111   4.194  1.00  0.00     0.037 A 
HETATM   32  C   UNL     1       8.052   2.940   5.306  1.00  0.00     0.035 A 
HETATM   33 CL   UNL     1       9.380   3.869   5.885  1.00  0.00    -0.084 Cl
HETATM   34  C   UNL     1       6.821   3.023   5.951  1.00  0.00     0.024 A 
HETATM   35  C   UNL     1       5.746   2.270   5.484  1.00  0.00     0.003 A 
HETATM   36  C   UNL     1       5.907   1.440   4.372  1.00  0.00     0.014 A 
ENDBRANCH   7  30
TORSDOF 7
