REMARK  4 active torsions:
REMARK  status: ('A' for Active; 'I' for Inactive)
REMARK    1  A    between atoms: C_3  and  N_4 
REMARK    2  A    between atoms: C_11  and  C_12 
REMARK       I    between atoms: C_12  and  N_13 
REMARK    3  A    between atoms: N_13  and  C_14 
REMARK    4  A    between atoms: C_19  and  O_20 
ROOT
HETATM    1  C   UNL     1       7.503  -1.314  -0.802  1.00  0.00     0.036 A 
HETATM    2  C   UNL     1       8.872  -1.344  -0.541  1.00  0.00     0.049 A 
HETATM    3  C   UNL     1       9.683  -0.210  -0.764  1.00  0.00     0.063 A 
HETATM    4  C   UNL     1       9.118   0.984  -1.245  1.00  0.00     0.075 A 
HETATM    5  N   UNL     1       9.789   2.186  -1.537  1.00  0.00    -0.226 NA
HETATM    6  C   UNL     1      10.725   2.615  -0.761  1.00  0.00     0.161 C 
HETATM    7  C   UNL     1      11.269   1.941   0.482  1.00  0.00     0.164 C 
HETATM    8  N   UNL     1      11.837   0.668   0.050  1.00  0.00    -0.336 N 
HETATM    9  C   UNL     1      11.134  -0.384  -0.495  1.00  0.00     0.257 C 
HETATM   10  O   UNL     1      11.661  -1.468  -0.736  1.00  0.00    -0.267 OA
HETATM   11  C   UNL     1      12.440   2.661   1.160  1.00  0.00     0.035 C 
HETATM   12  C   UNL     1      13.344   1.522   1.618  1.00  0.00     0.022 C 
HETATM   13  C   UNL     1      13.211   0.515   0.488  1.00  0.00     0.127 C 
HETATM   14  C   UNL     1       7.745   0.989  -1.525  1.00  0.00     0.035 A 
HETATM   15  C   UNL     1       6.947  -0.140  -1.313  1.00  0.00     0.032 A 
ENDROOT
BRANCH   1  16
HETATM   16  N   UNL     1       6.629  -2.404  -0.602  1.00  0.00    -0.323 N 
HETATM   17  C   UNL     1       6.922  -3.609   0.014  1.00  0.00     0.256 C 
HETATM   18  O   UNL     1       7.994  -3.924   0.517  1.00  0.00    -0.267 OA
HETATM   19  H   UNL     1       5.697  -2.285  -0.972  1.00  0.00     0.169 HD
BRANCH  17  20
HETATM   20  C   UNL     1       5.810  -4.606   0.048  1.00  0.00     0.033 A 
HETATM   21  C   UNL     1       4.466  -4.239   0.094  1.00  0.00     0.019 A 
HETATM   22  C   UNL     1       3.472  -5.225   0.097  1.00  0.00     0.031 A 
HETATM   23  C   UNL     1       3.801  -6.595   0.068  1.00  0.00     0.044 A 
HETATM   24  C   UNL     1       5.159  -6.977   0.103  1.00  0.00    -0.034 A 
HETATM   25  C   UNL     1       5.658  -8.392   0.233  1.00  0.00     0.050 C 
HETATM   26  C   UNL     1       6.145  -5.967   0.069  1.00  0.00     0.026 A 
BRANCH  23  27
HETATM   27  N   UNL     1       2.724  -7.535  -0.006  1.00  0.00    -0.332 N 
HETATM   28  C   UNL     1       1.439  -7.336   0.473  1.00  0.00     0.096 A 
HETATM   29  C   UNL     1       0.671  -8.446   0.198  1.00  0.00     0.019 A 
HETATM   30  C   UNL     1       1.490  -9.354  -0.499  1.00  0.00     0.019 A 
HETATM   31  C   UNL     1       2.731  -8.770  -0.624  1.00  0.00     0.096 A 
ENDBRANCH  23  27
ENDBRANCH  17  20
ENDBRANCH   1  16
BRANCH   6  32
HETATM   32  O   UNL     1      11.258   3.799  -1.088  1.00  0.00    -0.346 OA
HETATM   33  H   UNL     1      10.829   4.086  -1.912  1.00  0.00     0.219 HD
ENDBRANCH   6  32
TORSDOF 4
