REMARK  4 active torsions:
REMARK  status: ('A' for Active; 'I' for Inactive)
REMARK    1  A    between atoms: C_2  and  N_3 
REMARK    2  A    between atoms: C_2  and  C_14 
REMARK    3  A    between atoms: N_3  and  C_6 
REMARK    4  A    between atoms: C_6  and  C_7 
ROOT
HETATM    1  C   UNL     1       1.059  -0.128  -0.035  1.00  0.00     0.048 C 
HETATM    2  C   UNL     1       2.577  -0.118   0.077  1.00  0.00     0.251 C 
ENDROOT
BRANCH   2   3
HETATM    3  N   UNL     1       3.045   1.316   0.048  1.00  0.00    -0.060 N 
HETATM    4  H   UNL     1       2.478   1.896  -0.581  1.00  0.00     0.278 HD
HETATM    5  H   UNL     1       2.898   1.684   1.003  1.00  0.00     0.278 HD
BRANCH   3   6
HETATM    6  C   UNL     1       4.488   1.506  -0.270  1.00  0.00     0.271 C 
BRANCH   6   7
HETATM    7  C   UNL     1       4.843   2.966  -0.275  1.00  0.00    -0.033 A 
HETATM    8  C   UNL     1       5.085   3.642   0.933  1.00  0.00     0.010 A 
HETATM    9  C   UNL     1       5.379   5.009   0.931  1.00  0.00     0.024 A 
HETATM   10  C   UNL     1       5.432   5.707  -0.273  1.00  0.00     0.034 A 
HETATM   11 CL   UNL     1       5.792   7.387  -0.273  1.00  0.00    -0.084 Cl
HETATM   12  C   UNL     1       5.191   5.050  -1.477  1.00  0.00     0.024 A 
HETATM   13  C   UNL     1       4.893   3.684  -1.480  1.00  0.00     0.010 A 
ENDBRANCH   6   7
ENDBRANCH   3   6
ENDBRANCH   2   3
BRANCH   2  14
HETATM   14  C   UNL     1       3.009  -0.782   1.390  1.00  0.00     0.138 A 
HETATM   15  N   UNL     1       3.332  -0.019   2.389  1.00  0.00    -0.232 NA
HETATM   16  C   UNL     1       3.716  -0.650   3.591  1.00  0.00     0.074 A 
HETATM   17  C   UNL     1       3.773  -2.042   3.726  1.00  0.00     0.061 A 
HETATM   18  C   UNL     1       4.057   0.140   4.690  1.00  0.00     0.032 A 
HETATM   19  C   UNL     1       3.399  -2.850   2.555  1.00  0.00     0.259 A 
HETATM   20  C   UNL     1       4.164  -2.646   4.923  1.00  0.00     0.019 A 
HETATM   21  O   UNL     1       3.423  -4.073   2.553  1.00  0.00    -0.267 OA
HETATM   22  N   UNL     1       3.021  -2.146   1.438  1.00  0.00    -0.309 N 
HETATM   23  H   UNL     1       2.761  -2.735   0.657  1.00  0.00     0.170 HD
HETATM   24  C   UNL     1       4.504  -1.844   6.010  1.00  0.00     0.001 A 
HETATM   25  C   UNL     1       4.449  -0.454   5.895  1.00  0.00     0.002 A 
ENDBRANCH   2  14
TORSDOF 4
