REMARK  5 active torsions:
REMARK  status: ('A' for Active; 'I' for Inactive)
REMARK    1  A    between atoms: C_4  and  C_5 
REMARK    2  A    between atoms: C_5  and  N_6 
REMARK       I    between atoms: N_6  and  C_7 
REMARK    3  A    between atoms: C_7  and  C_8 
REMARK    4  A    between atoms: C_11  and  N_12 
REMARK       I    between atoms: N_12  and  C_13 
REMARK       I    between atoms: C_13  and  N_14 
REMARK    5  A    between atoms: N_14  and  C_15 
ROOT
HETATM    1  C   UNL     1       5.506   0.043  -0.749  1.00  0.00     0.032 A 
HETATM    2  C   UNL     1       5.293   1.308  -0.192  1.00  0.00     0.019 A 
HETATM    3  C   UNL     1       6.254   2.316  -0.348  1.00  0.00     0.030 A 
HETATM    4  C   UNL     1       7.436   2.071  -1.052  1.00  0.00     0.036 A 
HETATM    5  C   UNL     1       7.621   0.818  -1.648  1.00  0.00     0.030 A 
HETATM    6  C   UNL     1       6.663  -0.188  -1.501  1.00  0.00     0.019 A 
ENDROOT
BRANCH   4   7
HETATM    7  N   UNL     1       8.473   3.014  -1.206  1.00  0.00    -0.309 N 
HETATM    8  C   UNL     1       8.614   4.215  -0.565  1.00  0.00     0.325 C 
HETATM    9  N   UNL     1       9.707   4.967  -0.909  1.00  0.00    -0.306 N 
HETATM   10  O   UNL     1       7.888   4.639   0.332  1.00  0.00    -0.247 OA
HETATM   11  H   UNL     1       9.870   5.730  -0.263  1.00  0.00     0.171 HD
HETATM   12  H   UNL     1       9.310   2.670  -1.651  1.00  0.00     0.170 HD
BRANCH   9  13
HETATM   13  C   UNL     1      10.536   4.897  -2.010  1.00  0.00     0.072 A 
HETATM   14  C   UNL     1      10.453   4.201  -3.236  1.00  0.00     0.169 A 
HETATM   15  N   UNL     1      11.511   4.419  -4.022  1.00  0.00    -0.185 NA
HETATM   16  N   UNL     1      12.250   5.294  -3.322  1.00  0.00    -0.287 N 
HETATM   17  H   UNL     1      13.119   5.626  -3.729  1.00  0.00     0.188 HD
HETATM   18  C   UNL     1      11.699   5.624  -2.118  1.00  0.00     0.140 A 
ENDBRANCH   9  13
ENDBRANCH   4   7
BRANCH   1  19
HETATM   19  C   UNL     1       4.556  -1.088  -0.564  1.00  0.00     0.251 C 
HETATM   20  N   UNL     1       3.837  -1.100   0.609  1.00  0.00    -0.353 N 
HETATM   21  H   UNL     1       3.951  -0.370   1.297  1.00  0.00     0.163 HD
HETATM   22  O   UNL     1       4.488  -1.977  -1.405  1.00  0.00    -0.268 OA
BRANCH  20  23
HETATM   23  C   UNL     1       2.990  -2.224   0.942  1.00  0.00     0.161 C 
BRANCH  23  24
HETATM   24  C   UNL     1       2.621  -2.248   2.404  1.00  0.00    -0.041 A 
HETATM   25  C   UNL     1       1.293  -2.476   2.794  1.00  0.00     0.009 A 
HETATM   26  C   UNL     1       0.950  -2.539   4.146  1.00  0.00     0.001 A 
HETATM   27  C   UNL     1       1.929  -2.376   5.124  1.00  0.00     0.000 A 
HETATM   28  C   UNL     1       3.254  -2.161   4.752  1.00  0.00     0.001 A 
HETATM   29  C   UNL     1       3.600  -2.108   3.400  1.00  0.00     0.009 A 
ENDBRANCH  23  24
ENDBRANCH  20  23
ENDBRANCH   1  19
TORSDOF 5
