REMARK  7 active torsions:
REMARK  status: ('A' for Active; 'I' for Inactive)
REMARK    1  A    between atoms: C_4  and  C_5 
REMARK    2  A    between atoms: C_5  and  O_6 
REMARK    3  A    between atoms: C_5  and  C_7 
REMARK    4  A    between atoms: C_7  and  N_8 
REMARK       I    between atoms: N_8  and  C_9 
REMARK    5  A    between atoms: N_8  and  C_20 
REMARK    6  A    between atoms: C_9  and  C_10 
REMARK    7  A    between atoms: C_14  and  C_15 
ROOT
HETATM    1  N   UNL     1       4.779  -1.219  -0.763  1.00  0.00    -0.339 N 
HETATM    2  C   UNL     1       5.509  -0.014  -0.899  1.00  0.00     0.274 C 
HETATM    3  O   UNL     1       6.724  -0.037  -1.114  1.00  0.00    -0.266 OA
ENDROOT
BRANCH   1   4
HETATM    4  C   UNL     1       3.304  -1.265  -0.619  1.00  0.00     0.163 C 
BRANCH   4   5
HETATM    5  C   UNL     1       2.794  -1.253   0.840  1.00  0.00     0.169 C 
BRANCH   5   6
HETATM    6  C   UNL     1       1.288  -1.073   0.887  1.00  0.00    -0.028 A 
HETATM    7  C   UNL     1       0.737   0.168   1.241  1.00  0.00     0.010 A 
HETATM    8  C   UNL     1      -0.647   0.352   1.261  1.00  0.00     0.001 A 
HETATM    9  C   UNL     1      -1.497  -0.700   0.926  1.00  0.00     0.000 A 
HETATM   10  C   UNL     1      -0.965  -1.938   0.574  1.00  0.00     0.001 A 
HETATM   11  C   UNL     1       0.418  -2.123   0.553  1.00  0.00     0.010 A 
ENDBRANCH   5   6
BRANCH   5  12
HETATM   12  O   UNL     1       3.096  -2.496   1.485  1.00  0.00    -0.389 OA
HETATM   13  H   UNL     1       3.804  -2.300   2.121  1.00  0.00     0.210 HD
ENDBRANCH   5  12
ENDBRANCH   4   5
ENDBRANCH   1   4
BRANCH   1  14
HETATM   14  C   UNL     1       5.568  -2.475  -0.835  1.00  0.00     0.087 C 
HETATM   15  C   UNL     1       4.801  -3.732  -1.283  1.00  0.00     0.025 C 
HETATM   16  C   UNL     1       5.731  -4.937  -1.419  1.00  0.00     0.002 C 
HETATM   17  C   UNL     1       6.496  -5.203  -0.127  1.00  0.00     0.000 C 
HETATM   18  C   UNL     1       7.253  -3.965   0.342  1.00  0.00     0.002 C 
HETATM   19  C   UNL     1       6.334  -2.751   0.474  1.00  0.00     0.025 C 
ENDBRANCH   1  14
BRANCH   2  20
HETATM   20  C   UNL     1       4.829   1.301  -0.839  1.00  0.00     0.146 A 
HETATM   21  N   UNL     1       3.719   1.574  -0.123  1.00  0.00    -0.169 NA
HETATM   22  N   UNL     1       3.469   2.871  -0.374  1.00  0.00    -0.281 N 
HETATM   23  H   UNL     1       2.652   3.299   0.049  1.00  0.00     0.189 HD
HETATM   24  C   UNL     1       4.381   3.455  -1.197  1.00  0.00     0.034 A 
HETATM   25  C   UNL     1       5.296   2.479  -1.494  1.00  0.00     0.066 A 
BRANCH  24  26
HETATM   26  C   UNL     1       4.404   4.879  -1.702  1.00  0.00     0.037 A 
HETATM   27  C   UNL     1       3.085   5.561  -1.997  1.00  0.00     0.011 A 
HETATM   28  C   UNL     1       3.880   5.984  -0.810  1.00  0.00     0.011 A 
ENDBRANCH  24  26
ENDBRANCH   2  20
TORSDOF 7
