REMARK  6 active torsions:
REMARK  status: ('A' for Active; 'I' for Inactive)
REMARK    1  A    between atoms: C_2  and  O_3 
REMARK    2  A    between atoms: C_2  and  C_4 
REMARK    3  A    between atoms: C_6  and  N_7 
REMARK       I    between atoms: N_7  and  C_8 
REMARK    4  A    between atoms: C_8  and  C_9 
REMARK    5  A    between atoms: C_12  and  C_13 
REMARK    6  A    between atoms: C_18  and  C_19 
ROOT
HETATM    1  C   UNL     1       3.797   2.603  -3.534  1.00  0.00     0.096 A 
HETATM    2  C   UNL     1       2.936   3.558  -3.023  1.00  0.00     0.138 A 
HETATM    3  N   UNL     1       3.442   3.932  -1.809  1.00  0.00    -0.240 N 
HETATM    4  C   UNL     1       2.800   4.867  -0.904  1.00  0.00     0.221 C 
HETATM    5  C   UNL     1       1.777   5.731  -1.666  1.00  0.00     0.068 C 
HETATM    6  C   UNL     1       0.928   4.947  -2.685  1.00  0.00     0.143 C 
HETATM    7  N   UNL     1       1.802   4.115  -3.507  1.00  0.00    -0.363 N 
HETATM    8  N   UNL     1       4.629   3.373  -1.525  1.00  0.00    -0.181 NA
HETATM    9  C   UNL     1       4.827   2.546  -2.558  1.00  0.00     0.160 A 
HETATM   10  H   UNL     1       1.377   3.716  -4.349  1.00  0.00     0.162 HD
ENDROOT
BRANCH   1  11
HETATM   11  C   UNL     1       3.613   1.881  -4.791  1.00  0.00     0.261 C 
HETATM   12  N   UNL     1       4.620   0.976  -5.084  1.00  0.00    -0.323 N 
HETATM   13  H   UNL     1       5.380   0.899  -4.426  1.00  0.00     0.169 HD
HETATM   14  O   UNL     1       2.623   2.085  -5.488  1.00  0.00    -0.267 OA
BRANCH  12  15
HETATM   15  C   UNL     1       4.711   0.116  -6.201  1.00  0.00     0.035 A 
HETATM   16  C   UNL     1       3.766   0.058  -7.229  1.00  0.00     0.039 A 
HETATM   17  C   UNL     1       3.917  -0.833  -8.309  1.00  0.00    -0.028 A 
HETATM   18  C   UNL     1       5.046  -1.660  -8.350  1.00  0.00     0.010 A 
HETATM   19  C   UNL     1       5.995  -1.610  -7.332  1.00  0.00     0.003 A 
HETATM   20  C   UNL     1       5.828  -0.726  -6.264  1.00  0.00     0.029 A 
BRANCH  17  21
HETATM   21  C   UNL     1       2.883  -0.848  -9.414  1.00  0.00     0.147 C 
HETATM   22  C   UNL     1       3.251   0.118 -10.533  1.00  0.00     0.044 C 
BRANCH  21  23
HETATM   23  O   UNL     1       2.762  -2.163  -9.954  1.00  0.00    -0.391 OA
HETATM   24  H   UNL     1       2.021  -2.143 -10.582  1.00  0.00     0.210 HD
ENDBRANCH  21  23
ENDBRANCH  17  21
ENDBRANCH  12  15
ENDBRANCH   1  11
BRANCH   4  25
HETATM   25  C   UNL     1       2.219   4.121   0.277  1.00  0.00     0.409 C 
HETATM   26  F   UNL     1       1.436   3.080  -0.067  1.00  0.00    -0.169 F 
HETATM   27  F   UNL     1       3.186   3.641   1.095  1.00  0.00    -0.169 F 
HETATM   28  F   UNL     1       1.467   4.956   1.039  1.00  0.00    -0.169 F 
ENDBRANCH   4  25
BRANCH   6  29
HETATM   29  C   UNL     1      -0.227   4.226  -2.068  1.00  0.00     0.075 A 
HETATM   30  O   UNL     1      -1.047   4.961  -1.261  1.00  0.00    -0.325 OA
HETATM   31  C   UNL     1      -2.026   4.128  -0.823  1.00  0.00     0.142 A 
HETATM   32  C   UNL     1      -1.856   2.868  -1.345  1.00  0.00     0.027 A 
HETATM   33  C   UNL     1      -0.699   2.931  -2.156  1.00  0.00     0.037 A 
ENDBRANCH   6  29
TORSDOF 6
