REMARK  7 active torsions:
REMARK  status: ('A' for Active; 'I' for Inactive)
REMARK    1  A    between atoms: C_2  and  C_3 
REMARK    2  A    between atoms: C_3  and  C_4 
REMARK    3  A    between atoms: C_3  and  C_12 
REMARK    4  A    between atoms: C_7  and  O_8 
REMARK    5  A    between atoms: C_12  and  C_13 
REMARK       I    between atoms: C_13  and  N_14 
REMARK    6  A    between atoms: N_14  and  C_15 
REMARK    7  A    between atoms: C_22  and  C_23 
REMARK       I    between atoms: C_23  and  N_24 
ROOT
HETATM    1  C   UNL     1       5.537   2.905  -1.504  1.00  0.00     0.222 C 
HETATM    2  N   UNL     1       4.652   3.964  -1.480  1.00  0.00    -0.327 N 
HETATM    3  O   UNL     1       6.596   2.863  -2.125  1.00  0.00    -0.273 OA
HETATM    4  H   UNL     1       3.810   3.847  -0.937  1.00  0.00     0.169 HD
ENDROOT
BRANCH   2   5
HETATM    5  C   UNL     1       4.734   5.175  -2.203  1.00  0.00     0.035 A 
HETATM    6  C   UNL     1       5.829   5.543  -2.996  1.00  0.00     0.046 A 
HETATM    7  C   UNL     1       5.813   6.780  -3.679  1.00  0.00     0.030 A 
HETATM    8  C   UNL     1       4.700   7.601  -3.551  1.00  0.00     0.063 A 
HETATM    9  C   UNL     1       6.700   7.493  -4.541  1.00  0.00     0.156 A 
HETATM   10  N   UNL     1       4.969   8.700  -4.318  1.00  0.00    -0.277 N 
HETATM   11  C   UNL     1       3.591   7.268  -2.772  1.00  0.00     0.034 A 
HETATM   12  H   UNL     1       4.375   9.508  -4.463  1.00  0.00     0.189 HD
HETATM   13  N   UNL     1       6.165   8.674  -4.928  1.00  0.00    -0.168 NA
HETATM   14  C   UNL     1       3.635   6.041  -2.099  1.00  0.00     0.032 A 
BRANCH   9  15
HETATM   15  C   UNL     1       8.035   7.080  -4.996  1.00  0.00     0.270 C 
HETATM   16  N   UNL     1       8.642   7.980  -5.830  1.00  0.00    -0.365 N 
HETATM   17  H   UNL     1       8.150   8.834  -6.063  1.00  0.00     0.159 HD
HETATM   18  H   UNL     1       9.564   7.785  -6.187  1.00  0.00     0.159 HD
HETATM   19  O   UNL     1       8.594   6.038  -4.677  1.00  0.00    -0.266 OA
ENDBRANCH   9  15
ENDBRANCH   2   5
BRANCH   1  20
HETATM   20  C   UNL     1       5.160   1.735  -0.597  1.00  0.00     0.112 C 
BRANCH  20  21
HETATM   21  C   UNL     1       3.690   1.274  -0.640  1.00  0.00     0.027 C 
BRANCH  21  22
HETATM   22  C   UNL     1       3.422   0.064   0.286  1.00  0.00     0.005 C 
HETATM   23  C   UNL     1       4.249  -1.187   0.020  1.00  0.00     0.006 C 
ENDBRANCH  21  22
BRANCH  21  24
HETATM   24  C   UNL     1       3.135   1.054  -2.038  1.00  0.00    -0.053 A 
HETATM   25  C   UNL     1       3.870   0.424  -3.049  1.00  0.00     0.010 A 
HETATM   26  C   UNL     1       3.335   0.281  -4.332  1.00  0.00     0.037 A 
HETATM   27  C   UNL     1       2.066   0.774  -4.636  1.00  0.00     0.068 A 
HETATM   28  C   UNL     1       1.313   1.376  -3.631  1.00  0.00     0.037 A 
HETATM   29  C   UNL     1       1.842   1.511  -2.343  1.00  0.00     0.010 A 
BRANCH  27  30
HETATM   30  O   UNL     1       1.667   0.591  -5.931  1.00  0.00    -0.356 OA
HETATM   31  C   UNL     1       0.592   1.409  -6.378  1.00  0.00     0.210 C 
ENDBRANCH  27  30
ENDBRANCH  21  24
ENDBRANCH  20  21
ENDBRANCH   1  20
TORSDOF 7
