REMARK  8 active torsions:
REMARK  status: ('A' for Active; 'I' for Inactive)
REMARK    1  A    between atoms: C_7  and  C_8 
REMARK       I    between atoms: C_8  and  N_9 
REMARK    2  A    between atoms: N_9  and  N_10 
REMARK    3  A    between atoms: N_10  and  C_11 
REMARK    4  A    between atoms: C_11  and  N_12 
REMARK    5  A    between atoms: N_12  and  C_13 
REMARK    6  A    between atoms: N_15  and  C_16 
REMARK    7  A    between atoms: C_16  and  C_17 
REMARK    8  A    between atoms: C_29  and  C_30 
ROOT
HETATM    1  C   UNL     1       6.197  -1.569  -4.124  1.00  0.00     0.290 C 
HETATM    2  N   UNL     1       7.113  -0.872  -4.887  1.00  0.00    -0.262 N 
HETATM    3  O   UNL     1       5.118  -1.122  -3.745  1.00  0.00    -0.264 OA
HETATM    4  H   UNL     1       7.939  -1.366  -5.226  1.00  0.00     0.190 HD
ENDROOT
BRANCH   2   5
HETATM    5  N   UNL     1       6.822   0.385  -5.413  1.00  0.00    -0.273 N 
HETATM    6  H   UNL     1       6.224   1.011  -4.862  1.00  0.00     0.189 HD
BRANCH   5   7
HETATM    7  C   UNL     1       7.552   0.914  -6.443  1.00  0.00     0.192 C 
HETATM    8  S   UNL     1       8.640   0.047  -7.384  1.00  0.00    -0.039 SA
BRANCH   7   9
HETATM    9  N   UNL     1       7.392   2.241  -6.718  1.00  0.00    -0.315 N 
HETATM   10  H   UNL     1       7.957   2.598  -7.476  1.00  0.00     0.170 HD
BRANCH   9  11
HETATM   11  C   UNL     1       6.620   3.158  -6.038  1.00  0.00     0.151 A 
HETATM   12  N   UNL     1       5.812   2.860  -5.016  1.00  0.00    -0.154 NA
HETATM   13  N   UNL     1       5.286   4.048  -4.649  1.00  0.00    -0.275 N 
HETATM   14  C   UNL     1       5.728   5.089  -5.415  1.00  0.00     0.116 A 
HETATM   15  C   UNL     1       6.593   4.541  -6.331  1.00  0.00     0.071 A 
BRANCH  13  16
HETATM   16  C   UNL     1       4.289   4.113  -3.589  1.00  0.00     0.192 C 
BRANCH  16  17
HETATM   17  C   UNL     1       4.920   4.055  -2.227  1.00  0.00     0.000 A 
HETATM   18  C   UNL     1       5.449   5.209  -1.644  1.00  0.00     0.124 A 
HETATM   19  F   UNL     1       5.384   6.376  -2.302  1.00  0.00    -0.205 F 
HETATM   20  C   UNL     1       6.040   5.180  -0.384  1.00  0.00     0.043 A 
HETATM   21  C   UNL     1       6.110   3.976   0.315  1.00  0.00     0.003 A 
HETATM   22  C   UNL     1       5.596   2.811  -0.255  1.00  0.00     0.001 A 
HETATM   23  C   UNL     1       5.008   2.847  -1.522  1.00  0.00     0.012 A 
ENDBRANCH  16  17
ENDBRANCH  13  16
ENDBRANCH   9  11
ENDBRANCH   7   9
ENDBRANCH   5   7
ENDBRANCH   2   5
BRANCH   1  24
HETATM   24  C   UNL     1       6.668  -2.928  -3.806  1.00  0.00     0.150 A 
HETATM   25  N   UNL     1       7.914  -3.339  -4.137  1.00  0.00    -0.165 NA
HETATM   26  N   UNL     1       7.959  -4.605  -3.695  1.00  0.00    -0.240 N 
HETATM   27  C   UNL     1       6.818  -5.017  -3.065  1.00  0.00     0.123 A 
HETATM   28  C   UNL     1       9.151  -5.419  -3.838  1.00  0.00     0.221 C 
HETATM   29  N   UNL     1       6.726  -6.245  -2.504  1.00  0.00    -0.371 N 
HETATM   30  C   UNL     1       5.950  -3.958  -3.136  1.00  0.00     0.089 A 
HETATM   31  C   UNL     1       7.771  -7.243  -2.723  1.00  0.00     0.081 C 
HETATM   32  H   UNL     1       5.812  -6.606  -2.232  1.00  0.00     0.161 HD
HETATM   33  C   UNL     1       7.741  -8.261  -1.587  1.00  0.00     0.032 C 
HETATM   34  C   UNL     1       9.141  -6.546  -2.788  1.00  0.00     0.061 C 
BRANCH  28  35
HETATM   35  C   UNL     1       9.249  -5.951  -5.251  1.00  0.00     0.409 C 
HETATM   36  F   UNL     1       9.392  -4.972  -6.170  1.00  0.00    -0.169 F 
HETATM   37  F   UNL     1      10.347  -6.746  -5.365  1.00  0.00    -0.169 F 
HETATM   38  F   UNL     1       8.189  -6.705  -5.612  1.00  0.00    -0.169 F 
ENDBRANCH  28  35
ENDBRANCH   1  24
TORSDOF 8
