REMARK  5 active torsions:
REMARK  status: ('A' for Active; 'I' for Inactive)
REMARK    1  A    between atoms: C_2  and  C_3 
REMARK    2  A    between atoms: C_7  and  C_8 
REMARK    3  A    between atoms: C_11  and  C_12 
REMARK       I    between atoms: C_12  and  N_13 
REMARK    4  A    between atoms: N_13  and  C_14 
REMARK    5  A    between atoms: C_17  and  N_18 
REMARK       I    between atoms: N_18  and  C_19 
ROOT
HETATM    1  C   UNL     1       4.117  -3.443  -5.467  1.00  0.00     0.010 A 
HETATM    2  C   UNL     1       3.926  -2.876  -6.736  1.00  0.00     0.016 A 
HETATM    3  C   UNL     1       4.168  -3.623  -7.897  1.00  0.00     0.018 A 
HETATM    4  C   UNL     1       4.610  -4.946  -7.794  1.00  0.00     0.032 A 
HETATM    5  C   UNL     1       4.772  -5.522  -6.526  1.00  0.00     0.018 A 
HETATM    6  C   UNL     1       4.526  -4.778  -5.368  1.00  0.00     0.016 A 
ENDROOT
BRANCH   4   7
HETATM    7  C   UNL     1       4.893  -5.799  -8.986  1.00  0.00     0.256 C 
HETATM    8  N   UNL     1       5.392  -5.133 -10.091  1.00  0.00    -0.323 N 
HETATM    9  H   UNL     1       5.556  -4.141 -10.001  1.00  0.00     0.169 HD
HETATM   10  O   UNL     1       4.708  -7.006  -8.877  1.00  0.00    -0.267 OA
BRANCH   8  11
HETATM   11  C   UNL     1       5.829  -5.711 -11.304  1.00  0.00     0.035 A 
HETATM   12  C   UNL     1       5.765  -7.073 -11.591  1.00  0.00     0.032 A 
HETATM   13  C   UNL     1       6.277  -7.579 -12.796  1.00  0.00     0.032 A 
HETATM   14  C   UNL     1       6.855  -6.731 -13.737  1.00  0.00     0.034 A 
HETATM   15  C   UNL     1       6.891  -5.359 -13.465  1.00  0.00     0.032 A 
HETATM   16  C   UNL     1       6.383  -4.854 -12.261  1.00  0.00     0.032 A 
BRANCH  14  17
HETATM   17  N   UNL     1       7.434  -7.167 -14.946  1.00  0.00    -0.328 N 
HETATM   18  C   UNL     1       7.543  -8.467 -15.405  1.00  0.00     0.218 C 
HETATM   19  C   UNL     1       8.292  -8.555 -16.713  1.00  0.00     0.117 C 
HETATM   20  O   UNL     1       7.092  -9.477 -14.879  1.00  0.00    -0.274 OA
HETATM   21  H   UNL     1       7.832  -6.443 -15.531  1.00  0.00     0.169 HD
ENDBRANCH  14  17
ENDBRANCH   8  11
ENDBRANCH   4   7
BRANCH   1  22
HETATM   22  C   UNL     1       3.833  -2.615  -4.258  1.00  0.00     0.142 A 
HETATM   23  N   UNL     1       3.025  -1.600  -4.335  1.00  0.00    -0.222 NA
HETATM   24  C   UNL     1       2.825  -0.931  -3.169  1.00  0.00     0.116 A 
HETATM   25  C   UNL     1       3.393  -1.208  -1.944  1.00  0.00     0.075 A 
HETATM   26  S   UNL     1       1.774   0.403  -3.086  1.00  0.00    -0.074 SA
HETATM   27  C   UNL     1       2.948  -0.317  -0.902  1.00  0.00    -0.027 A 
HETATM   28  C   UNL     1       4.317  -2.323  -1.887  1.00  0.00     0.260 A 
HETATM   29  C   UNL     1       2.048   0.613  -1.409  1.00  0.00    -0.012 A 
HETATM   30  C   UNL     1       1.340   1.709  -0.681  1.00  0.00     0.057 C 
HETATM   31  N   UNL     1       4.478  -2.978  -3.087  1.00  0.00    -0.307 N 
HETATM   32  O   UNL     1       4.923  -2.680  -0.881  1.00  0.00    -0.267 OA
HETATM   33  H   UNL     1       5.149  -3.729  -3.056  1.00  0.00     0.170 HD
BRANCH  27  34
HETATM   34  C   UNL     1       3.386  -0.391   0.536  1.00  0.00     0.036 C 
HETATM   35  C   UNL     1       2.572  -1.397   1.336  1.00  0.00     0.010 C 
ENDBRANCH  27  34
ENDBRANCH   1  22
TORSDOF 5
