REMARK  6 active torsions:
REMARK  status: ('A' for Active; 'I' for Inactive)
REMARK    1  A    between atoms: C_5  and  N_6 
REMARK       I    between atoms: N_6  and  C_7 
REMARK    2  A    between atoms: C_7  and  C_8 
REMARK    3  A    between atoms: C_8  and  N_9 
REMARK    4  A    between atoms: C_12  and  C_13 
REMARK       I    between atoms: C_13  and  N_14 
REMARK    5  A    between atoms: N_14  and  N_15 
REMARK       I    between atoms: N_15  and  C_16 
REMARK       I    between atoms: C_16  and  N_17 
REMARK    6  A    between atoms: N_17  and  C_18 
ROOT
HETATM    1  N   UNL     1       5.334  -2.408   0.309  1.00  0.00    -0.358 N 
HETATM    2  C   UNL     1       4.504  -3.401  -0.087  1.00  0.00     0.092 A 
HETATM    3  C   UNL     1       3.144  -3.333   0.181  1.00  0.00     0.034 A 
HETATM    4  C   UNL     1       2.630  -2.229   0.862  1.00  0.00     0.036 A 
HETATM    5  C   UNL     1       3.501  -1.227   1.285  1.00  0.00     0.034 A 
HETATM    6  C   UNL     1       4.856  -1.341   0.994  1.00  0.00     0.092 A 
ENDROOT
BRANCH   4   7
HETATM    7  C   UNL     1       1.154  -2.117   0.997  1.00  0.00     0.270 C 
HETATM    8  N   UNL     1       0.674  -1.230   1.935  1.00  0.00    -0.262 N 
HETATM    9  H   UNL     1       1.204  -0.952   2.761  1.00  0.00     0.190 HD
HETATM   10  O   UNL     1       0.428  -2.790   0.271  1.00  0.00    -0.266 OA
BRANCH   8  11
HETATM   11  N   UNL     1      -0.723  -1.157   2.099  1.00  0.00    -0.249 N 
HETATM   12  C   UNL     1      -1.182  -1.110   3.400  1.00  0.00     0.335 C 
HETATM   13  N   UNL     1      -2.551  -1.111   3.452  1.00  0.00    -0.337 N 
HETATM   14  O   UNL     1      -0.428  -1.051   4.364  1.00  0.00    -0.246 OA
HETATM   15  H   UNL     1      -3.006  -0.762   2.619  1.00  0.00     0.164 HD
HETATM   16  H   UNL     1      -1.255  -1.735   1.449  1.00  0.00     0.192 HD
BRANCH  13  17
HETATM   17  C   UNL     1      -3.275  -0.966   4.711  1.00  0.00     0.086 C 
HETATM   18  C   UNL     1      -3.195   0.468   5.257  1.00  0.00     0.025 C 
HETATM   19  C   UNL     1      -4.011   1.457   4.426  1.00  0.00     0.002 C 
HETATM   20  C   UNL     1      -5.461   1.007   4.284  1.00  0.00     0.000 C 
HETATM   21  C   UNL     1      -5.564  -0.409   3.725  1.00  0.00     0.002 C 
HETATM   22  C   UNL     1      -4.736  -1.405   4.539  1.00  0.00     0.025 C 
ENDBRANCH  13  17
ENDBRANCH   8  11
ENDBRANCH   4   7
BRANCH   1  23
HETATM   23  C   UNL     1       6.756  -2.424  -0.127  1.00  0.00     0.230 C 
BRANCH  23  24
HETATM   24  C   UNL     1       6.832  -1.653  -1.438  1.00  0.00     0.240 C 
HETATM   25  N   UNL     1       7.596  -2.263  -2.417  1.00  0.00    -0.326 N 
HETATM   26  H   UNL     1       8.216  -3.024  -2.162  1.00  0.00     0.169 HD
HETATM   27  O   UNL     1       6.204  -0.603  -1.551  1.00  0.00    -0.271 OA
BRANCH  25  28
HETATM   28  C   UNL     1       7.664  -1.891  -3.781  1.00  0.00     0.034 A 
HETATM   29  C   UNL     1       6.858  -0.912  -4.365  1.00  0.00     0.030 A 
HETATM   30  C   UNL     1       6.958  -0.631  -5.733  1.00  0.00     0.009 A 
HETATM   31  C   UNL     1       7.872  -1.317  -6.537  1.00  0.00    -0.062 A 
HETATM   32  C   UNL     1       7.944  -1.040  -8.010  1.00  0.00     0.048 C 
HETATM   33  C   UNL     1       8.671  -2.305  -5.957  1.00  0.00     0.009 A 
HETATM   34  C   UNL     1       8.569  -2.588  -4.591  1.00  0.00     0.030 A 
ENDBRANCH  25  28
ENDBRANCH  23  24
ENDBRANCH   1  23
TORSDOF 6
