REMARK  4 active torsions:
REMARK  status: ('A' for Active; 'I' for Inactive)
REMARK    1  A    between atoms: C_2  and  N_3 
REMARK    2  A    between atoms: C_2  and  C_14 
REMARK    3  A    between atoms: N_3  and  C_6 
REMARK    4  A    between atoms: C_6  and  C_7 
ROOT
HETATM    1  C   UNL     1       3.148  -1.489   0.774  1.00  0.00     0.048 C 
HETATM    2  C   UNL     1       2.549  -0.203   0.223  1.00  0.00     0.251 C 
ENDROOT
BRANCH   2   3
HETATM    3  N   UNL     1       3.087   0.043  -1.167  1.00  0.00    -0.060 N 
HETATM    4  H   UNL     1       2.946   1.050  -1.359  1.00  0.00     0.278 HD
HETATM    5  H   UNL     1       4.114  -0.027  -1.152  1.00  0.00     0.278 HD
BRANCH   3   6
HETATM    6  C   UNL     1       2.518  -0.756  -2.276  1.00  0.00     0.271 C 
BRANCH   6   7
HETATM    7  C   UNL     1       3.076  -0.312  -3.599  1.00  0.00    -0.033 A 
HETATM    8  C   UNL     1       4.338  -0.759  -4.026  1.00  0.00     0.010 A 
HETATM    9  C   UNL     1       4.870  -0.320  -5.242  1.00  0.00     0.024 A 
HETATM   10  C   UNL     1       4.148   0.568  -6.036  1.00  0.00     0.034 A 
HETATM   11 CL   UNL     1       4.804   1.106  -7.530  1.00  0.00    -0.084 Cl
HETATM   12  C   UNL     1       2.898   1.023  -5.623  1.00  0.00     0.024 A 
HETATM   13  C   UNL     1       2.364   0.589  -4.407  1.00  0.00     0.010 A 
ENDBRANCH   6   7
ENDBRANCH   3   6
ENDBRANCH   2   3
BRANCH   2  14
HETATM   14  C   UNL     1       2.907   1.003   1.106  1.00  0.00     0.138 A 
HETATM   15  N   UNL     1       3.605   1.959   0.575  1.00  0.00    -0.232 NA
HETATM   16  C   UNL     1       3.936   3.059   1.394  1.00  0.00     0.074 A 
HETATM   17  C   UNL     1       3.531   3.150   2.730  1.00  0.00     0.061 A 
HETATM   18  C   UNL     1       4.701   4.096   0.858  1.00  0.00     0.032 A 
HETATM   19  C   UNL     1       2.727   2.042   3.269  1.00  0.00     0.259 A 
HETATM   20  C   UNL     1       3.875   4.245   3.527  1.00  0.00     0.019 A 
HETATM   21  O   UNL     1       2.312   2.017   4.419  1.00  0.00    -0.267 OA
HETATM   22  N   UNL     1       2.463   1.015   2.396  1.00  0.00    -0.309 N 
HETATM   23  H   UNL     1       1.908   0.272   2.804  1.00  0.00     0.170 HD
HETATM   24  C   UNL     1       4.641   5.271   2.977  1.00  0.00     0.001 A 
HETATM   25  C   UNL     1       5.053   5.198   1.646  1.00  0.00     0.002 A 
ENDBRANCH   2  14
TORSDOF 4
