REMARK  7 active torsions:
REMARK  status: ('A' for Active; 'I' for Inactive)
REMARK    1  A    between atoms: C_2  and  N_3 
REMARK    2  A    between atoms: C_2  and  C_17 
REMARK       I    between atoms: N_3  and  C_4 
REMARK    3  A    between atoms: C_4  and  C_5 
REMARK    4  A    between atoms: C_7  and  N_8 
REMARK    5  A    between atoms: C_17  and  O_18 
REMARK    6  A    between atoms: C_17  and  C_19 
REMARK    7  A    between atoms: C_22  and  O_23 
ROOT
HETATM    1  N   UNL     1       3.340   1.839  -2.529  1.00  0.00    -0.349 N 
HETATM    2  C   UNL     1       3.214   2.535  -3.710  1.00  0.00     0.270 C 
HETATM    3  O   UNL     1       2.416   3.448  -3.886  1.00  0.00    -0.266 OA
HETATM    4  H   UNL     1       3.940   1.017  -2.546  1.00  0.00     0.163 HD
ENDROOT
BRANCH   1   5
HETATM    5  C   UNL     1       2.445   2.019  -1.384  1.00  0.00     0.114 C 
HETATM    6  C   UNL     1       1.127   1.288  -1.656  1.00  0.00     0.035 C 
BRANCH   5   7
HETATM    7  C   UNL     1       3.162   1.544  -0.091  1.00  0.00     0.173 C 
BRANCH   7   8
HETATM    8  O   UNL     1       3.405   0.131  -0.141  1.00  0.00    -0.389 OA
HETATM    9  H   UNL     1       3.660  -0.138   0.760  1.00  0.00     0.210 HD
ENDBRANCH   7   8
BRANCH   7  10
HETATM   10  C   UNL     1       2.453   1.923   1.195  1.00  0.00    -0.028 A 
HETATM   11  C   UNL     1       2.788   3.116   1.848  1.00  0.00     0.012 A 
HETATM   12  C   UNL     1       2.142   3.483   3.031  1.00  0.00     0.037 A 
HETATM   13  C   UNL     1       1.144   2.676   3.580  1.00  0.00     0.068 A 
HETATM   14  C   UNL     1       0.802   1.488   2.936  1.00  0.00     0.037 A 
HETATM   15  C   UNL     1       1.453   1.114   1.754  1.00  0.00     0.012 A 
BRANCH  13  16
HETATM   16  O   UNL     1       0.592   3.155   4.735  1.00  0.00    -0.356 OA
HETATM   17  C   UNL     1      -0.500   2.423   5.277  1.00  0.00     0.210 C 
ENDBRANCH  13  16
ENDBRANCH   7  10
ENDBRANCH   5   7
ENDBRANCH   1   5
BRANCH   2  18
HETATM   18  C   UNL     1       4.137   2.079  -4.799  1.00  0.00     0.126 A 
HETATM   19  N   UNL     1       5.061   1.139  -4.452  1.00  0.00    -0.224 NA
HETATM   20  C   UNL     1       5.915   0.731  -5.430  1.00  0.00     0.151 A 
HETATM   21  C   UNL     1       5.855   1.215  -6.737  1.00  0.00     0.052 A 
HETATM   22  C   UNL     1       4.890   2.167  -7.059  1.00  0.00     0.006 A 
HETATM   23  C   UNL     1       4.017   2.615  -6.074  1.00  0.00     0.037 A 
BRANCH  20  24
HETATM   24  N   UNL     1       6.923  -0.222  -5.089  1.00  0.00    -0.227 N 
HETATM   25  N   UNL     1       7.829  -0.685  -5.995  1.00  0.00    -0.179 NA
HETATM   26  C   UNL     1       8.596  -1.524  -5.297  1.00  0.00     0.141 A 
HETATM   27  C   UNL     1       8.208  -1.622  -3.952  1.00  0.00     0.040 A 
HETATM   28  C   UNL     1       7.129  -0.779  -3.844  1.00  0.00     0.122 A 
ENDBRANCH  20  24
ENDBRANCH   2  18
TORSDOF 7
