REMARK  2 active torsions:
REMARK  status: ('A' for Active; 'I' for Inactive)
REMARK    1  A    between atoms: C_2  and  N_3 
REMARK    2  A    between atoms: N_3  and  C_4 
ROOT
HETATM    1  N   UNL     1      -3.974   0.759  -0.564  1.00  0.00    -0.340 N 
HETATM    2  H   UNL     1      -4.009   1.767  -0.550  1.00  0.00     0.167 HD
ENDROOT
BRANCH   1   3
HETATM    3  C   UNL     1      -2.696   0.220  -0.342  1.00  0.00     0.036 A 
HETATM    4  C   UNL     1      -2.470  -1.124  -0.022  1.00  0.00     0.032 A 
HETATM    5  C   UNL     1      -1.173  -1.616   0.164  1.00  0.00     0.042 A 
HETATM    6  C   UNL     1      -0.076  -0.780  -0.016  1.00  0.00     0.102 A 
HETATM    7  C   UNL     1      -0.278   0.558  -0.348  1.00  0.00     0.104 A 
HETATM    8  O   UNL     1       1.157  -1.311   0.244  1.00  0.00    -0.348 OA
HETATM    9  C   UNL     1      -1.577   1.055  -0.492  1.00  0.00     0.069 A 
HETATM   10  O   UNL     1       0.742   1.464  -0.462  1.00  0.00    -0.348 OA
HETATM   11  C   UNL     1       1.643   1.126  -1.518  1.00  0.00     0.178 C 
HETATM   12  C   UNL     1       2.661   0.080  -1.090  1.00  0.00     0.053 C 
HETATM   13  C   UNL     1       2.006  -1.280  -0.903  1.00  0.00     0.178 C 
ENDBRANCH   1   3
BRANCH   1  14
HETATM   14  C   UNL     1      -5.208   0.155  -0.846  1.00  0.00     0.143 A 
HETATM   15  N   UNL     1      -5.289  -1.171  -1.115  1.00  0.00    -0.223 NA
HETATM   16  C   UNL     1      -6.474  -1.712  -1.434  1.00  0.00     0.236 A 
HETATM   17  N   UNL     1      -7.652  -1.095  -1.531  1.00  0.00    -0.234 NA
HETATM   18  C   UNL     1      -7.559   0.216  -1.257  1.00  0.00     0.114 A 
HETATM   19  C   UNL     1      -6.400   0.912  -0.908  1.00  0.00     0.053 A 
HETATM   20  S   UNL     1      -8.960   1.214  -1.326  1.00  0.00    -0.073 SA
HETATM   21  C   UNL     1      -6.728   2.282  -0.684  1.00  0.00    -0.028 A 
HETATM   22  C   UNL     1      -8.056   2.545  -0.886  1.00  0.00    -0.008 A 
HETATM   23  C   UNL     1      -6.006   3.516  -0.280  1.00  0.00     0.041 C 
HETATM   24  C   UNL     1      -8.439   3.959  -0.666  1.00  0.00     0.047 C 
HETATM   25  C   UNL     1      -7.173   4.492   0.068  1.00  0.00     0.010 C 
ENDBRANCH   1  14
TORSDOF 2
