REMARK  2 active torsions:
REMARK  status: ('A' for Active; 'I' for Inactive)
REMARK    1  A    between atoms: C_8  and  N_9 
REMARK    2  A    between atoms: N_9  and  C_10 
ROOT
HETATM    1  N   UNL     1       2.088   3.217  -0.201  1.00  0.00    -0.340 N 
HETATM    2  H   UNL     1       1.385   2.596  -0.568  1.00  0.00     0.167 HD
ENDROOT
BRANCH   1   3
HETATM    3  C   UNL     1       3.336   2.600  -0.014  1.00  0.00     0.143 A 
HETATM    4  C   UNL     1       3.485   1.187   0.035  1.00  0.00     0.053 A 
HETATM    5  C   UNL     1       2.549   0.064   0.030  1.00  0.00    -0.032 A 
HETATM    6  C   UNL     1       4.792   0.727   0.125  1.00  0.00     0.114 A 
HETATM    7  C   UNL     1       1.057   0.189   0.018  1.00  0.00     0.050 C 
HETATM    8  C   UNL     1       3.215  -1.156   0.050  1.00  0.00    -0.012 A 
HETATM    9  S   UNL     1       4.907  -0.966   0.135  1.00  0.00    -0.074 SA
HETATM   10  C   UNL     1       2.637  -2.535   0.029  1.00  0.00     0.057 C 
HETATM   11  N   UNL     1       5.909   1.468   0.193  1.00  0.00    -0.234 NA
HETATM   12  C   UNL     1       5.653   2.772   0.169  1.00  0.00     0.236 A 
HETATM   13  N   UNL     1       4.456   3.360   0.070  1.00  0.00    -0.223 NA
ENDBRANCH   1   3
BRANCH   1  14
HETATM   14  C   UNL     1       1.707   4.571  -0.195  1.00  0.00     0.036 A 
HETATM   15  C   UNL     1       0.522   4.942  -0.850  1.00  0.00     0.069 A 
HETATM   16  C   UNL     1       0.119   6.279  -0.915  1.00  0.00     0.104 A 
HETATM   17  C   UNL     1       0.877   7.267  -0.288  1.00  0.00     0.102 A 
HETATM   18  O   UNL     1      -1.078   6.530  -1.529  1.00  0.00    -0.348 OA
HETATM   19  O   UNL     1       0.494   8.577  -0.221  1.00  0.00    -0.348 OA
HETATM   20  C   UNL     1       2.035   6.913   0.398  1.00  0.00     0.042 A 
HETATM   21  C   UNL     1       0.429   9.184  -1.511  1.00  0.00     0.178 C 
HETATM   22  C   UNL     1      -0.877   8.868  -2.224  1.00  0.00     0.053 C 
HETATM   23  C   UNL     1      -0.933   7.408  -2.646  1.00  0.00     0.178 C 
HETATM   24  C   UNL     1       2.454   5.578   0.427  1.00  0.00     0.032 A 
ENDBRANCH   1  14
TORSDOF 2
