REMARK  8 active torsions:
REMARK  status: ('A' for Active; 'I' for Inactive)
REMARK    1  A    between atoms: C_4  and  O_5 
REMARK    2  A    between atoms: O_5  and  C_6 
REMARK    3  A    between atoms: C_8  and  C_9 
REMARK    4  A    between atoms: C_9  and  N_10 
REMARK    5  A    between atoms: C_9  and  C_14 
REMARK       I    between atoms: N_10  and  C_11 
REMARK       I    between atoms: C_11  and  N_12 
REMARK    6  A    between atoms: C_14  and  C_15 
REMARK       I    between atoms: C_15  and  N_16 
REMARK    7  A    between atoms: N_16  and  N_17 
REMARK       I    between atoms: N_17  and  C_18 
REMARK    8  A    between atoms: C_18  and  C_19 
ROOT
HETATM    1  C   UNL     1       6.930  -1.901  -1.100  1.00  0.00     0.127 C 
ENDROOT
BRANCH   1   2
HETATM    2  C   UNL     1       5.690  -1.818  -0.216  1.00  0.00    -0.032 A 
HETATM    3  C   UNL     1       4.830  -2.922  -0.062  1.00  0.00     0.046 A 
HETATM    4  C   UNL     1       3.729  -2.873   0.798  1.00  0.00     0.076 A 
HETATM    5  C   UNL     1       3.486  -1.735   1.563  1.00  0.00     0.037 A 
HETATM    6  C   UNL     1       4.334  -0.638   1.442  1.00  0.00     0.003 A 
HETATM    7  C   UNL     1       5.429  -0.683   0.571  1.00  0.00     0.009 A 
BRANCH   4   8
HETATM    8  O   UNL     1       2.984  -4.025   0.910  1.00  0.00    -0.311 OA
BRANCH   8   9
HETATM    9  C   UNL     1       1.612  -3.912   0.918  1.00  0.00     0.076 A 
HETATM   10  C   UNL     1       0.907  -3.082   0.044  1.00  0.00     0.037 A 
HETATM   11  C   UNL     1      -0.488  -3.055   0.087  1.00  0.00     0.003 A 
HETATM   12  C   UNL     1      -1.176  -3.871   0.987  1.00  0.00     0.000 A 
HETATM   13  C   UNL     1      -0.471  -4.720   1.840  1.00  0.00     0.003 A 
HETATM   14  C   UNL     1       0.923  -4.745   1.801  1.00  0.00     0.037 A 
ENDBRANCH   8   9
ENDBRANCH   4   8
ENDBRANCH   1   2
BRANCH   1  15
HETATM   15  N   UNL     1       6.937  -3.006  -2.069  1.00  0.00    -0.339 N 
HETATM   16  C   UNL     1       6.092  -3.111  -3.121  1.00  0.00     0.292 C 
HETATM   17  N   UNL     1       6.298  -4.230  -3.853  1.00  0.00    -0.254 NA
HETATM   18  O   UNL     1       5.230  -2.303  -3.420  1.00  0.00    -0.254 OA
HETATM   19  H   UNL     1       7.259  -4.499  -4.002  1.00  0.00     0.128 HD
HETATM   20  H   UNL     1       5.734  -4.246  -4.696  1.00  0.00     0.128 HD
HETATM   21  H   UNL     1       7.292  -3.890  -1.735  1.00  0.00     0.164 HD
ENDBRANCH   1  15
BRANCH   1  22
HETATM   22  C   UNL     1       7.530  -0.606  -1.677  1.00  0.00     0.134 C 
BRANCH  22  23
HETATM   23  C   UNL     1       6.623   0.510  -2.159  1.00  0.00     0.238 C 
HETATM   24  N   UNL     1       5.822   0.228  -3.232  1.00  0.00    -0.267 N 
HETATM   25  H   UNL     1       5.556  -0.727  -3.497  1.00  0.00     0.190 HD
HETATM   26  O   UNL     1       6.705   1.642  -1.674  1.00  0.00    -0.272 OA
BRANCH  24  27
HETATM   27  N   UNL     1       5.068   1.252  -3.806  1.00  0.00    -0.262 N 
HETATM   28  C   UNL     1       4.567   1.074  -5.080  1.00  0.00     0.288 C 
HETATM   29  O   UNL     1       4.609   0.015  -5.701  1.00  0.00    -0.264 OA
HETATM   30  H   UNL     1       5.138   2.188  -3.403  1.00  0.00     0.190 HD
BRANCH  28  31
HETATM   31  C   UNL     1       3.961   2.298  -5.682  1.00  0.00     0.125 A 
HETATM   32  N   UNL     1       4.092   3.457  -4.978  1.00  0.00    -0.255 NA
HETATM   33  C   UNL     1       3.555   4.561  -5.539  1.00  0.00     0.117 A 
HETATM   34  C   UNL     1       2.890   4.566  -6.757  1.00  0.00     0.019 A 
HETATM   35  C   UNL     1       2.768   3.366  -7.451  1.00  0.00     0.004 A 
HETATM   36  C   UNL     1       3.314   2.208  -6.910  1.00  0.00     0.037 A 
ENDBRANCH  28  31
ENDBRANCH  24  27
ENDBRANCH  22  23
ENDBRANCH   1  22
TORSDOF 8
