REMARK  6 active torsions:
REMARK  status: ('A' for Active; 'I' for Inactive)
REMARK    1  A    between atoms: C_4  and  C_5 
REMARK    2  A    between atoms: C_6  and  N_7 
REMARK    3  A    between atoms: C_9  and  C_10 
REMARK       I    between atoms: C_10  and  N_11 
REMARK    4  A    between atoms: N_11  and  C_12 
REMARK    5  A    between atoms: C_12  and  C_13 
REMARK    6  A    between atoms: C_13  and  N_14 
ROOT
HETATM    1  C   UNL     1       4.419  -0.569   0.759  1.00  0.00     0.019 A 
HETATM    2  C   UNL     1       3.263  -0.843   0.085  1.00  0.00     0.111 A 
HETATM    3  C   UNL     1       2.325   0.337  -0.227  1.00  0.00     0.273 A 
HETATM    4  O   UNL     1       1.263   0.205  -0.833  1.00  0.00    -0.266 OA
HETATM    5  N   UNL     1       2.691   1.584   0.177  1.00  0.00    -0.321 N 
HETATM    6  C   UNL     1       3.864   1.870   0.858  1.00  0.00     0.046 A 
HETATM    7  C   UNL     1       4.748   0.833   1.160  1.00  0.00     0.006 A 
HETATM    8  C   UNL     1       4.135   3.194   1.216  1.00  0.00     0.032 A 
HETATM    9  C   UNL     1       5.316   3.501   1.888  1.00  0.00     0.026 A 
HETATM   10  C   UNL     1       6.212   2.482   2.195  1.00  0.00     0.035 A 
HETATM   11 CL   UNL     1       7.677   2.853   3.016  1.00  0.00    -0.084 Cl
HETATM   12  C   UNL     1       5.935   1.160   1.838  1.00  0.00     0.038 A 
HETATM   13  H   UNL     1       2.031   2.320  -0.042  1.00  0.00     0.169 HD
ENDROOT
BRANCH   2  14
HETATM   14  N   UNL     1       2.851  -2.152  -0.343  1.00  0.00    -0.375 N 
HETATM   15  C   UNL     1       1.978  -2.295  -1.544  1.00  0.00     0.137 C 
HETATM   16  C   UNL     1       2.037  -3.713  -2.118  1.00  0.00     0.096 C 
HETATM   17  C   UNL     1       1.914  -4.815  -1.058  1.00  0.00     0.017 C 
HETATM   18  C   UNL     1       2.658  -4.516   0.242  1.00  0.00     0.021 C 
HETATM   19  C   UNL     1       2.394  -3.091   0.713  1.00  0.00     0.123 C 
BRANCH  16  20
HETATM   20  C   UNL     1       3.251  -3.895  -3.012  1.00  0.00     0.223 C 
HETATM   21  N   UNL     1       4.472  -3.616  -2.463  1.00  0.00    -0.359 N 
HETATM   22  H   UNL     1       4.450  -3.290  -1.492  1.00  0.00     0.162 HD
HETATM   23  O   UNL     1       3.143  -4.232  -4.193  1.00  0.00    -0.273 OA
BRANCH  21  24
HETATM   24  C   UNL     1       5.777  -3.976  -3.011  1.00  0.00     0.150 C 
BRANCH  24  25
HETATM   25  C   UNL     1       5.916  -4.239  -4.528  1.00  0.00     0.254 C 
BRANCH  25  26
HETATM   26  N   UNL     1       5.209  -3.217  -5.383  1.00  0.00    -0.066 N 
HETATM   27  H   UNL     1       4.218  -3.298  -5.081  1.00  0.00     0.280 HD
HETATM   28  C   UNL     1       5.659  -1.785  -5.195  1.00  0.00     0.261 C 
HETATM   29  C   UNL     1       4.819  -0.857  -6.080  1.00  0.00     0.195 C 
HETATM   30  O   UNL     1       4.891  -1.251  -7.455  1.00  0.00    -0.388 OA
HETATM   31  C   UNL     1       4.382  -2.577  -7.646  1.00  0.00     0.195 C 
HETATM   32  C   UNL     1       5.208  -3.597  -6.854  1.00  0.00     0.261 C 
ENDBRANCH  25  26
ENDBRANCH  24  25
ENDBRANCH  21  24
ENDBRANCH  16  20
ENDBRANCH   2  14
BRANCH   1  33
HETATM   33  C   UNL     1       5.367  -1.680   1.051  1.00  0.00    -0.023 A 
HETATM   34  C   UNL     1       6.336  -2.046   0.110  1.00  0.00     0.012 A 
HETATM   35  C   UNL     1       7.267  -3.044   0.407  1.00  0.00     0.001 A 
HETATM   36  C   UNL     1       7.241  -3.674   1.651  1.00  0.00     0.000 A 
HETATM   37  C   UNL     1       6.298  -3.297   2.604  1.00  0.00     0.001 A 
HETATM   38  C   UNL     1       5.372  -2.295   2.311  1.00  0.00     0.012 A 
ENDBRANCH   1  33
TORSDOF 6
