REMARK  3 active torsions:
REMARK  status: ('A' for Active; 'I' for Inactive)
REMARK    1  A    between atoms: C_9  and  N_10 
REMARK       I    between atoms: N_10  and  C_11 
REMARK    2  A    between atoms: C_11  and  C_12 
REMARK    3  A    between atoms: C_15  and  C_16 
REMARK       I    between atoms: C_16  and  N_17 
ROOT
HETATM    1  N   UNL     1      -3.627  -1.255  -0.151  1.00  0.00    -0.322 N 
HETATM    2  C   UNL     1      -4.917  -0.752  -0.136  1.00  0.00     0.263 C 
HETATM    3  O   UNL     1      -5.203   0.433   0.010  1.00  0.00    -0.267 OA
HETATM    4  H   UNL     1      -3.558  -2.258  -0.276  1.00  0.00     0.169 HD
ENDROOT
BRANCH   1   5
HETATM    5  C   UNL     1      -2.411  -0.555  -0.029  1.00  0.00     0.035 A 
HETATM    6  C   UNL     1      -2.316   0.825   0.136  1.00  0.00     0.030 A 
HETATM    7  C   UNL     1      -1.064   1.443   0.240  1.00  0.00     0.014 A 
HETATM    8  C   UNL     1       0.118   0.692   0.180  1.00  0.00    -0.026 A 
HETATM    9  C   UNL     1       1.380   1.300   0.278  1.00  0.00     0.012 A 
HETATM   10  C   UNL     1       0.034  -0.707   0.015  1.00  0.00    -0.024 A 
HETATM   11  C   UNL     1       2.546   0.537   0.215  1.00  0.00     0.001 A 
HETATM   12  C   UNL     1       2.465  -0.843   0.054  1.00  0.00     0.001 A 
HETATM   13  C   UNL     1       1.218  -1.462  -0.045  1.00  0.00     0.012 A 
HETATM   14  C   UNL     1      -1.232  -1.312  -0.087  1.00  0.00     0.042 A 
ENDBRANCH   1   5
BRANCH   2  15
HETATM   15  C   UNL     1      -5.967  -1.757  -0.317  1.00  0.00     0.073 A 
HETATM   16  S   UNL     1      -5.633  -3.423  -0.514  1.00  0.00    -0.096 SA
HETATM   17  C   UNL     1      -7.289  -3.809  -0.656  1.00  0.00     0.067 A 
HETATM   18  C   UNL     1      -8.119  -2.705  -0.558  1.00  0.00     0.039 A 
HETATM   19  C   UNL     1      -7.331  -1.520  -0.358  1.00  0.00     0.042 A 
BRANCH  18  20
HETATM   20  C   UNL     1      -9.571  -2.830  -0.657  1.00  0.00     0.249 C 
HETATM   21  N   UNL     1     -10.290  -1.678  -0.535  1.00  0.00    -0.366 N 
HETATM   22  H   UNL     1      -9.883  -0.771  -0.375  1.00  0.00     0.159 HD
HETATM   23  H   UNL     1     -11.296  -1.754  -0.599  1.00  0.00     0.159 HD
HETATM   24  O   UNL     1     -10.143  -3.900  -0.841  1.00  0.00    -0.268 OA
ENDBRANCH  18  20
ENDBRANCH   2  15
TORSDOF 3
