REMARK  2 active torsions:
REMARK  status: ('A' for Active; 'I' for Inactive)
REMARK    1  A    between atoms: C_2  and  C_3 
REMARK    2  A    between atoms: C_7  and  C_8 
REMARK       I    between atoms: C_8  and  N_9 
ROOT
HETATM    1  C   UNL     1       3.544  -3.029  -3.467  1.00  0.00     0.271 C 
HETATM    2  N   UNL     1       2.845  -4.191  -3.117  1.00  0.00    -0.347 N 
HETATM    3  C   UNL     1       2.696  -4.639  -1.736  1.00  0.00     0.128 C 
HETATM    4  C   UNL     1       1.377  -5.376  -1.555  1.00  0.00     0.055 C 
HETATM    5  C   UNL     1       1.247  -6.564  -2.531  1.00  0.00     0.100 C 
HETATM    6  N   UNL     1       2.238  -7.612  -2.135  1.00  0.00    -0.273 NA
HETATM    7  C   UNL     1       1.967  -8.894  -2.674  1.00  0.00     0.036 A 
HETATM    8  C   UNL     1       0.664  -9.302  -3.006  1.00  0.00     0.056 A 
HETATM    9  N   UNL     1      -0.397  -8.402  -2.870  1.00  0.00    -0.324 N 
HETATM   10  C   UNL     1      -0.213  -7.097  -2.488  1.00  0.00     0.245 C 
HETATM   11  O   UNL     1      -1.189  -6.392  -2.231  1.00  0.00    -0.271 OA
HETATM   12  C   UNL     1       2.996  -9.839  -2.706  1.00  0.00     0.026 A 
HETATM   13  C   UNL     1       2.743 -11.148  -3.120  1.00  0.00     0.002 A 
HETATM   14  C   UNL     1       1.451 -11.532  -3.477  1.00  0.00     0.002 A 
HETATM   15  C   UNL     1       0.405 -10.611  -3.413  1.00  0.00     0.031 A 
HETATM   16  C   UNL     1       1.530  -6.091  -3.975  1.00  0.00     0.055 C 
HETATM   17  C   UNL     1       2.814  -5.277  -4.092  1.00  0.00     0.128 C 
HETATM   18  O   UNL     1       4.222  -2.976  -4.493  1.00  0.00    -0.266 OA
HETATM   19  H   UNL     1       2.227  -7.734  -1.119  1.00  0.00     0.129 HD
HETATM   20  H   UNL     1      -1.353  -8.720  -2.954  1.00  0.00     0.169 HD
ENDROOT
BRANCH   1  21
HETATM   21  C   UNL     1       3.433  -1.868  -2.617  1.00  0.00     0.119 A 
HETATM   22  N   UNL     1       4.343  -0.847  -2.690  1.00  0.00    -0.273 N 
HETATM   23  N   UNL     1       4.122   0.154  -1.822  1.00  0.00    -0.179 NA
HETATM   24  H   UNL     1       5.144  -0.792  -3.313  1.00  0.00     0.189 HD
HETATM   25  C   UNL     1       2.989  -0.198  -1.205  1.00  0.00     0.060 A 
HETATM   26  C   UNL     1       2.496  -1.429  -1.702  1.00  0.00     0.066 A 
BRANCH  25  27
HETATM   27  C   UNL     1       2.370   0.666  -0.142  1.00  0.00     0.031 C 
HETATM   28  C   UNL     1       1.482   1.751  -0.751  1.00  0.00     0.016 C 
HETATM   29  C   UNL     1       3.410   1.288   0.795  1.00  0.00     0.016 C 
ENDBRANCH  25  27
ENDBRANCH   1  21
TORSDOF 2
