REMARK  1 active torsions:
REMARK  status: ('A' for Active; 'I' for Inactive)
REMARK    1  A    between atoms: C_4  and  C_5 
REMARK       I    between atoms: C_5  and  N_6 
ROOT
HETATM    1  C   UNL     1       5.212  -2.594   0.508  1.00  0.00     0.275 C 
HETATM    2  N   UNL     1       6.389  -2.895  -0.169  1.00  0.00    -0.342 N 
HETATM    3  C   UNL     1       7.073  -4.155   0.163  1.00  0.00     0.167 C 
HETATM    4  C   UNL     1       8.448  -3.842   0.668  1.00  0.00    -0.005 A 
HETATM    5  C   UNL     1       9.034  -2.595   0.549  1.00  0.00     0.020 A 
HETATM    6  N   UNL     1      10.275  -2.640   1.114  1.00  0.00    -0.358 N 
HETATM    7  H   UNL     1      10.920  -1.866   1.191  1.00  0.00     0.166 HD
HETATM    8  C   UNL     1      10.531  -3.919   1.566  1.00  0.00     0.043 A 
HETATM    9  C   UNL     1       9.398  -4.694   1.297  1.00  0.00     0.000 A 
HETATM   10  C   UNL     1      11.670  -4.443   2.189  1.00  0.00     0.030 A 
HETATM   11  C   UNL     1      11.654  -5.797   2.539  1.00  0.00     0.002 A 
HETATM   12  C   UNL     1      10.542  -6.594   2.279  1.00  0.00     0.001 A 
HETATM   13  C   UNL     1       9.407  -6.055   1.662  1.00  0.00     0.014 A 
HETATM   14  C   UNL     1       8.384  -1.405  -0.074  1.00  0.00     0.077 C 
HETATM   15  C   UNL     1       7.191  -1.908  -0.924  1.00  0.00     0.132 C 
HETATM   16  O   UNL     1       4.641  -3.348   1.289  1.00  0.00    -0.266 OA
ENDROOT
BRANCH   1  17
HETATM   17  C   UNL     1       4.530  -1.271   0.203  1.00  0.00     0.156 A 
HETATM   18  N   UNL     1       5.150  -0.181   0.551  1.00  0.00    -0.164 NA
HETATM   19  N   UNL     1       4.565   1.029   0.269  1.00  0.00    -0.238 N 
HETATM   20  C   UNL     1       5.297   2.213   0.674  1.00  0.00     0.183 C 
HETATM   21  C   UNL     1       3.312   1.182  -0.319  1.00  0.00     0.274 A 
HETATM   22  C   UNL     1       2.608  -0.058  -0.693  1.00  0.00     0.046 A 
HETATM   23  O   UNL     1       2.787   2.270  -0.542  1.00  0.00    -0.266 OA
HETATM   24  C   UNL     1       3.210  -1.288  -0.452  1.00  0.00     0.016 A 
HETATM   25  C   UNL     1       1.342   0.002  -1.291  1.00  0.00     0.018 A 
HETATM   26  C   UNL     1       2.550  -2.468  -0.817  1.00  0.00     0.015 A 
HETATM   27  C   UNL     1       1.286  -2.407  -1.411  1.00  0.00     0.001 A 
HETATM   28  C   UNL     1       0.682  -1.174  -1.647  1.00  0.00     0.001 A 
ENDBRANCH   1  17
TORSDOF 1
