REMARK  6 active torsions:
REMARK  status: ('A' for Active; 'I' for Inactive)
REMARK    1  A    between atoms: C_2  and  N_3 
REMARK    2  A    between atoms: C_2  and  C_16 
REMARK    3  A    between atoms: N_3  and  C_6 
REMARK    4  A    between atoms: C_16  and  C_17 
REMARK       I    between atoms: C_17  and  N_18 
REMARK    5  A    between atoms: N_18  and  C_19 
REMARK    6  A    between atoms: C_22  and  O_23 
ROOT
HETATM    1  C   UNL     1       1.705  -4.088  -4.686  1.00  0.00     0.040 C 
HETATM    2  C   UNL     1       1.509  -2.576  -4.612  1.00  0.00     0.191 C 
ENDROOT
BRANCH   2   3
HETATM    3  N   UNL     1       2.630  -1.929  -3.804  1.00  0.00    -0.063 N 
HETATM    4  H   UNL     1       3.513  -2.059  -4.309  1.00  0.00     0.278 HD
HETATM    5  H   UNL     1       2.462  -0.914  -3.806  1.00  0.00     0.278 HD
BRANCH   3   6
HETATM    6  C   UNL     1       2.867  -2.310  -2.342  1.00  0.00     0.221 C 
HETATM    7  C   UNL     1       3.565  -3.641  -2.147  1.00  0.00    -0.011 A 
HETATM    8  C   UNL     1       3.140  -4.577  -1.186  1.00  0.00     0.009 A 
HETATM    9  C   UNL     1       4.716  -3.947  -2.908  1.00  0.00     0.011 A 
HETATM   10  C   UNL     1       3.789  -5.815  -1.079  1.00  0.00     0.019 A 
HETATM   11  S   UNL     1       1.798  -4.287  -0.050  1.00  0.00    -0.129 SA
HETATM   12  C   UNL     1       4.886  -6.120  -1.880  1.00  0.00     0.001 A 
HETATM   13  C   UNL     1       5.360  -5.179  -2.784  1.00  0.00     0.001 A 
HETATM   14  C   UNL     1       1.714  -2.482  -0.104  1.00  0.00     0.082 C 
HETATM   15  C   UNL     1       1.575  -2.058  -1.554  1.00  0.00     0.048 C 
ENDBRANCH   3   6
ENDBRANCH   2   3
BRANCH   2  16
HETATM   16  C   UNL     1       1.530  -1.944  -6.016  1.00  0.00     0.135 C 
BRANCH  16  17
HETATM   17  C   UNL     1       0.292  -2.349  -6.792  1.00  0.00     0.224 C 
HETATM   18  N   UNL     1       0.451  -2.221  -8.157  1.00  0.00    -0.327 N 
HETATM   19  H   UNL     1       1.279  -1.751  -8.502  1.00  0.00     0.169 HD
HETATM   20  O   UNL     1      -0.711  -2.719  -6.193  1.00  0.00    -0.273 OA
BRANCH  18  21
HETATM   21  C   UNL     1      -0.440  -2.668  -9.157  1.00  0.00     0.034 A 
HETATM   22  C   UNL     1      -1.591  -3.411  -8.900  1.00  0.00     0.032 A 
HETATM   23  C   UNL     1      -2.399  -3.847  -9.956  1.00  0.00     0.039 A 
HETATM   24  C   UNL     1      -2.078  -3.543 -11.279  1.00  0.00     0.068 A 
HETATM   25  C   UNL     1      -0.928  -2.803 -11.542  1.00  0.00     0.039 A 
HETATM   26  C   UNL     1      -0.114  -2.371 -10.487  1.00  0.00     0.032 A 
BRANCH  24  27
HETATM   27  O   UNL     1      -2.952  -4.032 -12.208  1.00  0.00    -0.356 OA
HETATM   28  C   UNL     1      -2.752  -3.632 -13.558  1.00  0.00     0.210 C 
ENDBRANCH  24  27
ENDBRANCH  18  21
ENDBRANCH  16  17
ENDBRANCH   2  16
TORSDOF 6
