REMARK  4 active torsions:
REMARK  status: ('A' for Active; 'I' for Inactive)
REMARK       I    between atoms: C_2  and  N_3 
REMARK    1  A    between atoms: C_2  and  C_21 
REMARK    2  A    between atoms: N_3  and  C_4 
REMARK    3  A    between atoms: C_7  and  C_10 
REMARK    4  A    between atoms: C_24  and  N_27 
ROOT
HETATM    1  C   UNL     1       2.082   1.315  -1.802  1.00  0.00     0.035 A 
HETATM    2  C   UNL     1       0.831   1.022  -2.351  1.00  0.00     0.030 A 
HETATM    3  C   UNL     1       0.342   1.756  -3.438  1.00  0.00     0.016 A 
HETATM    4  C   UNL     1       1.113   2.778  -3.994  1.00  0.00    -0.005 A 
HETATM    5  C   UNL     1       2.358   3.092  -3.445  1.00  0.00     0.016 A 
HETATM    6  C   UNL     1       2.841   2.355  -2.359  1.00  0.00     0.030 A 
ENDROOT
BRANCH   1   7
HETATM    7  N   UNL     1       2.640   0.631  -0.701  1.00  0.00    -0.323 N 
HETATM    8  C   UNL     1       2.056  -0.374   0.050  1.00  0.00     0.256 C 
HETATM    9  O   UNL     1       0.925  -0.826  -0.080  1.00  0.00    -0.267 OA
HETATM   10  H   UNL     1       3.539   0.971  -0.384  1.00  0.00     0.169 HD
BRANCH   8  11
HETATM   11  C   UNL     1       2.908  -0.909   1.150  1.00  0.00     0.032 A 
HETATM   12  C   UNL     1       4.288  -1.060   1.013  1.00  0.00     0.019 A 
HETATM   13  C   UNL     1       5.046  -1.553   2.084  1.00  0.00     0.030 A 
HETATM   14  C   UNL     1       4.465  -1.927   3.309  1.00  0.00     0.030 A 
HETATM   15  C   UNL     1       3.074  -1.769   3.412  1.00  0.00     0.030 A 
HETATM   16  C   UNL     1       2.301  -1.281   2.349  1.00  0.00     0.019 A 
BRANCH  14  17
HETATM   17  N   UNL     1       5.261  -2.379   4.359  1.00  0.00    -0.381 N 
HETATM   18  C   UNL     1       4.759  -2.408   5.741  1.00  0.00     0.123 C 
HETATM   19  C   UNL     1       4.192  -3.785   6.085  1.00  0.00     0.020 C 
HETATM   20  C   UNL     1       5.212  -4.888   5.805  1.00  0.00     0.003 C 
HETATM   21  C   UNL     1       5.743  -4.793   4.376  1.00  0.00     0.020 C 
HETATM   22  C   UNL     1       6.290  -3.395   4.079  1.00  0.00     0.123 C 
ENDBRANCH  14  17
ENDBRANCH   8  11
ENDBRANCH   1   7
BRANCH   4  23
HETATM   23  C   UNL     1       0.557   3.576  -5.115  1.00  0.00     0.098 A 
HETATM   24  N   UNL     1      -0.563   4.197  -4.888  1.00  0.00    -0.170 NA
HETATM   25  N   UNL     1      -1.081   4.983  -5.868  1.00  0.00    -0.242 N 
HETATM   26  C   UNL     1      -0.508   5.235  -7.089  1.00  0.00     0.272 A 
HETATM   27  H   UNL     1      -1.943   5.471  -5.648  1.00  0.00     0.192 HD
HETATM   28  O   UNL     1      -1.004   6.006  -7.904  1.00  0.00    -0.266 OA
HETATM   29  C   UNL     1       0.739   4.509  -7.381  1.00  0.00     0.046 A 
HETATM   30  C   UNL     1       1.360   4.654  -8.628  1.00  0.00     0.018 A 
HETATM   31  C   UNL     1       1.270   3.655  -6.416  1.00  0.00     0.011 A 
HETATM   32  C   UNL     1       2.512   3.925  -8.917  1.00  0.00     0.001 A 
HETATM   33  C   UNL     1       3.032   3.045  -7.968  1.00  0.00     0.001 A 
HETATM   34  C   UNL     1       2.411   2.902  -6.723  1.00  0.00     0.015 A 
ENDBRANCH   4  23
TORSDOF 4
