REMARK  14 active torsions:
REMARK  status: ('A' for Active; 'I' for Inactive)
REMARK    1  A    between atoms: C_2  and  O_3 
REMARK    2  A    between atoms: O_3  and  C_4 
REMARK    3  A    between atoms: C_5  and  O_6 
REMARK    4  A    between atoms: C_9  and  C_10 
REMARK    5  A    between atoms: N_11  and  C_12 
REMARK    6  A    between atoms: C_12  and  C_13 
REMARK    7  A    between atoms: C_13  and  C_14 
REMARK    8  A    between atoms: C_14  and  N_15 
REMARK    9  A    between atoms: C_24  and  O_25 
REMARK   10  A    between atoms: C_26  and  C_27 
REMARK   11  A    between atoms: C_27  and  C_28 
REMARK   12  A    between atoms: C_32  and  O_33 
REMARK   13  A    between atoms: O_33  and  C_34 
REMARK   14  A    between atoms: C_34  and  C_35 
ROOT
HETATM    1  C   UNL     1       7.302  -1.363  -2.250  1.00  0.00     0.161 C 
HETATM    2  N   UNL     1       6.783  -2.709  -2.018  1.00  0.00    -0.333 N 
HETATM    3  C   UNL     1       7.363  -3.278  -0.902  1.00  0.00     0.278 C 
HETATM    4  O   UNL     1       7.146  -4.375  -0.416  1.00  0.00    -0.265 OA
HETATM    5  C   UNL     1       8.365  -2.324  -0.380  1.00  0.00     0.146 C 
HETATM    6  C   UNL     1       8.377  -1.277  -1.211  1.00  0.00     0.059 C 
ENDROOT
BRANCH   6   7
HETATM    7  C   UNL     1       9.314  -0.135  -1.254  1.00  0.00     0.193 C 
HETATM    8  O   UNL     1       8.924   0.945  -1.689  1.00  0.00    -0.287 OA
BRANCH   7   9
HETATM    9  C   UNL     1      10.747  -0.305  -0.892  1.00  0.00     0.015 A 
HETATM   10  C   UNL     1      11.456   0.815  -0.438  1.00  0.00     0.025 A 
HETATM   11  C   UNL     1      12.828   0.727  -0.144  1.00  0.00    -0.028 A 
HETATM   12  C   UNL     1      13.571   1.947   0.329  1.00  0.00     0.051 C 
HETATM   13  C   UNL     1      13.495  -0.501  -0.302  1.00  0.00     0.074 A 
HETATM   14  C   UNL     1      12.792  -1.608  -0.782  1.00  0.00     0.038 A 
HETATM   15  C   UNL     1      11.430  -1.508  -1.089  1.00  0.00     0.018 A 
BRANCH  13  16
HETATM   16  O   UNL     1      14.829  -0.502   0.011  1.00  0.00    -0.350 OA
BRANCH  16  17
HETATM   17  C   UNL     1      15.493  -1.766   0.064  1.00  0.00     0.179 C 
BRANCH  17  18
HETATM   18  C   UNL     1      16.934  -1.559   0.550  1.00  0.00     0.002 C 
HETATM   19  C   UNL     1      16.970  -0.949   1.953  1.00  0.00     0.011 C 
HETATM   20  C   UNL     1      17.697  -2.882   0.526  1.00  0.00     0.011 C 
ENDBRANCH  17  18
ENDBRANCH  16  17
ENDBRANCH  13  16
ENDBRANCH   7   9
ENDBRANCH   6   7
BRANCH   1  21
HETATM   21  C   UNL     1       6.156  -0.370  -2.117  1.00  0.00    -0.028 A 
HETATM   22  C   UNL     1       5.421  -0.250  -0.920  1.00  0.00     0.012 A 
HETATM   23  C   UNL     1       4.320   0.600  -0.843  1.00  0.00     0.040 A 
HETATM   24  C   UNL     1       3.956   1.339  -1.958  1.00  0.00     0.099 A 
HETATM   25  C   UNL     1       4.680   1.271  -3.152  1.00  0.00     0.102 A 
HETATM   26  C   UNL     1       5.777   0.410  -3.228  1.00  0.00     0.049 A 
BRANCH  24  27
HETATM   27  O   UNL     1       2.860   2.151  -1.860  1.00  0.00    -0.358 OA
HETATM   28  H   UNL     1       2.832   2.650  -2.700  1.00  0.00     0.218 HD
ENDBRANCH  24  27
BRANCH  25  29
HETATM   29  O   UNL     1       4.203   2.062  -4.163  1.00  0.00    -0.349 OA
BRANCH  29  30
HETATM   30  C   UNL     1       5.054   2.246  -5.294  1.00  0.00     0.171 C 
HETATM   31  C   UNL     1       4.412   3.284  -6.197  1.00  0.00     0.034 C 
ENDBRANCH  29  30
ENDBRANCH  25  29
ENDBRANCH   1  21
BRANCH   5  32
HETATM   32  O   UNL     1       9.164  -2.584   0.691  1.00  0.00    -0.355 OA
HETATM   33  H   UNL     1       8.907  -3.465   1.030  1.00  0.00     0.218 HD
ENDBRANCH   5  32
BRANCH   2  34
HETATM   34  C   UNL     1       6.148  -3.453  -3.095  1.00  0.00     0.129 C 
BRANCH  34  35
HETATM   35  C   UNL     1       5.127  -4.497  -2.647  1.00  0.00     0.048 C 
BRANCH  35  36
HETATM   36  C   UNL     1       3.987  -3.876  -1.849  1.00  0.00     0.236 C 
BRANCH  36  37
HETATM   37  N   UNL     1       3.027  -4.959  -1.401  1.00  0.00    -0.067 N 
HETATM   38  H   UNL     1       2.946  -5.652  -2.155  1.00  0.00     0.280 HD
HETATM   39  C   UNL     1       3.516  -5.694  -0.148  1.00  0.00     0.261 C 
HETATM   40  C   UNL     1       2.496  -6.771   0.240  1.00  0.00     0.195 C 
HETATM   41  O   UNL     1       1.200  -6.201   0.454  1.00  0.00    -0.388 OA
HETATM   42  C   UNL     1       0.700  -5.553  -0.720  1.00  0.00     0.195 C 
HETATM   43  C   UNL     1       1.624  -4.409  -1.152  1.00  0.00     0.261 C 
ENDBRANCH  36  37
ENDBRANCH  35  36
ENDBRANCH  34  35
ENDBRANCH   2  34
TORSDOF 14
