REMARK  2 active torsions:
REMARK  status: ('A' for Active; 'I' for Inactive)
REMARK    1  A    between atoms: C_4  and  C_5 
REMARK       I    between atoms: N_12  and  C_13 
REMARK    2  A    between atoms: C_13  and  C_14 
ROOT
HETATM    1  C   UNL     1       2.793   0.109  -0.458  1.00  0.00     0.097 A 
HETATM    2  N   UNL     1       3.492   1.207  -0.810  1.00  0.00    -0.173 NA
HETATM    3  N   UNL     1       4.757   0.789  -0.961  1.00  0.00    -0.281 N 
HETATM    4  H   UNL     1       5.457   1.470  -1.237  1.00  0.00     0.189 HD
HETATM    5  C   UNL     1       4.903  -0.536  -0.724  1.00  0.00     0.039 A 
HETATM    6  C   UNL     1       3.661  -1.023  -0.390  1.00  0.00     0.015 A 
HETATM    7  C   UNL     1       3.408  -2.450  -0.063  1.00  0.00     0.168 C 
HETATM    8  N   UNL     1       4.613  -3.288  -0.266  1.00  0.00    -0.347 N 
HETATM    9  C   UNL     1       4.389  -4.655  -0.093  1.00  0.00     0.226 C 
HETATM   10  O   UNL     1       3.248  -5.099   0.062  1.00  0.00    -0.273 OA
HETATM   11  C   UNL     1       5.937  -2.651  -0.049  1.00  0.00     0.132 C 
HETATM   12  C   UNL     1       6.135  -1.338  -0.834  1.00  0.00     0.079 C 
ENDROOT
BRANCH   9  13
HETATM   13  C   UNL     1       5.581  -5.597  -0.129  1.00  0.00     0.106 C 
HETATM   14  C   UNL     1       6.065  -5.797  -1.559  1.00  0.00     0.190 C 
HETATM   15  O   UNL     1       7.291  -6.539  -1.602  1.00  0.00    -0.350 OA
HETATM   16  C   UNL     1       7.298  -7.674  -0.833  1.00  0.00     0.075 A 
HETATM   17  C   UNL     1       6.351  -7.938   0.165  1.00  0.00    -0.024 A 
HETATM   18  C   UNL     1       8.345  -8.566  -1.062  1.00  0.00     0.037 A 
HETATM   19  C   UNL     1       5.224  -6.978   0.424  1.00  0.00     0.057 C 
HETATM   20  C   UNL     1       6.446  -9.125   0.903  1.00  0.00     0.010 A 
HETATM   21  C   UNL     1       7.490 -10.021   0.666  1.00  0.00     0.001 A 
HETATM   22  C   UNL     1       8.440  -9.740  -0.314  1.00  0.00     0.003 A 
ENDBRANCH   9  13
BRANCH   1  23
HETATM   23  C   UNL     1       1.343   0.193  -0.233  1.00  0.00    -0.005 A 
HETATM   24  C   UNL     1       0.589   1.166  -0.910  1.00  0.00     0.014 A 
HETATM   25  C   UNL     1      -0.794   1.261  -0.728  1.00  0.00     0.001 A 
HETATM   26  C   UNL     1      -1.444   0.385   0.136  1.00  0.00     0.000 A 
HETATM   27  C   UNL     1      -0.710  -0.578   0.825  1.00  0.00     0.001 A 
HETATM   28  C   UNL     1       0.675  -0.669   0.647  1.00  0.00     0.014 A 
ENDBRANCH   1  23
TORSDOF 2
