REMARK  3 active torsions:
REMARK  status: ('A' for Active; 'I' for Inactive)
REMARK    1  A    between atoms: C_4  and  N_5 
REMARK       I    between atoms: N_5  and  C_6 
REMARK    2  A    between atoms: C_6  and  C_7 
REMARK    3  A    between atoms: C_7  and  N_8 
ROOT
HETATM    1  N   UNL     1       6.498   4.951  -1.036  1.00  0.00    -0.224 N 
HETATM    2  N   UNL     1       6.415   5.910  -0.008  1.00  0.00    -0.180 NA
HETATM    3  C   UNL     1       5.502   6.838  -0.074  1.00  0.00     0.153 A 
HETATM    4  C   UNL     1       4.595   6.908  -1.185  1.00  0.00     0.028 A 
HETATM    5  C   UNL     1       4.706   5.977  -2.187  1.00  0.00     0.116 A 
HETATM    6  N   UNL     1       3.750   6.236  -3.125  1.00  0.00    -0.350 N 
HETATM    7  H   UNL     1       3.605   5.693  -3.966  1.00  0.00     0.166 HD
HETATM    8  C   UNL     1       3.012   7.336  -2.740  1.00  0.00     0.044 A 
HETATM    9  C   UNL     1       3.524   7.777  -1.514  1.00  0.00     0.005 A 
HETATM   10  C   UNL     1       1.939   7.966  -3.378  1.00  0.00     0.031 A 
HETATM   11  C   UNL     1       1.366   9.074  -2.744  1.00  0.00     0.009 A 
HETATM   12  C   UNL     1       1.837   9.536  -1.511  1.00  0.00    -0.061 A 
HETATM   13  C   UNL     1       1.216  10.737  -0.859  1.00  0.00     0.048 C 
HETATM   14  C   UNL     1       2.928   8.896  -0.896  1.00  0.00     0.021 A 
HETATM   15  C   UNL     1       5.676   4.924  -2.177  1.00  0.00     0.291 A 
HETATM   16  O   UNL     1       5.775   4.100  -3.082  1.00  0.00    -0.264 OA
ENDROOT
BRANCH   1  17
HETATM   17  C   UNL     1       7.455   3.871  -0.850  1.00  0.00     0.258 C 
BRANCH  17  18
HETATM   18  C   UNL     1       6.772   2.610  -0.290  1.00  0.00     0.244 C 
HETATM   19  N   UNL     1       7.569   1.443  -0.224  1.00  0.00    -0.321 N 
HETATM   20  C   UNL     1       9.025   1.499  -0.383  1.00  0.00     0.159 C 
HETATM   21  O   UNL     1       5.602   2.665   0.100  1.00  0.00    -0.271 OA
BRANCH  19  22
HETATM   22  C   UNL     1       7.001   0.156   0.124  1.00  0.00     0.037 A 
HETATM   23  C   UNL     1       5.635  -0.125  -0.050  1.00  0.00     0.036 A 
HETATM   24  C   UNL     1       5.082  -1.375   0.279  1.00  0.00    -0.060 A 
HETATM   25  C   UNL     1       3.617  -1.639   0.086  1.00  0.00     0.048 C 
HETATM   26  C   UNL     1       5.913  -2.380   0.775  1.00  0.00     0.007 A 
HETATM   27  C   UNL     1       7.271  -2.137   0.940  1.00  0.00     0.003 A 
HETATM   28  C   UNL     1       7.808  -0.885   0.616  1.00  0.00     0.030 A 
ENDBRANCH  19  22
ENDBRANCH  17  18
ENDBRANCH   1  17
TORSDOF 3
