REMARK  8 active torsions:
REMARK  status: ('A' for Active; 'I' for Inactive)
REMARK    1  A    between atoms: O_2  and  C_3 
REMARK    2  A    between atoms: C_4  and  N_5 
REMARK    3  A    between atoms: N_5  and  C_6 
REMARK    4  A    between atoms: C_6  and  C_7 
REMARK       I    between atoms: C_7  and  N_8 
REMARK    5  A    between atoms: N_8  and  N_9 
REMARK    6  A    between atoms: N_9  and  C_10 
REMARK    7  A    between atoms: C_10  and  C_11 
REMARK       I    between atoms: C_11  and  N_12 
REMARK    8  A    between atoms: N_12  and  C_13 
ROOT
HETATM    1  C   UNL     1       5.039   3.407  -2.183  1.00  0.00     0.245 C 
HETATM    2  N   UNL     1       3.757   3.885  -1.921  1.00  0.00    -0.290 N 
HETATM    3  O   UNL     1       6.030   4.123  -2.335  1.00  0.00    -0.271 OA
HETATM    4  H   UNL     1       2.969   3.250  -2.045  1.00  0.00     0.183 HD
ENDROOT
BRANCH   2   5
HETATM    5  N   UNL     1       3.529   5.279  -1.815  1.00  0.00    -0.229 NA
HETATM    6  H   UNL     1       2.720   5.437  -1.206  1.00  0.00     0.147 HD
BRANCH   5   7
HETATM    7  C   UNL     1       3.253   5.868  -3.141  1.00  0.00     0.213 C 
BRANCH   7   8
HETATM    8  C   UNL     1       2.981   7.367  -2.997  1.00  0.00     0.236 C 
HETATM    9  N   UNL     1       3.939   8.015  -2.233  1.00  0.00    -0.326 N 
HETATM   10  H   UNL     1       4.652   7.403  -1.838  1.00  0.00     0.169 HD
HETATM   11  O   UNL     1       2.013   7.886  -3.549  1.00  0.00    -0.272 OA
BRANCH   9  12
HETATM   12  C   UNL     1       4.007   9.387  -1.918  1.00  0.00     0.036 A 
HETATM   13  C   UNL     1       3.085  10.337  -2.370  1.00  0.00     0.056 A 
HETATM   14  C   UNL     1       3.222  11.681  -2.007  1.00  0.00     0.074 A 
HETATM   15 CL   UNL     1       2.073  12.834  -2.572  1.00  0.00    -0.081 Cl
HETATM   16  C   UNL     1       4.278  12.079  -1.194  1.00  0.00     0.138 A 
HETATM   17  F   UNL     1       4.424  13.363  -0.834  1.00  0.00    -0.204 F 
HETATM   18  C   UNL     1       5.203  11.148  -0.738  1.00  0.00     0.046 A 
HETATM   19  C   UNL     1       5.068   9.804  -1.100  1.00  0.00     0.032 A 
ENDBRANCH   9  12
ENDBRANCH   7   8
ENDBRANCH   5   7
ENDBRANCH   2   5
BRANCH   1  20
HETATM   20  C   UNL     1       5.105   1.883  -2.348  1.00  0.00     0.196 C 
BRANCH  20  21
HETATM   21  N   UNL     1       5.117   1.552  -3.785  1.00  0.00    -0.282 NA
HETATM   22  H   UNL     1       5.750   2.198  -4.261  1.00  0.00     0.128 HD
BRANCH  21  23
HETATM   23  C   UNL     1       5.589   0.225  -3.992  1.00  0.00     0.042 A 
HETATM   24  C   UNL     1       4.727  -0.892  -3.947  1.00  0.00     0.089 A 
HETATM   25  C   UNL     1       5.261  -2.180  -4.085  1.00  0.00     0.038 A 
HETATM   26  C   UNL     1       6.635  -2.365  -4.257  1.00  0.00     0.003 A 
HETATM   27  C   UNL     1       7.489  -1.268  -4.284  1.00  0.00     0.002 A 
HETATM   28  C   UNL     1       6.970   0.018  -4.147  1.00  0.00     0.026 A 
BRANCH  24  29
HETATM   29  O   UNL     1       3.389  -0.637  -3.754  1.00  0.00    -0.354 OA
HETATM   30  C   UNL     1       2.492  -1.657  -4.182  1.00  0.00     0.210 C 
ENDBRANCH  24  29
ENDBRANCH  21  23
ENDBRANCH  20  21
ENDBRANCH   1  20
TORSDOF 8
