REMARK  2 active torsions:
REMARK  status: ('A' for Active; 'I' for Inactive)
REMARK    1  A    between atoms: C_3  and  S_4 
REMARK    2  A    between atoms: C_9  and  N_10 
ROOT
HETATM    1  C   UNL     1       1.038  -0.101   0.344  1.00  0.00     0.050 C 
HETATM    2  C   UNL     1       2.503  -0.134   0.010  1.00  0.00    -0.039 A 
HETATM    3  C   UNL     1       3.319   0.999  -0.138  1.00  0.00     0.067 A 
HETATM    4  C   UNL     1       4.692   0.862  -0.432  1.00  0.00     0.055 A 
HETATM    5  C   UNL     1       5.290  -0.392  -0.622  1.00  0.00     0.053 A 
HETATM    6  C   UNL     1       4.449  -1.521  -0.523  1.00  0.00     0.061 A 
HETATM    7 CL   UNL     1       5.047  -3.119  -0.834  1.00  0.00    -0.082 Cl
HETATM    8  C   UNL     1       3.089  -1.392  -0.212  1.00  0.00     0.034 A 
ENDROOT
BRANCH   5   9
HETATM    9  N   UNL     1       6.667  -0.524  -0.893  1.00  0.00    -0.376 N 
HETATM   10  C   UNL     1       7.323   0.546  -1.670  1.00  0.00     0.150 C 
HETATM   11  C   UNL     1       8.702   0.054  -2.160  1.00  0.00     0.252 C 
HETATM   12  N   UNL     1       9.532  -0.434  -0.993  1.00  0.00    -0.072 N 
HETATM   13  H   UNL     1       9.769   0.360  -0.385  1.00  0.00     0.277 HD
HETATM   14  H   UNL     1      10.420  -0.815  -1.344  1.00  0.00     0.277 HD
HETATM   15  C   UNL     1       8.822  -1.494  -0.178  1.00  0.00     0.252 C 
HETATM   16  C   UNL     1       7.444  -0.981   0.284  1.00  0.00     0.150 C 
ENDBRANCH   5   9
BRANCH   3  17
HETATM   17  S   UNL     1       2.710   2.672   0.075  1.00  0.00     0.172 S 
HETATM   18  C   UNL     1       1.476   2.893  -1.178  1.00  0.00     0.167 C 
HETATM   19  O   UNL     1       2.095   2.739   1.384  1.00  0.00    -0.223 OA
HETATM   20  O   UNL     1       3.812   3.559  -0.263  1.00  0.00    -0.223 OA
ENDBRANCH   3  17
TORSDOF 2
