REMARK  8 active torsions:
REMARK  status: ('A' for Active; 'I' for Inactive)
REMARK    1  A    between atoms: C_2  and  C_3 
REMARK    2  A    between atoms: C_3  and  O_4 
REMARK    3  A    between atoms: O_4  and  C_5 
REMARK    4  A    between atoms: C_7  and  C_8 
REMARK    5  A    between atoms: N_9  and  C_10 
REMARK    6  A    between atoms: C_10  and  C_11 
REMARK    7  A    between atoms: C_24  and  C_25 
REMARK    8  A    between atoms: C_26  and  O_27 
ROOT
HETATM    1  C   UNL     1       5.906   5.199  -3.067  1.00  0.00     0.159 A 
HETATM    2  N   UNL     1       6.485   6.568  -2.973  1.00  0.00    -0.329 N 
HETATM    3  C   UNL     1       6.164   7.240  -1.792  1.00  0.00     0.273 A 
HETATM    4  O   UNL     1       6.525   8.343  -1.423  1.00  0.00    -0.266 OA
HETATM    5  C   UNL     1       5.335   6.324  -1.106  1.00  0.00     0.129 A 
HETATM    6  C   UNL     1       5.171   5.150  -1.782  1.00  0.00     0.034 A 
HETATM    7  N   UNL     1       4.641   6.247   0.038  1.00  0.00    -0.272 N 
HETATM    8  H   UNL     1       4.540   6.938   0.776  1.00  0.00     0.189 HD
HETATM    9  N   UNL     1       4.001   5.054   0.150  1.00  0.00    -0.173 NA
HETATM   10  C   UNL     1       4.370   4.346  -0.952  1.00  0.00     0.101 A 
ENDROOT
BRANCH   1  11
HETATM   11  C   UNL     1       4.892   5.049  -4.177  1.00  0.00    -0.028 A 
HETATM   12  C   UNL     1       4.896   3.885  -4.966  1.00  0.00     0.046 A 
HETATM   13  C   UNL     1       3.964   3.693  -5.992  1.00  0.00     0.069 A 
HETATM   14  C   UNL     1       3.019   4.683  -6.252  1.00  0.00     0.037 A 
HETATM   15  C   UNL     1       3.003   5.851  -5.488  1.00  0.00     0.003 A 
HETATM   16  C   UNL     1       3.929   6.033  -4.460  1.00  0.00     0.010 A 
BRANCH  13  17
HETATM   17  O   UNL     1       4.090   2.505  -6.658  1.00  0.00    -0.348 OA
BRANCH  17  18
HETATM   18  C   UNL     1       3.125   2.227  -7.671  1.00  0.00     0.202 C 
BRANCH  18  19
HETATM   19  C   UNL     1       3.413   0.854  -8.201  1.00  0.00    -0.011 C 
HETATM   20  C   UNL     1       3.675   0.569  -9.483  1.00  0.00     0.009 C 
ENDBRANCH  18  19
ENDBRANCH  17  18
ENDBRANCH  13  17
ENDBRANCH   1  11
BRANCH   2  21
HETATM   21  C   UNL     1       7.431   7.074  -3.942  1.00  0.00     0.165 C 
BRANCH  21  22
HETATM   22  C   UNL     1       8.795   6.458  -3.774  1.00  0.00    -0.037 A 
HETATM   23  C   UNL     1       9.306   5.570  -4.725  1.00  0.00     0.028 A 
HETATM   24  C   UNL     1      10.565   5.028  -4.517  1.00  0.00     0.116 A 
HETATM   25  N   UNL     1      11.333   5.301  -3.441  1.00  0.00    -0.273 NA
HETATM   26  C   UNL     1      10.823   6.162  -2.534  1.00  0.00     0.116 A 
HETATM   27  C   UNL     1       9.579   6.758  -2.655  1.00  0.00     0.028 A 
ENDBRANCH  21  22
ENDBRANCH   2  21
BRANCH  10  28
HETATM   28  C   UNL     1       3.905   2.970  -1.144  1.00  0.00     0.028 A 
HETATM   29  C   UNL     1       2.688   2.525  -0.596  1.00  0.00     0.078 A 
HETATM   30  C   UNL     1       2.232   1.225  -0.804  1.00  0.00     0.037 A 
HETATM   31  C   UNL     1       3.001   0.333  -1.548  1.00  0.00     0.003 A 
HETATM   32  C   UNL     1       4.224   0.742  -2.076  1.00  0.00     0.001 A 
HETATM   33  C   UNL     1       4.675   2.051  -1.872  1.00  0.00     0.017 A 
BRANCH  29  34
HETATM   34  O   UNL     1       1.891   3.333   0.175  1.00  0.00    -0.360 OA
HETATM   35  H   UNL     1       2.432   4.129   0.381  1.00  0.00     0.217 HD
ENDBRANCH  29  34
ENDBRANCH  10  28
TORSDOF 8
