REMARK  3 active torsions:
REMARK  status: ('A' for Active; 'I' for Inactive)
REMARK    1  A    between atoms: N_7  and  N_8 
REMARK       I    between atoms: N_8  and  C_9 
REMARK    2  A    between atoms: C_9  and  C_10 
REMARK    3  A    between atoms: C_14  and  C_15 
ROOT
HETATM    1  N   UNL     1      -1.989   3.288  -0.044  1.00  0.00    -0.241 N 
HETATM    2  C   UNL     1      -2.704   4.472  -0.170  1.00  0.00     0.289 C 
HETATM    3  O   UNL     1      -2.200   5.578  -0.339  1.00  0.00    -0.264 OA
HETATM    4  H   UNL     1      -2.463   2.474   0.312  1.00  0.00     0.192 HD
ENDROOT
BRANCH   2   5
HETATM    5  C   UNL     1      -4.134   4.316  -0.074  1.00  0.00     0.121 A 
HETATM    6  N   UNL     1      -4.962   5.400   0.007  1.00  0.00    -0.272 N 
HETATM    7  H   UNL     1      -4.683   6.378   0.013  1.00  0.00     0.189 HD
HETATM    8  N   UNL     1      -6.264   5.092   0.096  1.00  0.00    -0.174 NA
HETATM    9  C   UNL     1      -6.303   3.753   0.018  1.00  0.00     0.089 A 
HETATM   10  C   UNL     1      -4.983   3.227  -0.072  1.00  0.00     0.071 A 
BRANCH   9  11
HETATM   11  C   UNL     1      -7.572   3.019   0.029  1.00  0.00    -0.005 A 
HETATM   12  C   UNL     1      -7.662   1.722  -0.503  1.00  0.00     0.017 A 
HETATM   13  C   UNL     1      -8.879   1.033  -0.491  1.00  0.00     0.043 A 
HETATM   14  C   UNL     1     -10.007   1.638   0.051  1.00  0.00     0.116 A 
HETATM   15  F   UNL     1     -11.170   0.975   0.060  1.00  0.00    -0.206 F 
HETATM   16  C   UNL     1      -9.943   2.920   0.580  1.00  0.00     0.043 A 
HETATM   17  C   UNL     1      -8.729   3.610   0.566  1.00  0.00     0.017 A 
ENDBRANCH   9  11
ENDBRANCH   2   5
BRANCH   1  18
HETATM   18  N   UNL     1      -0.629   3.315  -0.032  1.00  0.00    -0.165 NA
HETATM   19  C   UNL     1       0.049   2.212   0.006  1.00  0.00     0.157 A 
HETATM   20  C   UNL     1      -0.312   0.786  -0.049  1.00  0.00     0.027 A 
HETATM   21  C   UNL     1       1.587   2.244   0.158  1.00  0.00     0.277 A 
HETATM   22  C   UNL     1      -1.503   0.115  -0.266  1.00  0.00     0.016 A 
HETATM   23  C   UNL     1       0.881   0.078   0.126  1.00  0.00     0.048 A 
HETATM   24  C   UNL     1      -1.478  -1.285  -0.251  1.00  0.00     0.001 A 
HETATM   25  C   UNL     1      -0.277  -1.987  -0.044  1.00  0.00     0.002 A 
HETATM   26  C   UNL     1       0.926  -1.302   0.138  1.00  0.00     0.030 A 
HETATM   27  N   UNL     1       1.972   0.928   0.250  1.00  0.00    -0.321 N 
HETATM   28  H   UNL     1       2.937   0.652   0.354  1.00  0.00     0.169 HD
HETATM   29  O   UNL     1       2.292   3.227   0.198  1.00  0.00    -0.266 OA
ENDBRANCH   1  18
TORSDOF 3
