REMARK  9 active torsions:
REMARK  status: ('A' for Active; 'I' for Inactive)
REMARK    1  A    between atoms: C_2  and  C_3 
REMARK    2  A    between atoms: C_3  and  C_4 
REMARK    3  A    between atoms: C_4  and  O_5 
REMARK    4  A    between atoms: O_5  and  C_6 
REMARK    5  A    between atoms: C_8  and  C_9 
REMARK       I    between atoms: C_9  and  N_10 
REMARK    6  A    between atoms: N_10  and  C_11 
REMARK    7  A    between atoms: N_12  and  C_13 
REMARK    8  A    between atoms: C_15  and  C_16 
REMARK    9  A    between atoms: C_25  and  O_26 
ROOT
HETATM    1  C   UNL     1      11.501  -1.604   1.702  1.00  0.00     0.179 C 
HETATM    2  N   UNL     1      10.872  -2.681   2.229  1.00  0.00    -0.333 N 
HETATM    3  S   UNL     1      12.804  -1.837   0.680  1.00  0.00    -0.040 SA
HETATM    4  H   UNL     1      11.009  -3.538   1.705  1.00  0.00     0.168 HD
ENDROOT
BRANCH   2   5
HETATM    5  C   UNL     1      10.202  -2.829   3.461  1.00  0.00     0.035 A 
HETATM    6  C   UNL     1      10.370  -1.946   4.537  1.00  0.00     0.046 A 
HETATM    7  C   UNL     1       9.682  -2.137   5.750  1.00  0.00     0.035 A 
HETATM    8  C   UNL     1       8.808  -3.235   5.843  1.00  0.00     0.078 A 
HETATM    9  C   UNL     1       8.674  -4.145   4.798  1.00  0.00     0.040 A 
HETATM   10  C   UNL     1       9.383  -3.950   3.615  1.00  0.00     0.032 A 
BRANCH   7  11
HETATM   11  C   UNL     1       9.857  -1.236   6.904  1.00  0.00     0.112 A 
HETATM   12  S   UNL     1      11.340  -0.418   7.205  1.00  0.00    -0.067 SA
HETATM   13  C   UNL     1      10.708   0.212   8.676  1.00  0.00     0.035 A 
HETATM   14  C   UNL     1       9.394  -0.229   8.829  1.00  0.00     0.075 A 
HETATM   15  C   UNL     1      11.331   1.035   9.629  1.00  0.00     0.021 A 
HETATM   16  N   UNL     1       8.930  -1.069   7.830  1.00  0.00    -0.239 NA
HETATM   17  C   UNL     1       8.665   0.188   9.961  1.00  0.00     0.033 A 
HETATM   18  C   UNL     1       9.272   1.014  10.913  1.00  0.00     0.002 A 
HETATM   19  C   UNL     1      10.591   1.426  10.750  1.00  0.00     0.002 A 
ENDBRANCH   7  11
BRANCH   8  20
HETATM   20  O   UNL     1       8.051  -3.486   6.959  1.00  0.00    -0.360 OA
HETATM   21  H   UNL     1       8.100  -2.694   7.536  1.00  0.00     0.217 HD
ENDBRANCH   8  20
ENDBRANCH   2   5
BRANCH   1  22
HETATM   22  N   UNL     1      11.087  -0.326   1.940  1.00  0.00    -0.299 N 
HETATM   23  C   UNL     1       9.798   0.132   2.200  1.00  0.00     0.257 C 
HETATM   24  O   UNL     1       8.778  -0.544   2.132  1.00  0.00    -0.267 OA
HETATM   25  H   UNL     1      11.722   0.365   1.562  1.00  0.00     0.171 HD
BRANCH  23  26
HETATM   26  C   UNL     1       9.685   1.592   2.489  1.00  0.00     0.035 A 
HETATM   27  C   UNL     1       8.452   2.223   2.257  1.00  0.00     0.053 A 
HETATM   28  C   UNL     1       8.306   3.587   2.506  1.00  0.00     0.069 A 
HETATM   29  C   UNL     1       9.396   4.319   2.982  1.00  0.00     0.037 A 
HETATM   30  C   UNL     1      10.616   3.694   3.242  1.00  0.00     0.004 A 
HETATM   31  C   UNL     1      10.761   2.328   3.004  1.00  0.00     0.017 A 
BRANCH  28  32
HETATM   32  O   UNL     1       7.170   4.319   2.302  1.00  0.00    -0.351 OA
BRANCH  32  33
HETATM   33  C   UNL     1       5.940   3.594   2.235  1.00  0.00     0.175 C 
BRANCH  33  34
HETATM   34  C   UNL     1       4.807   4.619   2.221  1.00  0.00     0.026 C 
BRANCH  34  35
HETATM   35  C   UNL     1       3.434   3.955   2.234  1.00  0.00    -0.002 C 
HETATM   36  C   UNL     1       2.319   4.988   2.182  1.00  0.00     0.005 C 
ENDBRANCH  34  35
ENDBRANCH  33  34
ENDBRANCH  32  33
ENDBRANCH  28  32
ENDBRANCH  23  26
ENDBRANCH   1  22
TORSDOF 9
