REMARK  4 active torsions:
REMARK  status: ('A' for Active; 'I' for Inactive)
REMARK    1  A    between atoms: C_6  and  C_7 
REMARK    2  A    between atoms: C_9  and  C_10 
REMARK    3  A    between atoms: C_10  and  C_11 
REMARK    4  A    between atoms: C_15  and  N_16 
ROOT
HETATM    1  C   UNL     1       3.818  -0.066  -0.005  1.00  0.00     0.112 A 
HETATM    2  O   UNL     1       4.716   0.969  -0.028  1.00  0.00    -0.308 OA
HETATM    3  C   UNL     1       6.004   0.474  -0.020  1.00  0.00     0.077 A 
HETATM    4  C   UNL     1       5.902  -0.910   0.037  1.00  0.00     0.040 A 
HETATM    5  C   UNL     1       4.529  -1.249   0.036  1.00  0.00     0.043 A 
ENDROOT
BRANCH   3   6
HETATM    6  C   UNL     1       7.116   1.364  -0.026  1.00  0.00     0.059 C 
BRANCH   6   7
HETATM    7  C   UNL     1       8.363   1.094  -0.429  1.00  0.00     0.053 A 
HETATM    8  S   UNL     1       9.040  -0.355  -1.060  1.00  0.00    -0.024 SA
HETATM    9  C   UNL     1      10.634   0.402  -1.166  1.00  0.00     0.312 A 
HETATM   10  O   UNL     1      11.607  -0.222  -1.558  1.00  0.00    -0.258 OA
HETATM   11  N   UNL     1      10.645   1.724  -0.781  1.00  0.00    -0.191 NA
HETATM   12  C   UNL     1       9.462   2.116  -0.395  1.00  0.00     0.122 A 
BRANCH  12  13
HETATM   13  N   UNL     1       9.316   3.417   0.002  1.00  0.00    -0.286 NA
HETATM   14  H   UNL     1       8.450   3.883  -0.241  1.00  0.00     0.125 HD
HETATM   15  H   UNL     1      10.131   3.981  -0.226  1.00  0.00     0.125 HD
ENDBRANCH  12  13
ENDBRANCH   6   7
ENDBRANCH   3   6
BRANCH   1  16
HETATM   16  C   UNL     1       2.390   0.104  -0.012  1.00  0.00     0.133 A 
HETATM   17  S   UNL     1       1.656   1.652  -0.057  1.00  0.00    -0.066 SA
HETATM   18  C   UNL     1       0.099   0.916  -0.032  1.00  0.00     0.035 A 
HETATM   19  C   UNL     1       0.256  -0.471   0.006  1.00  0.00     0.075 A 
HETATM   20  C   UNL     1      -1.169   1.519  -0.045  1.00  0.00     0.021 A 
HETATM   21  C   UNL     1      -0.896  -1.283   0.032  1.00  0.00     0.033 A 
HETATM   22  N   UNL     1       1.565  -0.921   0.017  1.00  0.00    -0.238 NA
HETATM   23  C   UNL     1      -2.164  -0.693   0.019  1.00  0.00     0.002 A 
HETATM   24  C   UNL     1      -2.296   0.691  -0.019  1.00  0.00     0.002 A 
ENDBRANCH   1  16
TORSDOF 4
