REMARK  6 active torsions:
REMARK  status: ('A' for Active; 'I' for Inactive)
REMARK    1  A    between atoms: O_2  and  C_3 
REMARK    2  A    between atoms: C_6  and  C_7 
REMARK    3  A    between atoms: C_7  and  C_8 
REMARK    4  A    between atoms: C_8  and  C_9 
REMARK       I    between atoms: C_9  and  N_10 
REMARK    5  A    between atoms: N_10  and  N_11 
REMARK    6  A    between atoms: C_12  and  C_13 
ROOT
HETATM    1  C   UNL     1       5.585  -6.495   3.349  1.00  0.00     0.237 C 
HETATM    2  N   UNL     1       6.707  -6.187   4.105  1.00  0.00    -0.247 N 
HETATM    3  O   UNL     1       5.228  -7.624   3.023  1.00  0.00    -0.272 OA
HETATM    4  H   UNL     1       6.922  -5.226   4.343  1.00  0.00     0.192 HD
ENDROOT
BRANCH   2   5
HETATM    5  N   UNL     1       7.519  -7.190   4.550  1.00  0.00    -0.184 NA
HETATM    6  C   UNL     1       8.568  -6.819   5.210  1.00  0.00     0.152 C 
BRANCH   6   7
HETATM    7  C   UNL     1       9.482  -7.817   5.723  1.00  0.00     0.011 A 
HETATM    8  C   UNL     1      10.712  -7.594   6.423  1.00  0.00     0.004 A 
HETATM    9  C   UNL     1      11.253  -8.846   6.723  1.00  0.00     0.043 A 
HETATM   10  C   UNL     1      11.422  -6.444   6.829  1.00  0.00     0.014 A 
HETATM   11  C   UNL     1      12.463  -9.006   7.409  1.00  0.00     0.030 A 
HETATM   12  N   UNL     1      10.388  -9.793   6.226  1.00  0.00    -0.364 N 
HETATM   13  C   UNL     1      13.145  -7.850   7.799  1.00  0.00     0.002 A 
HETATM   14  C   UNL     1      12.635  -6.587   7.515  1.00  0.00     0.001 A 
HETATM   15  H   UNL     1      10.524 -10.792   6.297  1.00  0.00     0.165 HD
HETATM   16  C   UNL     1       9.323  -9.186   5.621  1.00  0.00     0.102 A 
ENDBRANCH   6   7
ENDBRANCH   2   5
BRANCH   1  17
HETATM   17  C   UNL     1       4.817  -5.269   2.908  1.00  0.00     0.109 C 
BRANCH  17  18
HETATM   18  C   UNL     1       5.546  -4.571   1.765  1.00  0.00     0.048 C 
BRANCH  18  19
HETATM   19  C   UNL     1       4.754  -3.410   1.220  1.00  0.00    -0.058 A 
HETATM   20  C   UNL     1       5.030  -2.099   1.621  1.00  0.00     0.010 A 
HETATM   21  C   UNL     1       4.285  -1.035   1.107  1.00  0.00     0.037 A 
HETATM   22  C   UNL     1       3.256  -1.259   0.190  1.00  0.00     0.068 A 
HETATM   23  C   UNL     1       2.967  -2.566  -0.201  1.00  0.00     0.037 A 
HETATM   24  C   UNL     1       3.712  -3.634   0.311  1.00  0.00     0.010 A 
BRANCH  22  25
HETATM   25  O   UNL     1       2.613  -0.131  -0.238  1.00  0.00    -0.356 OA
HETATM   26  C   UNL     1       1.634  -0.300  -1.256  1.00  0.00     0.210 C 
ENDBRANCH  22  25
ENDBRANCH  18  19
ENDBRANCH  17  18
ENDBRANCH   1  17
TORSDOF 6
