REMARK  9 active torsions:
REMARK  status: ('A' for Active; 'I' for Inactive)
REMARK    1  A    between atoms: C_2  and  O_3 
REMARK    2  A    between atoms: O_3  and  C_4 
REMARK    3  A    between atoms: C_5  and  C_6 
REMARK    4  A    between atoms: N_7  and  C_9 
REMARK    5  A    between atoms: C_9  and  C_10 
REMARK       I    between atoms: C_10  and  N_11 
REMARK    6  A    between atoms: N_11  and  C_12 
REMARK    7  A    between atoms: C_20  and  C_21 
REMARK    8  A    between atoms: C_21  and  O_22 
REMARK    9  A    between atoms: C_28  and  O_29 
ROOT
HETATM    1  C   UNL     1       4.846   2.806  -1.436  1.00  0.00     0.231 C 
HETATM    2  N   UNL     1       3.605   2.977  -0.539  1.00  0.00    -0.054 N 
HETATM    3  H   UNL     1       2.957   2.322  -0.999  1.00  0.00     0.281 HD
HETATM    4  C   UNL     1       2.947   4.321  -0.656  1.00  0.00     0.239 C 
HETATM    5  C   UNL     1       3.943   5.441  -0.425  1.00  0.00     0.066 C 
HETATM    6  C   UNL     1       5.079   5.352  -1.441  1.00  0.00     0.065 C 
HETATM    7  C   UNL     1       5.822   4.004  -1.279  1.00  0.00     0.055 C 
HETATM    8  C   UNL     1       6.053   6.533  -1.289  1.00  0.00     0.038 C 
HETATM    9  C   UNL     1       7.200   6.450  -2.295  1.00  0.00     0.003 C 
HETATM   10  C   UNL     1       7.926   5.115  -2.205  1.00  0.00     0.001 C 
HETATM   11  C   UNL     1       6.973   3.926  -2.310  1.00  0.00     0.010 C 
ENDROOT
BRANCH   2  12
HETATM   12  C   UNL     1       3.691   2.435   0.907  1.00  0.00     0.338 C 
BRANCH  12  13
HETATM   13  C   UNL     1       2.805   1.180   1.048  1.00  0.00     0.248 C 
HETATM   14  N   UNL     1       1.475   1.467   0.727  1.00  0.00    -0.319 N 
HETATM   15  H   UNL     1       1.220   2.426   0.535  1.00  0.00     0.169 HD
HETATM   16  O   UNL     1       3.277   0.066   1.245  1.00  0.00    -0.271 OA
BRANCH  14  17
HETATM   17  C   UNL     1       0.778   0.562  -0.047  1.00  0.00     0.094 C 
HETATM   18  S   UNL     1       0.128   1.320  -1.426  1.00  0.00    -0.075 SA
HETATM   19  C   UNL     1      -0.298  -0.174  -2.100  1.00  0.00    -0.008 C 
HETATM   20  C   UNL     1      -0.057  -1.232  -1.241  1.00  0.00    -0.026 C 
HETATM   21  C   UNL     1      -0.879  -0.286  -3.477  1.00  0.00     0.047 C 
HETATM   22  C   UNL     1      -0.465  -2.638  -1.603  1.00  0.00     0.041 C 
HETATM   23  C   UNL     1       0.535  -0.796   0.013  1.00  0.00     0.080 C 
HETATM   24  C   UNL     1      -0.765  -2.790  -3.103  1.00  0.00     0.005 C 
HETATM   25  C   UNL     1      -1.604  -1.626  -3.645  1.00  0.00     0.005 C 
BRANCH  23  26
HETATM   26  C   UNL     1       0.778  -1.656   1.176  1.00  0.00     0.296 C 
HETATM   27  O   UNL     1       0.862  -2.875   1.101  1.00  0.00    -0.259 OA
BRANCH  26  28
HETATM   28  O   UNL     1       0.771  -0.960   2.353  1.00  0.00    -0.322 OA
HETATM   29  C   UNL     1       0.873  -1.782   3.516  1.00  0.00     0.213 C 
ENDBRANCH  26  28
ENDBRANCH  23  26
ENDBRANCH  14  17
ENDBRANCH  12  13
ENDBRANCH   2  12
BRANCH   1  30
HETATM   30  C   UNL     1       5.389   1.380  -1.394  1.00  0.00     0.006 A 
HETATM   31  C   UNL     1       6.457   0.955  -0.576  1.00  0.00     0.077 A 
HETATM   32  C   UNL     1       6.868  -0.383  -0.598  1.00  0.00     0.037 A 
HETATM   33  C   UNL     1       6.236  -1.307  -1.429  1.00  0.00     0.003 A 
HETATM   34  C   UNL     1       5.181  -0.906  -2.237  1.00  0.00     0.001 A 
HETATM   35  C   UNL     1       4.759   0.422  -2.220  1.00  0.00     0.012 A 
BRANCH  31  36
HETATM   36  O   UNL     1       7.008   1.884   0.267  1.00  0.00    -0.351 OA
BRANCH  36  37
HETATM   37  C   UNL     1       8.361   1.656   0.681  1.00  0.00     0.171 C 
HETATM   38  C   UNL     1       8.849   2.911   1.384  1.00  0.00     0.034 C 
ENDBRANCH  36  37
ENDBRANCH  31  36
ENDBRANCH   1  30
BRANCH   6  39
HETATM   39  O   UNL     1       4.478   5.394  -2.741  1.00  0.00    -0.389 OA
HETATM   40  H   UNL     1       4.500   6.311  -3.080  1.00  0.00     0.210 HD
ENDBRANCH   6  39
TORSDOF 9
