REMARK  4 active torsions:
REMARK  status: ('A' for Active; 'I' for Inactive)
REMARK    1  A    between atoms: C_6  and  C_7 
REMARK    2  A    between atoms: C_7  and  N_8 
REMARK    3  A    between atoms: N_8  and  C_9 
REMARK    4  A    between atoms: C_9  and  C_10 
ROOT
HETATM    1  C   UNL     1       8.003  -2.597   1.024  1.00  0.00     0.327 C 
ENDROOT
BRANCH   1   2
HETATM    2  N   UNL     1       6.776  -1.809   1.202  1.00  0.00     0.097 N 
HETATM    3  H   UNL     1       6.197  -2.244   1.924  1.00  0.00     0.317 HD
BRANCH   2   4
HETATM    4  C   UNL     1       5.959  -1.768  -0.030  1.00  0.00     0.252 C 
HETATM    5  C   UNL     1       5.403  -3.140  -0.429  1.00  0.00     0.048 C 
BRANCH   4   6
HETATM    6  C   UNL     1       4.849  -0.786   0.205  1.00  0.00     0.006 A 
HETATM    7  C   UNL     1       4.558   0.339  -0.552  1.00  0.00     0.058 A 
HETATM    8  O   UNL     1       3.454   0.970  -0.069  1.00  0.00    -0.320 OA
HETATM    9  C   UNL     1       5.174   0.953  -1.749  1.00  0.00     0.077 C 
HETATM   10  C   UNL     1       3.003   0.248   0.989  1.00  0.00     0.050 A 
HETATM   11  C   UNL     1       1.771   0.734   1.643  1.00  0.00     0.076 C 
HETATM   12  C   UNL     1       3.827  -0.834   1.205  1.00  0.00     0.044 A 
ENDBRANCH   4   6
ENDBRANCH   2   4
ENDBRANCH   1   2
BRANCH   1  13
HETATM   13  C   UNL     1       8.970  -2.316   2.158  1.00  0.00     0.044 A 
HETATM   14  N   UNL     1       8.881  -1.055   2.719  1.00  0.00    -0.338 N 
HETATM   15  H   UNL     1       8.174  -0.404   2.368  1.00  0.00     0.168 HD
HETATM   16  C   UNL     1       9.667  -0.711   3.708  1.00  0.00     0.158 A 
HETATM   17  N   UNL     1      10.560  -1.544   4.203  1.00  0.00    -0.269 N 
HETATM   18  S   UNL     1       9.642   0.842   4.484  1.00  0.00    -0.064 SA
HETATM   19  C   UNL     1      10.743  -2.860   3.732  1.00  0.00     0.255 A 
HETATM   20  C   UNL     1      11.290  -0.994   5.237  1.00  0.00     0.109 A 
HETATM   21  O   UNL     1      11.573  -3.605   4.217  1.00  0.00    -0.268 OA
HETATM   22  C   UNL     1       9.844  -3.219   2.624  1.00  0.00     0.101 A 
HETATM   23  C   UNL     1      10.935   0.268   5.519  1.00  0.00     0.071 A 
ENDBRANCH   1  13
TORSDOF 4
