REMARK  9 active torsions:
REMARK  status: ('A' for Active; 'I' for Inactive)
REMARK    1  A    between atoms: C_3  and  C_4 
REMARK    2  A    between atoms: C_4  and  C_5 
REMARK    3  A    between atoms: C_5  and  N_6 
REMARK       I    between atoms: N_6  and  C_7 
REMARK    4  A    between atoms: C_7  and  C_8 
REMARK    5  A    between atoms: C_8  and  C_9 
REMARK    6  A    between atoms: C_9  and  C_10 
REMARK    7  A    between atoms: C_9  and  C_26 
REMARK    8  A    between atoms: C_14  and  C_15 
REMARK    9  A    between atoms: C_28  and  N_29 
ROOT
HETATM    1  C   UNL     1      -1.769   3.928  -0.718  1.00  0.00     0.062 C 
ENDROOT
BRANCH   1   2
HETATM    2  C   UNL     1      -1.837   2.686  -1.635  1.00  0.00     0.116 C 
BRANCH   2   3
HETATM    3  C   UNL     1      -2.350   1.417  -0.972  1.00  0.00     0.218 C 
HETATM    4  N   UNL     1      -1.396   0.683  -0.308  1.00  0.00    -0.361 N 
HETATM    5  H   UNL     1      -0.443   1.028  -0.271  1.00  0.00     0.162 HD
HETATM    6  O   UNL     1      -3.526   1.068  -1.054  1.00  0.00    -0.274 OA
BRANCH   4   7
HETATM    7  C   UNL     1      -1.668  -0.590   0.331  1.00  0.00     0.128 C 
BRANCH   7   8
HETATM    8  C   UNL     1      -1.382  -0.591   1.836  1.00  0.00     0.079 C 
BRANCH   8   9
HETATM    9  C   UNL     1      -2.293   0.205   2.740  1.00  0.00     0.035 A 
HETATM   10  C   UNL     1      -3.633   0.438   2.443  1.00  0.00     0.027 A 
HETATM   11  C   UNL     1      -4.431   1.103   3.372  1.00  0.00     0.003 A 
HETATM   12  C   UNL     1      -3.885   1.502   4.583  1.00  0.00     0.019 A 
HETATM   13  C   UNL     1      -2.552   1.222   4.815  1.00  0.00     0.117 A 
HETATM   14  N   UNL     1      -1.747   0.598   3.925  1.00  0.00    -0.266 NA
ENDBRANCH   8   9
ENDBRANCH   7   8
ENDBRANCH   4   7
ENDBRANCH   2   3
ENDBRANCH   1   2
BRANCH   1  15
HETATM   15  C   UNL     1      -0.948   3.708   0.540  1.00  0.00    -0.021 C 
HETATM   16  C   UNL     1       0.436   3.291   0.515  1.00  0.00    -0.001 A 
HETATM   17  C   UNL     1       0.752   2.801   1.776  1.00  0.00     0.043 A 
HETATM   18  C   UNL     1       1.391   3.149  -0.507  1.00  0.00     0.015 A 
HETATM   19  C   UNL     1       1.919   2.061   2.039  1.00  0.00     0.044 A 
HETATM   20  N   UNL     1      -0.297   3.126   2.601  1.00  0.00    -0.365 N 
HETATM   21  C   UNL     1       2.820   1.808   0.984  1.00  0.00    -0.005 A 
HETATM   22  C   UNL     1       2.557   2.413  -0.259  1.00  0.00     0.015 A 
HETATM   23  H   UNL     1      -0.372   2.851   3.571  1.00  0.00     0.165 HD
HETATM   24  C   UNL     1      -1.299   3.726   1.878  1.00  0.00     0.097 C 
BRANCH  21  25
HETATM   25  C   UNL     1       3.972   0.880   1.123  1.00  0.00     0.066 A 
HETATM   26  N   UNL     1       4.430   0.352  -0.044  1.00  0.00    -0.260 NA
HETATM   27  C   UNL     1       5.428  -0.556   0.006  1.00  0.00     0.117 A 
HETATM   28  C   UNL     1       6.014  -0.986   1.179  1.00  0.00     0.019 A 
HETATM   29  C   UNL     1       5.556  -0.441   2.371  1.00  0.00     0.004 A 
HETATM   30  C   UNL     1       4.528   0.503   2.346  1.00  0.00     0.032 A 
ENDBRANCH  21  25
ENDBRANCH   1  15
BRANCH   1  31
HETATM   31  C   UNL     1      -3.172   4.466  -0.450  1.00  0.00    -0.047 A 
HETATM   32  C   UNL     1      -3.653   5.506  -1.272  1.00  0.00     0.043 A 
HETATM   33  C   UNL     1      -4.999   5.905  -1.211  1.00  0.00     0.103 A 
HETATM   34  C   UNL     1      -5.881   5.307  -0.307  1.00  0.00     0.036 A 
HETATM   35  C   UNL     1      -5.418   4.283   0.514  1.00  0.00     0.003 A 
HETATM   36  C   UNL     1      -4.089   3.854   0.421  1.00  0.00     0.008 A 
BRANCH  33  37
HETATM   37  N   UNL     1      -5.500   6.916  -2.150  1.00  0.00    -0.116 N 
HETATM   38  O   UNL     1      -4.710   7.362  -2.995  1.00  0.00    -0.532 OA
HETATM   39  O   UNL     1      -6.688   7.258  -2.053  1.00  0.00    -0.532 OA
ENDBRANCH  33  37
ENDBRANCH   1  31
TORSDOF 9
