REMARK  8 active torsions:
REMARK  status: ('A' for Active; 'I' for Inactive)
REMARK    1  A    between atoms: C_2  and  O_3 
REMARK    2  A    between atoms: O_3  and  C_4 
REMARK    3  A    between atoms: C_4  and  C_5 
REMARK    4  A    between atoms: N_7  and  C_9 
REMARK    5  A    between atoms: C_9  and  C_10 
REMARK       I    between atoms: C_10  and  N_11 
REMARK    6  A    between atoms: N_11  and  C_12 
REMARK    7  A    between atoms: C_20  and  C_21 
REMARK       I    between atoms: C_21  and  N_22 
REMARK    8  A    between atoms: N_22  and  C_23 
ROOT
HETATM    1  C   UNL     1       5.104  -4.098  -0.333  1.00  0.00     0.093 C 
HETATM    2  S   UNL     1       5.020  -3.047   0.995  1.00  0.00    -0.075 SA
HETATM    3  C   UNL     1       3.806  -2.126   0.268  1.00  0.00    -0.008 C 
HETATM    4  C   UNL     1       3.430  -2.608  -0.976  1.00  0.00    -0.026 C 
HETATM    5  C   UNL     1       2.411  -1.849  -1.789  1.00  0.00     0.041 C 
HETATM    6  C   UNL     1       2.204  -0.411  -1.290  1.00  0.00     0.005 C 
HETATM    7  C   UNL     1       2.031  -0.371   0.231  1.00  0.00     0.005 C 
HETATM    8  C   UNL     1       3.285  -0.889   0.940  1.00  0.00     0.047 C 
HETATM    9  C   UNL     1       4.128  -3.851  -1.300  1.00  0.00     0.073 C 
ENDROOT
BRANCH   1  10
HETATM   10  N   UNL     1       6.026  -5.141  -0.320  1.00  0.00    -0.319 N 
HETATM   11  C   UNL     1       7.224  -5.106   0.354  1.00  0.00     0.248 C 
HETATM   12  O   UNL     1       7.748  -4.141   0.918  1.00  0.00    -0.271 OA
HETATM   13  H   UNL     1       5.901  -5.809  -1.085  1.00  0.00     0.169 HD
BRANCH  11  14
HETATM   14  C   UNL     1       7.994  -6.429   0.385  1.00  0.00     0.337 C 
BRANCH  14  15
HETATM   15  N   UNL     1       9.131  -6.309   1.416  1.00  0.00    -0.062 N 
HETATM   16  C   UNL     1       8.634  -6.466   2.842  1.00  0.00     0.249 C 
HETATM   17  C   UNL     1       9.743  -6.062   3.812  1.00  0.00     0.111 C 
HETATM   18  C   UNL     1      11.018  -6.866   3.544  1.00  0.00     0.018 C 
HETATM   19  C   UNL     1      11.448  -6.776   2.080  1.00  0.00     0.029 C 
HETATM   20  C   UNL     1      10.327  -7.157   1.120  1.00  0.00     0.235 C 
HETATM   21  H   UNL     1       9.401  -5.310   1.327  1.00  0.00     0.280 HD
BRANCH  17  22
HETATM   22  C   UNL     1       9.238  -6.281   5.221  1.00  0.00     0.264 C 
HETATM   23  O   UNL     1       8.145  -6.764   5.479  1.00  0.00    -0.265 OA
BRANCH  22  24
HETATM   24  O   UNL     1      10.152  -5.845   6.124  1.00  0.00    -0.322 OA
BRANCH  24  25
HETATM   25  C   UNL     1       9.794  -5.981   7.510  1.00  0.00     0.174 C 
HETATM   26  C   UNL     1       9.082  -4.728   7.984  1.00  0.00     0.034 C 
ENDBRANCH  24  25
ENDBRANCH  22  24
ENDBRANCH  17  22
ENDBRANCH  14  15
ENDBRANCH  11  14
ENDBRANCH   1  10
BRANCH   9  27
HETATM   27  C   UNL     1       3.994  -4.765  -2.462  1.00  0.00     0.259 C 
HETATM   28  N   UNL     1       2.882  -4.569  -3.255  1.00  0.00    -0.323 N 
HETATM   29  H   UNL     1       2.224  -3.872  -2.953  1.00  0.00     0.169 HD
HETATM   30  O   UNL     1       4.835  -5.648  -2.638  1.00  0.00    -0.267 OA
BRANCH  28  31
HETATM   31  C   UNL     1       2.514  -5.245  -4.437  1.00  0.00     0.035 A 
HETATM   32  C   UNL     1       3.214  -6.322  -4.983  1.00  0.00     0.031 A 
HETATM   33  C   UNL     1       2.768  -6.931  -6.164  1.00  0.00     0.026 A 
HETATM   34  C   UNL     1       1.628  -6.458  -6.808  1.00  0.00     0.034 A 
HETATM   35 CL   UNL     1       1.089  -7.204  -8.260  1.00  0.00    -0.084 Cl
HETATM   36  C   UNL     1       0.924  -5.381  -6.280  1.00  0.00     0.026 A 
HETATM   37  C   UNL     1       1.364  -4.781  -5.096  1.00  0.00     0.031 A 
ENDBRANCH  28  31
ENDBRANCH   9  27
TORSDOF 8
