REMARK  2 active torsions:
REMARK  status: ('A' for Active; 'I' for Inactive)
REMARK    1  A    between atoms: C_8  and  C_9 
REMARK       I    between atoms: N_10  and  C_11 
REMARK    2  A    between atoms: C_11  and  C_12 
ROOT
HETATM    1  C   UNL     1       3.069  -2.720  -0.282  1.00  0.00     0.124 C 
HETATM    2  N   UNL     1       3.679  -4.026  -0.526  1.00  0.00    -0.339 N 
HETATM    3  C   UNL     1       4.464  -4.220  -1.642  1.00  0.00     0.260 C 
HETATM    4  O   UNL     1       4.648  -3.334  -2.479  1.00  0.00    -0.267 OA
HETATM    5  C   UNL     1       3.646  -4.847   0.678  1.00  0.00     0.127 C 
HETATM    6  C   UNL     1       2.612  -4.182   1.573  1.00  0.00     0.022 C 
HETATM    7  C   UNL     1       2.763  -2.709   1.222  1.00  0.00     0.032 C 
ENDROOT
BRANCH   1   8
HETATM    8  C   UNL     1       1.847  -2.478  -1.125  1.00  0.00     0.014 A 
HETATM    9  C   UNL     1       0.975  -3.350  -1.761  1.00  0.00     0.034 A 
HETATM   10  C   UNL     1       0.920  -4.825  -1.882  1.00  0.00     0.070 C 
HETATM   11  N   UNL     1       0.056  -2.566  -2.401  1.00  0.00    -0.282 N 
HETATM   12  H   UNL     1      -0.716  -2.864  -2.987  1.00  0.00     0.189 HD
HETATM   13  N   UNL     1       0.227  -1.255  -2.204  1.00  0.00    -0.179 NA
HETATM   14  C   UNL     1       1.329  -1.184  -1.453  1.00  0.00     0.061 A 
HETATM   15  C   UNL     1       1.867   0.142  -1.056  1.00  0.00     0.073 C 
ENDBRANCH   1   8
BRANCH   3  16
HETATM   16  C   UNL     1       5.200  -5.503  -1.793  1.00  0.00     0.108 A 
HETATM   17  C   UNL     1       4.534  -6.821  -1.817  1.00  0.00     0.304 A 
HETATM   18  O   UNL     1       3.321  -6.961  -1.710  1.00  0.00    -0.259 OA
HETATM   19  O   UNL     1       5.360  -7.937  -1.954  1.00  0.00    -0.274 OA
HETATM   20  C   UNL     1       6.736  -7.810  -2.215  1.00  0.00     0.089 A 
HETATM   21  C   UNL     1       7.334  -6.556  -2.270  1.00  0.00    -0.001 A 
HETATM   22  C   UNL     1       7.459  -8.978  -2.439  1.00  0.00     0.038 A 
HETATM   23  C   UNL     1       8.695  -6.470  -2.570  1.00  0.00     0.014 A 
HETATM   24  C   UNL     1       6.517  -5.381  -2.024  1.00  0.00     0.037 A 
HETATM   25  C   UNL     1       9.433  -7.634  -2.807  1.00  0.00     0.001 A 
HETATM   26  C   UNL     1       8.817  -8.886  -2.738  1.00  0.00     0.003 A 
ENDBRANCH   3  16
TORSDOF 2
