REMARK  6 active torsions:
REMARK  status: ('A' for Active; 'I' for Inactive)
REMARK    1  A    between atoms: C_2  and  C_3 
REMARK    2  A    between atoms: C_7  and  C_8 
REMARK       I    between atoms: C_8  and  N_9 
REMARK    3  A    between atoms: N_9  and  C_10 
REMARK    4  A    between atoms: C_10  and  C_11 
REMARK    5  A    between atoms: C_11  and  N_12 
REMARK    6  A    between atoms: C_15  and  C_16 
ROOT
HETATM    1  C   UNL     1       4.177   4.707   4.271  1.00  0.00     0.150 C 
ENDROOT
BRANCH   1   2
HETATM    2  N   UNL     1       4.593   3.511   4.965  1.00  0.00    -0.354 N 
HETATM    3  C   UNL     1       5.750   3.444   5.717  1.00  0.00     0.272 C 
HETATM    4  O   UNL     1       6.470   4.424   5.891  1.00  0.00    -0.266 OA
HETATM    5  H   UNL     1       4.137   2.608   4.822  1.00  0.00     0.162 HD
BRANCH   3   6
HETATM    6  C   UNL     1       5.989   2.117   6.304  1.00  0.00     0.152 A 
HETATM    7  N   UNL     1       5.180   1.080   6.004  1.00  0.00    -0.169 NA
HETATM    8  N   UNL     1       5.688   0.056   6.710  1.00  0.00    -0.281 N 
HETATM    9  C   UNL     1       6.770   0.394   7.472  1.00  0.00     0.036 A 
HETATM   10  H   UNL     1       5.241  -0.853   6.634  1.00  0.00     0.189 HD
HETATM   11  C   UNL     1       7.004   1.735   7.232  1.00  0.00    -0.002 A 
HETATM   12  C   UNL     1       8.064   2.598   7.813  1.00  0.00     0.053 C 
BRANCH   9  13
HETATM   13  C   UNL     1       7.457  -0.599   8.347  1.00  0.00     0.055 C 
HETATM   14  C   UNL     1       6.859  -0.618   9.745  1.00  0.00     0.011 C 
ENDBRANCH   9  13
ENDBRANCH   3   6
ENDBRANCH   1   2
BRANCH   1  15
HETATM   15  C   UNL     1       4.019   5.918   5.210  1.00  0.00     0.254 C 
BRANCH  15  16
HETATM   16  N   UNL     1       3.374   7.103   4.513  1.00  0.00    -0.069 N 
HETATM   17  H   UNL     1       3.898   7.273   3.644  1.00  0.00     0.280 HD
HETATM   18  C   UNL     1       3.474   8.373   5.355  1.00  0.00     0.244 C 
HETATM   19  C   UNL     1       2.080   8.563   5.970  1.00  0.00     0.046 C 
HETATM   20  C   UNL     1       1.215   8.146   4.776  1.00  0.00     0.039 C 
HETATM   21  C   UNL     1       1.905   6.919   4.196  1.00  0.00     0.235 C 
BRANCH  19  22
HETATM   22  C   UNL     1       1.907   7.803   7.284  1.00  0.00    -0.046 A 
HETATM   23  C   UNL     1       2.683   8.128   8.426  1.00  0.00    -0.055 A 
HETATM   24  C   UNL     1       3.675   9.264   8.477  1.00  0.00     0.049 C 
HETATM   25  C   UNL     1       2.563   7.353   9.596  1.00  0.00     0.007 A 
HETATM   26  C   UNL     1       1.651   6.306   9.677  1.00  0.00     0.001 A 
HETATM   27  C   UNL     1       0.837   6.025   8.591  1.00  0.00     0.001 A 
HETATM   28  C   UNL     1       0.958   6.768   7.414  1.00  0.00     0.008 A 
ENDBRANCH  19  22
ENDBRANCH  15  16
ENDBRANCH   1  15
TORSDOF 6
