REMARK  7 active torsions:
REMARK  status: ('A' for Active; 'I' for Inactive)
REMARK       I    between atoms: C_2  and  N_3 
REMARK    1  A    between atoms: N_3  and  C_4 
REMARK    2  A    between atoms: C_7  and  N_8 
REMARK       I    between atoms: N_8  and  C_9 
REMARK    3  A    between atoms: C_9  and  C_10 
REMARK    4  A    between atoms: C_10  and  S_11 
REMARK    5  A    between atoms: S_11  and  C_12 
REMARK    6  A    between atoms: N_13  and  N_14 
REMARK    7  A    between atoms: C_20  and  C_21 
ROOT
HETATM    1  C   UNL     1       0.872   4.156   4.134  1.00  0.00     0.206 A 
HETATM    2  N   UNL     1       1.275   4.491   2.865  1.00  0.00    -0.234 N 
HETATM    3  C   UNL     1       2.472   5.155   3.035  1.00  0.00     0.197 A 
HETATM    4  C   UNL     1       3.315   5.689   2.020  1.00  0.00     0.101 A 
HETATM    5  N   UNL     1       4.623   5.993   2.259  1.00  0.00    -0.274 N 
HETATM    6  H   UNL     1       5.131   5.885   3.131  1.00  0.00     0.189 HD
HETATM    7  N   UNL     1       5.276   6.473   1.188  1.00  0.00    -0.174 NA
HETATM    8  C   UNL     1       4.342   6.537   0.224  1.00  0.00     0.089 A 
HETATM    9  C   UNL     1       3.100   6.033   0.705  1.00  0.00     0.069 A 
HETATM   10  N   UNL     1       2.759   5.207   4.325  1.00  0.00    -0.125 NA
HETATM   11  N   UNL     1       1.734   4.605   5.018  1.00  0.00    -0.121 NA
ENDROOT
BRANCH   1  12
HETATM   12  S   UNL     1      -0.541   3.212   4.460  1.00  0.00    -0.080 SA
BRANCH  12  13
HETATM   13  C   UNL     1      -0.174   2.605   6.134  1.00  0.00     0.185 C 
BRANCH  13  14
HETATM   14  C   UNL     1       0.991   1.622   6.106  1.00  0.00     0.231 C 
HETATM   15  N   UNL     1       2.206   2.218   6.399  1.00  0.00    -0.327 N 
HETATM   16  H   UNL     1       2.204   3.235   6.457  1.00  0.00     0.169 HD
HETATM   17  O   UNL     1       0.811   0.440   5.824  1.00  0.00    -0.272 OA
BRANCH  15  18
HETATM   18  C   UNL     1       3.481   1.622   6.420  1.00  0.00     0.034 A 
HETATM   19  C   UNL     1       3.716   0.262   6.236  1.00  0.00     0.032 A 
HETATM   20  C   UNL     1       5.026  -0.243   6.231  1.00  0.00     0.032 A 
HETATM   21  C   UNL     1       6.118   0.603   6.412  1.00  0.00     0.034 A 
HETATM   22  C   UNL     1       5.875   1.960   6.648  1.00  0.00     0.032 A 
HETATM   23  C   UNL     1       4.572   2.467   6.638  1.00  0.00     0.032 A 
BRANCH  21  24
HETATM   24  N   UNL     1       7.462   0.196   6.419  1.00  0.00    -0.328 N 
HETATM   25  C   UNL     1       8.098  -0.925   5.975  1.00  0.00     0.218 C 
HETATM   26  C   UNL     1       7.387  -1.950   5.140  1.00  0.00     0.117 C 
HETATM   27  O   UNL     1       9.298  -1.057   6.235  1.00  0.00    -0.274 OA
HETATM   28  H   UNL     1       8.129   0.852   6.810  1.00  0.00     0.169 HD
ENDBRANCH  21  24
ENDBRANCH  15  18
ENDBRANCH  13  14
ENDBRANCH  12  13
ENDBRANCH   1  12
BRANCH   2  29
HETATM   29  N   UNL     1       0.630   4.140   1.623  1.00  0.00    -0.239 NA
HETATM   30  H   UNL     1      -0.342   3.877   1.794  1.00  0.00     0.143 HD
HETATM   31  H   UNL     1       1.064   3.306   1.227  1.00  0.00     0.143 HD
ENDBRANCH   2  29
BRANCH   8  32
HETATM   32  C   UNL     1       4.647   7.074  -1.106  1.00  0.00    -0.006 A 
HETATM   33  C   UNL     1       5.970   7.104  -1.574  1.00  0.00     0.015 A 
HETATM   34  C   UNL     1       6.272   7.624  -2.836  1.00  0.00     0.024 A 
HETATM   35  C   UNL     1       5.251   8.125  -3.639  1.00  0.00     0.034 A 
HETATM   36 CL   UNL     1       5.618   8.774  -5.189  1.00  0.00    -0.084 Cl
HETATM   37  C   UNL     1       3.932   8.106  -3.191  1.00  0.00     0.024 A 
HETATM   38  C   UNL     1       3.631   7.582  -1.930  1.00  0.00     0.015 A 
ENDBRANCH   8  32
TORSDOF 7
