REMARK  6 active torsions:
REMARK  status: ('A' for Active; 'I' for Inactive)
REMARK    1  A    between atoms: N_2  and  C_5 
REMARK    2  A    between atoms: C_10  and  N_11 
REMARK       I    between atoms: N_11  and  C_12 
REMARK    3  A    between atoms: C_12  and  C_14 
REMARK    4  A    between atoms: C_18  and  C_20 
REMARK       I    between atoms: N_24  and  C_25 
REMARK    5  A    between atoms: C_25  and  C_27 
REMARK    6  A    between atoms: C_32  and  O_33 
ROOT
HETATM    1  C   UNL     1       7.707  -5.291  -4.196  1.00  0.00     0.033 A 
HETATM    2  C   UNL     1       8.823  -5.151  -5.030  1.00  0.00     0.017 A 
HETATM    3  C   UNL     1       9.517  -6.275  -5.476  1.00  0.00     0.002 A 
HETATM    4  C   UNL     1       9.101  -7.549  -5.092  1.00  0.00     0.009 A 
HETATM    5  C   UNL     1       7.984  -7.717  -4.258  1.00  0.00    -0.034 A 
HETATM    6  C   UNL     1       7.279  -6.576  -3.832  1.00  0.00     0.026 A 
ENDROOT
BRANCH   5   7
HETATM    7  C   UNL     1       7.537  -9.091  -3.804  1.00  0.00     0.120 C 
HETATM    8  C   UNL     1       6.913  -9.894  -4.958  1.00  0.00     0.032 C 
HETATM    9  C   UNL     1       7.175 -11.339  -4.557  1.00  0.00     0.022 C 
HETATM   10  C   UNL     1       8.559 -11.269  -3.931  1.00  0.00     0.127 C 
HETATM   11  N   UNL     1       8.608  -9.960  -3.301  1.00  0.00    -0.339 N 
HETATM   12  C   UNL     1       9.492  -9.732  -2.261  1.00  0.00     0.254 C 
HETATM   13  O   UNL     1      10.325 -10.549  -1.881  1.00  0.00    -0.267 OA
BRANCH  12  14
HETATM   14  C   UNL     1       9.457  -8.421  -1.589  1.00  0.00     0.033 A 
HETATM   15  C   UNL     1      10.459  -7.496  -1.880  1.00  0.00     0.018 A 
HETATM   16  C   UNL     1      10.398  -6.220  -1.323  1.00  0.00     0.013 A 
HETATM   17  C   UNL     1       9.353  -5.869  -0.454  1.00  0.00    -0.023 A 
HETATM   18  C   UNL     1       9.271  -4.579   0.093  1.00  0.00     0.048 A 
HETATM   19  C   UNL     1       8.368  -6.833  -0.119  1.00  0.00    -0.025 A 
HETATM   20  C   UNL     1       8.238  -4.258   0.968  1.00  0.00     0.066 A 
HETATM   21  C   UNL     1       7.283  -5.202   1.320  1.00  0.00     0.037 A 
HETATM   22  C   UNL     1       7.344  -6.485   0.777  1.00  0.00     0.015 A 
HETATM   23  C   UNL     1       8.432  -8.112  -0.691  1.00  0.00     0.029 A 
BRANCH  20  24
HETATM   24  O   UNL     1       8.128  -3.010   1.509  1.00  0.00    -0.361 OA
HETATM   25  H   UNL     1       8.921  -2.501   1.266  1.00  0.00     0.217 HD
ENDBRANCH  20  24
ENDBRANCH  12  14
ENDBRANCH   5   7
BRANCH   1  26
HETATM   26  C   UNL     1       6.983  -4.053  -3.774  1.00  0.00     0.257 C 
HETATM   27  N   UNL     1       6.271  -4.146  -2.597  1.00  0.00    -0.301 N 
HETATM   28  H   UNL     1       6.351  -4.949  -1.992  1.00  0.00     0.171 HD
HETATM   29  O   UNL     1       7.079  -3.061  -4.489  1.00  0.00    -0.267 OA
BRANCH  27  30
HETATM   30  C   UNL     1       5.452  -3.135  -2.175  1.00  0.00     0.174 A 
HETATM   31  N   UNL     1       5.210  -1.973  -2.730  1.00  0.00    -0.228 NA
HETATM   32  C   UNL     1       4.296  -1.283  -1.980  1.00  0.00     0.050 A 
HETATM   33  C   UNL     1       3.846   0.078  -2.384  1.00  0.00     0.062 C 
HETATM   34  C   UNL     1       3.815  -1.955  -0.876  1.00  0.00     0.013 A 
HETATM   35  C   UNL     1       3.117   0.782  -1.224  1.00  0.00     0.039 C 
HETATM   36  C   UNL     1       2.113  -0.174  -0.542  1.00  0.00     0.192 C 
HETATM   37  C   UNL     1       2.808  -1.420   0.083  1.00  0.00     0.081 C 
HETATM   38  S   UNL     1       4.577  -3.474  -0.740  1.00  0.00    -0.055 SA
BRANCH  36  39
HETATM   39  N   UNL     1       1.251   0.549   0.501  1.00  0.00    -0.074 N 
HETATM   40  C   UNL     1       2.002   1.322   1.556  1.00  0.00     0.269 C 
HETATM   41  H   UNL     1       0.738  -0.189   1.005  1.00  0.00     0.279 HD
HETATM   42  C   UNL     1       0.176   1.406  -0.126  1.00  0.00     0.269 C 
ENDBRANCH  36  39
ENDBRANCH  27  30
ENDBRANCH   1  26
TORSDOF 6
