REMARK  7 active torsions:
REMARK  status: ('A' for Active; 'I' for Inactive)
REMARK    1  A    between atoms: C_2  and  N_3 
REMARK    2  A    between atoms: C_2  and  C_10 
REMARK    3  A    between atoms: C_10  and  N_11 
REMARK       I    between atoms: N_11  and  C_12 
REMARK       I    between atoms: C_12  and  N_13 
REMARK    4  A    between atoms: N_13  and  C_14 
REMARK    5  A    between atoms: C_14  and  C_15 
REMARK    6  A    between atoms: C_18  and  N_19 
REMARK       I    between atoms: N_19  and  C_20 
REMARK    7  A    between atoms: C_20  and  C_21 
ROOT
HETATM    1  N   UNL     1       2.403   1.306   2.163  1.00  0.00    -0.341 N 
HETATM    2  C   UNL     1       3.017   1.732   3.313  1.00  0.00     0.316 C 
HETATM    3  N   UNL     1       2.430   2.843   3.840  1.00  0.00    -0.339 N 
HETATM    4  O   UNL     1       4.016   1.187   3.761  1.00  0.00    -0.248 OA
HETATM    5  H   UNL     1       1.446   1.605   2.028  1.00  0.00     0.164 HD
HETATM    6  H   UNL     1       1.524   3.143   3.519  1.00  0.00     0.164 HD
ENDROOT
BRANCH   3   7
HETATM    7  C   UNL     1       2.951   3.483   5.031  1.00  0.00     0.162 C 
BRANCH   7   8
HETATM    8  C   UNL     1       2.224   3.130   6.307  1.00  0.00    -0.040 A 
HETATM    9  C   UNL     1       1.355   2.039   6.426  1.00  0.00     0.011 A 
HETATM   10  C   UNL     1       0.747   1.729   7.651  1.00  0.00     0.030 A 
HETATM   11  C   UNL     1       1.009   2.494   8.787  1.00  0.00     0.035 A 
HETATM   12  C   UNL     1       1.876   3.584   8.677  1.00  0.00     0.030 A 
HETATM   13  C   UNL     1       2.477   3.898   7.453  1.00  0.00     0.011 A 
BRANCH  11  14
HETATM   14  N   UNL     1       0.473   2.226  10.059  1.00  0.00    -0.321 N 
HETATM   15  C   UNL     1      -0.398   1.219  10.434  1.00  0.00     0.279 C 
HETATM   16  O   UNL     1      -0.905   0.397   9.677  1.00  0.00    -0.265 OA
HETATM   17  H   UNL     1       0.770   2.827  10.822  1.00  0.00     0.169 HD
BRANCH  15  18
HETATM   18  C   UNL     1      -0.666   1.223  11.862  1.00  0.00     0.142 A 
HETATM   19  O   UNL     1      -0.048   2.154  12.660  1.00  0.00    -0.317 OA
HETATM   20  C   UNL     1      -0.458   1.924  13.935  1.00  0.00     0.143 A 
HETATM   21  C   UNL     1      -1.333   0.865  13.977  1.00  0.00     0.027 A 
HETATM   22  C   UNL     1      -1.469   0.412  12.643  1.00  0.00     0.045 A 
ENDBRANCH  15  18
ENDBRANCH  11  14
ENDBRANCH   7   8
ENDBRANCH   3   7
BRANCH   1  23
HETATM   23  C   UNL     1       2.862   0.101   1.492  1.00  0.00     0.162 C 
BRANCH  23  24
HETATM   24  C   UNL     1       4.059   0.288   0.485  1.00  0.00     0.136 C 
HETATM   25  C   UNL     1       5.363   0.719   1.168  1.00  0.00     0.048 C 
HETATM   26  C   UNL     1       3.645   1.343  -0.563  1.00  0.00     0.048 C 
BRANCH  24  27
HETATM   27  N   UNL     1       4.300  -1.084  -0.279  1.00  0.00    -0.061 N 
HETATM   28  H   UNL     1       3.401  -1.299  -0.731  1.00  0.00     0.280 HD
HETATM   29  C   UNL     1       5.328  -1.020  -1.404  1.00  0.00     0.236 C 
HETATM   30  C   UNL     1       5.297  -2.313  -2.209  1.00  0.00     0.028 C 
HETATM   31  C   UNL     1       5.552  -3.529  -1.331  1.00  0.00     0.003 C 
HETATM   32  C   UNL     1       4.582  -3.560  -0.161  1.00  0.00     0.028 C 
HETATM   33  C   UNL     1       4.613  -2.263   0.638  1.00  0.00     0.236 C 
ENDBRANCH  24  27
ENDBRANCH  23  24
ENDBRANCH   1  23
TORSDOF 7
