REMARK  3 active torsions:
REMARK  status: ('A' for Active; 'I' for Inactive)
REMARK    1  A    between atoms: N_4  and  C_5 
REMARK    2  A    between atoms: C_16  and  C_17 
REMARK       I    between atoms: C_17  and  N_18 
REMARK    3  A    between atoms: N_18  and  C_19 
ROOT
HETATM    1  C   UNL     1       1.221  -0.515  -0.319  1.00  0.00     0.073 C 
HETATM    2  C   UNL     1       2.689  -0.329  -0.212  1.00  0.00     0.069 A 
HETATM    3  N   UNL     1       3.498  -1.387  -0.055  1.00  0.00    -0.170 NA
HETATM    4  N   UNL     1       4.767  -0.876  -0.040  1.00  0.00    -0.216 N 
HETATM    5  C   UNL     1       4.724   0.509  -0.045  1.00  0.00     0.145 A 
HETATM    6  C   UNL     1       3.408   0.878  -0.203  1.00  0.00     0.087 A 
HETATM    7  N   UNL     1       5.717   1.415   0.129  1.00  0.00    -0.349 N 
HETATM    8  C   UNL     1       5.376   2.758   0.159  1.00  0.00     0.111 A 
HETATM    9  C   UNL     1       4.128   3.246  -0.027  1.00  0.00     0.098 A 
HETATM   10  C   UNL     1       3.009   2.269  -0.265  1.00  0.00     0.205 A 
HETATM   11  O   UNL     1       1.856   2.633  -0.478  1.00  0.00    -0.286 OA
HETATM   12  H   UNL     1       6.639   1.179   0.494  1.00  0.00     0.167 HD
ENDROOT
BRANCH   9  13
HETATM   13  C   UNL     1       3.933   4.728   0.054  1.00  0.00     0.261 C 
HETATM   14  N   UNL     1       2.646   5.152  -0.202  1.00  0.00    -0.323 N 
HETATM   15  H   UNL     1       1.964   4.434  -0.449  1.00  0.00     0.169 HD
HETATM   16  O   UNL     1       4.886   5.453   0.327  1.00  0.00    -0.267 OA
BRANCH  14  17
HETATM   17  C   UNL     1       2.140   6.468  -0.156  1.00  0.00     0.035 A 
HETATM   18  C   UNL     1       2.884   7.581   0.239  1.00  0.00     0.029 A 
HETATM   19  C   UNL     1       2.296   8.850   0.272  1.00  0.00     0.002 A 
HETATM   20  C   UNL     1       0.962   9.017  -0.094  1.00  0.00     0.000 A 
HETATM   21  C   UNL     1       0.213   7.914  -0.491  1.00  0.00     0.002 A 
HETATM   22  C   UNL     1       0.798   6.646  -0.519  1.00  0.00     0.029 A 
ENDBRANCH  14  17
ENDBRANCH   9  13
BRANCH   4  23
HETATM   23  C   UNL     1       5.885  -1.760  -0.035  1.00  0.00     0.060 A 
HETATM   24  C   UNL     1       7.165  -1.333  -0.416  1.00  0.00     0.034 A 
HETATM   25  C   UNL     1       8.236  -2.232  -0.399  1.00  0.00     0.044 A 
HETATM   26  C   UNL     1       8.027  -3.551  -0.013  1.00  0.00     0.116 A 
HETATM   27  F   UNL     1       9.058  -4.405   0.000  1.00  0.00    -0.206 F 
HETATM   28  C   UNL     1       6.762  -3.997   0.345  1.00  0.00     0.044 A 
HETATM   29  C   UNL     1       5.687  -3.106   0.325  1.00  0.00     0.034 A 
ENDBRANCH   4  23
TORSDOF 3
