REMARK  4 active torsions:
REMARK  status: ('A' for Active; 'I' for Inactive)
REMARK    1  A    between atoms: C_9  and  C_10 
REMARK    2  A    between atoms: C_18  and  C_19 
REMARK       I    between atoms: C_19  and  N_20 
REMARK    3  A    between atoms: N_20  and  C_21 
REMARK    4  A    between atoms: C_24  and  O_25 
ROOT
HETATM    1  C   UNL     1       1.234   0.112   1.044  1.00  0.00     0.070 C 
HETATM    2  C   UNL     1       2.532  -0.035   0.292  1.00  0.00     0.037 A 
HETATM    3  N   UNL     1       3.146   1.157  -0.083  1.00  0.00    -0.192 N 
HETATM    4  C   UNL     1       4.374   1.219  -0.632  1.00  0.00     0.725 A 
HETATM    5  N   UNL     1       5.040   0.059  -0.923  1.00  0.00    -0.084 N 
HETATM    6  N   UNL     1       6.282   0.309  -1.390  1.00  0.00    -0.149 NA
HETATM    7  C   UNL     1       6.273   1.647  -1.404  1.00  0.00     0.275 A 
HETATM    8  N   UNL     1       5.126   2.243  -0.946  1.00  0.00    -0.054 NA
HETATM    9  C   UNL     1       4.516  -1.281  -0.634  1.00  0.00     0.204 A 
HETATM   10  C   UNL     1       3.143  -1.216   0.024  1.00  0.00     0.062 A 
HETATM   11  H   UNL     1       2.688   2.028   0.172  1.00  0.00     0.184 HD
ENDROOT
BRANCH  10  12
HETATM   12  C   UNL     1       2.620  -2.543   0.441  1.00  0.00     0.256 C 
HETATM   13  N   UNL     1       1.361  -2.815  -0.044  1.00  0.00    -0.323 N 
HETATM   14  H   UNL     1       0.923  -2.104  -0.618  1.00  0.00     0.169 HD
HETATM   15  O   UNL     1       3.347  -3.274   1.102  1.00  0.00    -0.267 OA
BRANCH  13  16
HETATM   16  C   UNL     1       0.601  -3.983   0.176  1.00  0.00     0.035 A 
HETATM   17  C   UNL     1       1.063  -5.092   0.883  1.00  0.00     0.032 A 
HETATM   18  C   UNL     1       0.240  -6.210   1.064  1.00  0.00     0.039 A 
HETATM   19  C   UNL     1      -1.056  -6.236   0.552  1.00  0.00     0.068 A 
HETATM   20  C   UNL     1      -1.523  -5.132  -0.159  1.00  0.00     0.039 A 
HETATM   21  C   UNL     1      -0.697  -4.016  -0.348  1.00  0.00     0.032 A 
BRANCH  19  22
HETATM   22  O   UNL     1      -1.750  -7.385   0.809  1.00  0.00    -0.356 OA
HETATM   23  C   UNL     1      -3.099  -7.438   0.364  1.00  0.00     0.210 C 
ENDBRANCH  19  22
ENDBRANCH  13  16
ENDBRANCH  10  12
BRANCH   9  24
HETATM   24  C   UNL     1       4.577  -2.178  -1.871  1.00  0.00    -0.006 A 
HETATM   25  C   UNL     1       3.882  -1.932  -3.070  1.00  0.00     0.044 A 
HETATM   26 CL   UNL     1       2.813  -0.591  -3.271  1.00  0.00    -0.084 Cl
HETATM   27  C   UNL     1       4.008  -2.798  -4.163  1.00  0.00     0.048 A 
HETATM   28  C   UNL     1       4.817  -3.925  -4.068  1.00  0.00     0.035 A 
HETATM   29 CL   UNL     1       4.965  -4.986  -5.414  1.00  0.00    -0.084 Cl
HETATM   30  C   UNL     1       5.501  -4.202  -2.891  1.00  0.00     0.024 A 
HETATM   31  C   UNL     1       5.382  -3.335  -1.802  1.00  0.00     0.013 A 
ENDBRANCH   9  24
TORSDOF 4
