REMARK  6 active torsions:
REMARK  status: ('A' for Active; 'I' for Inactive)
REMARK    1  A    between atoms: C_4  and  C_5 
REMARK    2  A    between atoms: C_9  and  C_10 
REMARK       I    between atoms: C_10  and  N_11 
REMARK    3  A    between atoms: N_11  and  N_12 
REMARK       I    between atoms: N_12  and  C_13 
REMARK    4  A    between atoms: C_13  and  C_14 
REMARK    5  A    between atoms: C_14  and  O_15 
REMARK    6  A    between atoms: O_15  and  C_16 
ROOT
HETATM    1  C   UNL     1       6.879  -2.501  -0.091  1.00  0.00     0.288 C 
HETATM    2  N   UNL     1       5.767  -2.657  -0.904  1.00  0.00    -0.262 N 
HETATM    3  O   UNL     1       6.880  -2.888   1.077  1.00  0.00    -0.264 OA
HETATM    4  H   UNL     1       5.905  -2.764  -1.909  1.00  0.00     0.190 HD
ENDROOT
BRANCH   2   5
HETATM    5  N   UNL     1       4.710  -3.445  -0.397  1.00  0.00    -0.265 N 
HETATM    6  C   UNL     1       4.375  -4.576  -1.117  1.00  0.00     0.260 C 
HETATM    7  O   UNL     1       4.806  -4.779  -2.253  1.00  0.00    -0.269 OA
HETATM    8  H   UNL     1       4.593  -3.448   0.618  1.00  0.00     0.190 HD
BRANCH   6   9
HETATM    9  C   UNL     1       3.479  -5.565  -0.380  1.00  0.00     0.280 C 
BRANCH   9  10
HETATM   10  O   UNL     1       2.693  -4.898   0.612  1.00  0.00    -0.341 OA
BRANCH  10  11
HETATM   11  C   UNL     1       1.445  -5.470   0.688  1.00  0.00     0.080 A 
HETATM   12  C   UNL     1       1.172  -6.489   1.625  1.00  0.00     0.007 A 
HETATM   13  C   UNL     1      -0.125  -7.054   1.638  1.00  0.00    -0.023 A 
HETATM   14  C   UNL     1       2.128  -6.971   2.545  1.00  0.00     0.015 A 
HETATM   15  C   UNL     1      -0.422  -8.086   2.544  1.00  0.00     0.012 A 
HETATM   16  C   UNL     1      -1.102  -6.573   0.749  1.00  0.00     0.012 A 
HETATM   17  C   UNL     1       0.542  -8.554   3.438  1.00  0.00     0.001 A 
HETATM   18  C   UNL     1       1.814  -7.994   3.442  1.00  0.00     0.001 A 
HETATM   19  C   UNL     1      -0.816  -5.537  -0.141  1.00  0.00     0.004 A 
HETATM   20  C   UNL     1       0.456  -4.979  -0.168  1.00  0.00     0.037 A 
ENDBRANCH  10  11
ENDBRANCH   9  10
ENDBRANCH   6   9
ENDBRANCH   2   5
BRANCH   1  21
HETATM   21  C   UNL     1       8.014  -1.880  -0.722  1.00  0.00     0.121 A 
HETATM   22  N   UNL     1       7.987  -1.078  -1.827  1.00  0.00    -0.272 N 
HETATM   23  N   UNL     1       9.183  -0.599  -2.191  1.00  0.00    -0.174 NA
HETATM   24  H   UNL     1       7.180  -0.790  -2.369  1.00  0.00     0.189 HD
HETATM   25  C   UNL     1      10.039  -1.094  -1.282  1.00  0.00     0.089 A 
HETATM   26  C   UNL     1       9.341  -1.893  -0.338  1.00  0.00     0.071 A 
BRANCH  25  27
HETATM   27  C   UNL     1      11.470  -0.787  -1.322  1.00  0.00    -0.006 A 
HETATM   28  C   UNL     1      11.923   0.409  -1.899  1.00  0.00     0.014 A 
HETATM   29  C   UNL     1      13.285   0.717  -1.926  1.00  0.00     0.001 A 
HETATM   30  C   UNL     1      14.211  -0.171  -1.384  1.00  0.00     0.000 A 
HETATM   31  C   UNL     1      13.777  -1.367  -0.816  1.00  0.00     0.001 A 
HETATM   32  C   UNL     1      12.413  -1.674  -0.783  1.00  0.00     0.014 A 
ENDBRANCH  25  27
ENDBRANCH   1  21
TORSDOF 6
