REMARK  4 active torsions:
REMARK  status: ('A' for Active; 'I' for Inactive)
REMARK    1  A    between atoms: C_2  and  C_3 
REMARK       I    between atoms: C_3  and  N_4 
REMARK    2  A    between atoms: N_4  and  C_5 
REMARK    3  A    between atoms: C_12  and  C_13 
REMARK       I    between atoms: C_13  and  N_14 
REMARK    4  A    between atoms: C_19  and  C_20 
ROOT
HETATM    1  C   UNL     1       5.652  -1.124  -2.279  1.00  0.00     0.036 A 
HETATM    2  C   UNL     1       6.351  -0.208  -3.087  1.00  0.00     0.046 A 
HETATM    3  C   UNL     1       7.445  -0.645  -3.861  1.00  0.00     0.030 A 
HETATM    4  C   UNL     1       7.810  -1.982  -3.808  1.00  0.00     0.063 A 
HETATM    5  N   UNL     1       8.883  -2.099  -4.646  1.00  0.00    -0.277 N 
HETATM    6  H   UNL     1       9.411  -2.940  -4.853  1.00  0.00     0.189 HD
HETATM    7  N   UNL     1       9.251  -0.951  -5.242  1.00  0.00    -0.168 NA
HETATM    8  C   UNL     1       8.369  -0.043  -4.765  1.00  0.00     0.156 A 
HETATM    9  C   UNL     1       7.139  -2.920  -3.020  1.00  0.00     0.034 A 
HETATM   10  C   UNL     1       6.053  -2.461  -2.258  1.00  0.00     0.032 A 
ENDROOT
BRANCH   1  11
HETATM   11  N   UNL     1       4.580  -0.600  -1.519  1.00  0.00    -0.323 N 
HETATM   12  C   UNL     1       3.734  -1.282  -0.663  1.00  0.00     0.251 C 
HETATM   13  O   UNL     1       3.758  -2.494  -0.485  1.00  0.00    -0.268 OA
HETATM   14  H   UNL     1       4.436   0.390  -1.640  1.00  0.00     0.169 HD
BRANCH  12  15
HETATM   15  C   UNL     1       2.745  -0.400   0.077  1.00  0.00     0.007 C 
HETATM   16  C   UNL     1       2.837   1.096  -0.086  1.00  0.00     0.054 C 
HETATM   17  C   UNL     1       1.780  -0.890   0.887  1.00  0.00     0.025 C 
BRANCH  17  18
HETATM   18  C   UNL     1       1.451  -2.282   1.238  1.00  0.00    -0.014 A 
HETATM   19  C   UNL     1       0.226  -2.868   0.874  1.00  0.00     0.044 A 
HETATM   20 CL   UNL     1      -0.948  -2.015  -0.072  1.00  0.00    -0.083 Cl
HETATM   21  C   UNL     1      -0.090  -4.169   1.281  1.00  0.00     0.024 A 
HETATM   22  C   UNL     1       0.810  -4.897   2.057  1.00  0.00     0.002 A 
HETATM   23  C   UNL     1       2.024  -4.325   2.430  1.00  0.00     0.001 A 
HETATM   24  C   UNL     1       2.338  -3.023   2.032  1.00  0.00     0.013 A 
ENDBRANCH  17  18
ENDBRANCH  12  15
ENDBRANCH   1  11
BRANCH   8  25
HETATM   25  C   UNL     1       8.421   1.367  -5.172  1.00  0.00     0.270 C 
HETATM   26  N   UNL     1       9.419   1.657  -6.062  1.00  0.00    -0.365 N 
HETATM   27  H   UNL     1      10.028   0.907  -6.368  1.00  0.00     0.159 HD
HETATM   28  H   UNL     1       9.532   2.598  -6.402  1.00  0.00     0.159 HD
HETATM   29  O   UNL     1       7.652   2.234  -4.769  1.00  0.00    -0.266 OA
ENDBRANCH   8  25
TORSDOF 4
