REMARK  6 active torsions:
REMARK  status: ('A' for Active; 'I' for Inactive)
REMARK    1  A    between atoms: C_2  and  N_3 
REMARK    2  A    between atoms: C_4  and  S_5 
REMARK    3  A    between atoms: S_5  and  C_6 
REMARK    4  A    between atoms: C_6  and  C_7 
REMARK       I    between atoms: C_7  and  N_8 
REMARK    5  A    between atoms: N_8  and  C_9 
REMARK    6  A    between atoms: C_23  and  C_24 
ROOT
HETATM    1  C   UNL     1       0.681   3.643   2.685  1.00  0.00     0.231 C 
HETATM    2  N   UNL     1       1.047   4.566   3.653  1.00  0.00    -0.325 N 
HETATM    3  O   UNL     1      -0.398   3.635   2.097  1.00  0.00    -0.272 OA
HETATM    4  H   UNL     1       2.033   4.833   3.630  1.00  0.00     0.169 HD
ENDROOT
BRANCH   2   5
HETATM    5  C   UNL     1       0.162   5.552   4.143  1.00  0.00     0.054 A 
HETATM    6  C   UNL     1      -1.108   5.250   4.715  1.00  0.00     0.040 A 
HETATM    7 BR   UNL     1      -1.673   3.463   5.069  1.00  0.00    -0.049 Br
HETATM    8  C   UNL     1      -1.950   6.267   5.191  1.00  0.00     0.053 A 
HETATM    9  C   UNL     1      -1.483   7.554   5.090  1.00  0.00     0.064 A 
HETATM   10  C   UNL     1      -0.229   7.852   4.563  1.00  0.00     0.065 A 
HETATM   11  N   UNL     1      -2.082   8.749   5.473  1.00  0.00    -0.306 N 
HETATM   12  N   UNL     1      -0.062   9.232   4.611  1.00  0.00    -0.306 N 
HETATM   13  C   UNL     1       0.624   6.878   4.102  1.00  0.00     0.063 A 
HETATM   14  C   UNL     1      -1.210   9.806   5.176  1.00  0.00     0.325 A 
HETATM   15  H   UNL     1       0.734   9.762   4.296  1.00  0.00     0.170 HD
HETATM   16  O   UNL     1      -1.410  10.991   5.371  1.00  0.00    -0.247 OA
HETATM   17  H   UNL     1      -2.989   8.873   5.892  1.00  0.00     0.170 HD
ENDBRANCH   2   5
BRANCH   1  18
HETATM   18  C   UNL     1       1.730   2.579   2.411  1.00  0.00     0.185 C 
BRANCH  18  19
HETATM   19  S   UNL     1       3.133   3.205   1.437  1.00  0.00    -0.081 SA
BRANCH  19  20
HETATM   20  C   UNL     1       4.107   3.821   2.720  1.00  0.00     0.192 A 
HETATM   21  N   UNL     1       5.174   3.176   3.276  1.00  0.00    -0.311 N 
HETATM   22  C   UNL     1       5.451   3.874   4.427  1.00  0.00     0.135 A 
HETATM   23  N   UNL     1       4.651   4.919   4.502  1.00  0.00    -0.134 NA
HETATM   24  N   UNL     1       3.809   4.888   3.422  1.00  0.00    -0.123 NA
BRANCH  21  25
HETATM   25  C   UNL     1       5.851   1.991   2.799  1.00  0.00     0.128 C 
HETATM   26  C   UNL     1       5.279   0.711   3.384  1.00  0.00     0.027 C 
ENDBRANCH  21  25
BRANCH  22  27
HETATM   27  C   UNL     1       6.468   3.508   5.500  1.00  0.00     0.057 A 
HETATM   28  C   UNL     1       7.121   4.624   6.286  1.00  0.00     0.013 A 
HETATM   29  C   UNL     1       6.084   3.780   6.942  1.00  0.00     0.013 A 
ENDBRANCH  22  27
ENDBRANCH  19  20
ENDBRANCH  18  19
ENDBRANCH   1  18
TORSDOF 6
