REMARK  11 active torsions:
REMARK  status: ('A' for Active; 'I' for Inactive)
REMARK    1  A    between atoms: C_6  and  O_9 
REMARK    2  A    between atoms: O_9  and  C_10 
REMARK    3  A    between atoms: C_10  and  C_12 
REMARK    4  A    between atoms: C_12  and  C_13 
REMARK    5  A    between atoms: C_16  and  N_17 
REMARK       I    between atoms: N_17  and  C_18 
REMARK    6  A    between atoms: C_18  and  C_20 
REMARK    7  A    between atoms: C_24  and  C_26 
REMARK    8  A    between atoms: C_28  and  C_34 
REMARK    9  A    between atoms: C_31  and  C_32 
REMARK   10  A    between atoms: C_32  and  N_33 
REMARK       I    between atoms: C_34  and  N_36 
REMARK   11  A    between atoms: N_36  and  C_37 
ROOT
HETATM    1  C   UNL     1      10.041   3.794  10.942  1.00  0.00     0.033 A 
HETATM    2  C   UNL     1      10.343   5.143  10.738  1.00  0.00     0.017 A 
HETATM    3  C   UNL     1      11.568   5.642  11.169  1.00  0.00     0.002 A 
HETATM    4  C   UNL     1      12.497   4.790  11.776  1.00  0.00     0.012 A 
HETATM    5  C   UNL     1      12.208   3.432  12.014  1.00  0.00    -0.024 A 
HETATM    6  C   UNL     1      10.939   2.964  11.631  1.00  0.00     0.029 A 
ENDROOT
BRANCH   1   7
HETATM    7  C   UNL     1       8.824   3.177  10.346  1.00  0.00     0.256 C 
HETATM    8  N   UNL     1       8.612   3.542   9.027  1.00  0.00    -0.323 N 
HETATM    9  H   UNL     1       9.291   4.169   8.616  1.00  0.00     0.169 HD
HETATM   10  O   UNL     1       8.184   2.373  11.009  1.00  0.00    -0.267 OA
BRANCH   8  11
HETATM   11  C   UNL     1       7.646   3.034   8.134  1.00  0.00     0.035 A 
HETATM   12  C   UNL     1       6.675   2.098   8.480  1.00  0.00     0.030 A 
HETATM   13  C   UNL     1       5.778   1.616   7.518  1.00  0.00     0.010 A 
HETATM   14  C   UNL     1       5.842   2.062   6.191  1.00  0.00    -0.049 A 
HETATM   15  C   UNL     1       6.804   3.018   5.850  1.00  0.00     0.010 A 
HETATM   16  C   UNL     1       7.697   3.497   6.813  1.00  0.00     0.030 A 
BRANCH  14  17
HETATM   17  C   UNL     1       4.876   1.539   5.158  1.00  0.00     0.149 C 
BRANCH  17  18
HETATM   18  C   UNL     1       3.631   2.386   5.017  1.00  0.00     0.263 C 
HETATM   19  O   UNL     1       3.563   3.601   5.138  1.00  0.00    -0.265 OA
BRANCH  18  20
HETATM   20  O   UNL     1       2.563   1.601   4.668  1.00  0.00    -0.316 OA
BRANCH  20  21
HETATM   21  C   UNL     1       1.303   2.289   4.579  1.00  0.00     0.135 C 
HETATM   22  C   UNL     1       1.162   2.972   3.219  1.00  0.00     0.060 C 
HETATM   23  C   UNL     1      -0.205   3.617   3.078  1.00  0.00     0.237 C 
HETATM   24  N   UNL     1      -1.304   2.605   3.307  1.00  0.00    -0.075 N 
HETATM   25  C   UNL     1      -1.529   1.681   2.139  1.00  0.00     0.269 C 
HETATM   26  C   UNL     1      -1.175   1.892   4.631  1.00  0.00     0.237 C 
HETATM   27  H   UNL     1      -2.173   3.154   3.373  1.00  0.00     0.279 HD
HETATM   28  C   UNL     1       0.196   1.255   4.774  1.00  0.00     0.060 C 
ENDBRANCH  20  21
ENDBRANCH  18  20
ENDBRANCH  17  18
ENDBRANCH  14  17
ENDBRANCH   8  11
ENDBRANCH   1   7
BRANCH   5  29
HETATM   29  C   UNL     1      13.234   2.533  12.605  1.00  0.00    -0.017 A 
HETATM   30  C   UNL     1      13.935   2.963  13.759  1.00  0.00     0.030 A 
HETATM   31  C   UNL     1      14.954   2.189  14.332  1.00  0.00     0.033 A 
HETATM   32  C   UNL     1      15.256   0.942  13.791  1.00  0.00     0.017 A 
HETATM   33  C   UNL     1      14.570   0.487  12.670  1.00  0.00     0.011 A 
HETATM   34  C   UNL     1      13.596   1.282  12.029  1.00  0.00    -0.020 A 
BRANCH  31  35
HETATM   35  C   UNL     1      15.810   2.690  15.442  1.00  0.00     0.256 C 
HETATM   36  O   UNL     1      16.993   2.370  15.445  1.00  0.00    -0.267 OA
HETATM   37  N   UNL     1      15.178   3.470  16.391  1.00  0.00    -0.320 N 
HETATM   38  H   UNL     1      14.165   3.524  16.369  1.00  0.00     0.169 HD
BRANCH  37  39
HETATM   39  C   UNL     1      15.794   4.124  17.486  1.00  0.00     0.076 A 
HETATM   40  C   UNL     1      17.172   4.194  17.683  1.00  0.00     0.052 A 
HETATM   41  C   UNL     1      17.652   4.877  18.794  1.00  0.00     0.118 A 
HETATM   42  N   UNL     1      16.863   5.486  19.707  1.00  0.00    -0.270 NA
HETATM   43  C   UNL     1      15.530   5.409  19.494  1.00  0.00     0.160 A 
HETATM   44  C   UNL     1      14.965   4.753  18.415  1.00  0.00     0.160 A 
HETATM   45  F   UNL     1      13.632   4.722  18.263  1.00  0.00    -0.202 F 
ENDBRANCH  37  39
ENDBRANCH  31  35
BRANCH  34  46
HETATM   46  C   UNL     1      12.965   0.755  10.751  1.00  0.00     0.306 C 
BRANCH  46  47
HETATM   47  N   UNL     1      13.874  -0.060   9.943  1.00  0.00     0.082 N 
HETATM   48  H   UNL     1      14.670   0.515   9.670  1.00  0.00     0.313 HD
HETATM   49  H   UNL     1      13.403  -0.327   9.081  1.00  0.00     0.313 HD
ENDBRANCH  46  47
ENDBRANCH  34  46
ENDBRANCH   5  29
TORSDOF 11
