REMARK  4 active torsions:
REMARK  status: ('A' for Active; 'I' for Inactive)
REMARK    1  A    between atoms: C_5  and  C_6 
REMARK    2  A    between atoms: C_6  and  N_7 
REMARK    3  A    between atoms: C_6  and  C_18 
REMARK    4  A    between atoms: N_7  and  C_8 
ROOT
HETATM    1  C   UNL     1       2.903   2.266   0.741  1.00  0.00     0.290 C 
ENDROOT
BRANCH   1   2
HETATM    2  C   UNL     1       2.102   3.512   0.422  1.00  0.00     0.021 A 
HETATM    3  C   UNL     1       2.642   4.600  -0.283  1.00  0.00     0.055 A 
HETATM    4  C   UNL     1       1.865   5.729  -0.530  1.00  0.00     0.117 A 
HETATM    5  C   UNL     1       0.552   5.812  -0.080  1.00  0.00     0.045 A 
HETATM    6  F   UNL     1       2.392   6.749  -1.219  1.00  0.00    -0.206 F 
HETATM    7  C   UNL     1       0.004   4.746   0.630  1.00  0.00     0.046 A 
HETATM    8  C   UNL     1       0.778   3.613   0.875  1.00  0.00     0.125 A 
HETATM    9  F   UNL     1       0.230   2.593   1.551  1.00  0.00    -0.205 F 
ENDBRANCH   1   2
BRANCH   1  10
HETATM   10  N   UNL     1       3.734   1.767  -0.383  1.00  0.00     0.101 N 
HETATM   11  H   UNL     1       4.320   1.022  -0.014  1.00  0.00     0.317 HD
BRANCH  10  12
HETATM   12  C   UNL     1       3.007   1.387  -1.601  1.00  0.00     0.225 C 
HETATM   13  C   UNL     1       2.087   0.155  -1.462  1.00  0.00     0.069 C 
HETATM   14  C   UNL     1       2.891  -1.122  -1.313  1.00  0.00     0.190 C 
HETATM   15  N   UNL     1       3.793  -1.265  -2.510  1.00  0.00    -0.067 N 
HETATM   16  C   UNL     1       2.126  -2.429  -1.366  1.00  0.00     0.035 C 
HETATM   17  H   UNL     1       3.210  -1.221  -3.360  1.00  0.00     0.280 HD
HETATM   18  C   UNL     1       4.801  -0.163  -2.609  1.00  0.00     0.237 C 
HETATM   19  C   UNL     1       4.316  -2.676  -2.442  1.00  0.00     0.235 C 
HETATM   20  C   UNL     1       4.043   1.157  -2.727  1.00  0.00     0.063 C 
HETATM   21  C   UNL     1       3.210  -3.448  -1.719  1.00  0.00     0.030 C 
ENDBRANCH  10  12
ENDBRANCH   1  10
BRANCH   1  22
HETATM   22  C   UNL     1       3.774   2.458   1.978  1.00  0.00    -0.018 A 
HETATM   23  C   UNL     1       3.374   1.924   3.210  1.00  0.00     0.029 A 
HETATM   24  C   UNL     1       4.190   2.106   4.316  1.00  0.00     0.116 A 
HETATM   25  N   UNL     1       5.359   2.777   4.280  1.00  0.00    -0.273 NA
HETATM   26  C   UNL     1       5.720   3.310   3.095  1.00  0.00     0.116 A 
HETATM   27  C   UNL     1       4.976   3.178   1.934  1.00  0.00     0.029 A 
ENDBRANCH   1  22
TORSDOF 4
