REMARK  6 active torsions:
REMARK  status: ('A' for Active; 'I' for Inactive)
REMARK    1  A    between atoms: C_2  and  N_3 
REMARK    2  A    between atoms: C_2  and  C_16 
REMARK    3  A    between atoms: N_3  and  C_6 
REMARK    4  A    between atoms: C_16  and  C_17 
REMARK       I    between atoms: C_17  and  N_18 
REMARK    5  A    between atoms: N_18  and  C_19 
REMARK    6  A    between atoms: C_21  and  O_22 
ROOT
HETATM    1  C   UNL     1       1.397   2.366  -2.681  1.00  0.00     0.040 C 
HETATM    2  C   UNL     1       0.397   2.283  -1.537  1.00  0.00     0.191 C 
ENDROOT
BRANCH   2   3
HETATM    3  N   UNL     1       1.102   2.084  -0.208  1.00  0.00    -0.063 N 
HETATM    4  H   UNL     1       0.324   2.023   0.480  1.00  0.00     0.278 HD
HETATM    5  H   UNL     1       1.546   1.159  -0.171  1.00  0.00     0.278 HD
BRANCH   3   6
HETATM    6  C   UNL     1       2.052   3.120   0.363  1.00  0.00     0.221 C 
HETATM    7  C   UNL     1       1.609   4.556   0.204  1.00  0.00    -0.011 A 
HETATM    8  C   UNL     1       2.475   5.567  -0.246  1.00  0.00     0.009 A 
HETATM    9  C   UNL     1       0.304   4.925   0.600  1.00  0.00     0.011 A 
HETATM   10  C   UNL     1       2.014   6.886  -0.364  1.00  0.00     0.019 A 
HETATM   11  S   UNL     1       4.183   5.278  -0.664  1.00  0.00    -0.129 SA
HETATM   12  C   UNL     1       0.712   7.222  -0.003  1.00  0.00     0.001 A 
HETATM   13  C   UNL     1      -0.141   6.242   0.488  1.00  0.00     0.001 A 
HETATM   14  C   UNL     1       4.493   3.796   0.322  1.00  0.00     0.082 C 
HETATM   15  C   UNL     1       3.477   2.742  -0.072  1.00  0.00     0.048 C 
ENDBRANCH   3   6
ENDBRANCH   2   3
BRANCH   2  16
HETATM   16  C   UNL     1      -0.581   1.108  -1.773  1.00  0.00     0.135 C 
BRANCH  16  17
HETATM   17  C   UNL     1      -1.589   0.998  -0.657  1.00  0.00     0.224 C 
HETATM   18  N   UNL     1      -2.649   0.154  -0.697  1.00  0.00    -0.327 N 
HETATM   19  H   UNL     1      -3.231   0.265   0.130  1.00  0.00     0.169 HD
HETATM   20  O   UNL     1      -1.406   1.666   0.372  1.00  0.00    -0.273 OA
BRANCH  18  21
HETATM   21  C   UNL     1      -3.083  -0.857  -1.580  1.00  0.00     0.037 A 
HETATM   22  C   UNL     1      -2.418  -1.286  -2.733  1.00  0.00     0.066 A 
HETATM   23  C   UNL     1      -2.935  -2.336  -3.506  1.00  0.00     0.070 A 
HETATM   24  C   UNL     1      -4.123  -2.959  -3.124  1.00  0.00     0.037 A 
HETATM   25  C   UNL     1      -4.799  -2.541  -1.984  1.00  0.00     0.005 A 
HETATM   26  C   UNL     1      -4.280  -1.497  -1.219  1.00  0.00     0.029 A 
BRANCH  23  27
HETATM   27  O   UNL     1      -2.375  -2.854  -4.641  1.00  0.00    -0.356 OA
HETATM   28  C   UNL     1      -1.181  -2.258  -5.126  1.00  0.00     0.210 C 
ENDBRANCH  23  27
ENDBRANCH  18  21
ENDBRANCH  16  17
ENDBRANCH   2  16
TORSDOF 6
