REMARK  6 active torsions:
REMARK  status: ('A' for Active; 'I' for Inactive)
REMARK    1  A    between atoms: N_9  and  C_10 
REMARK    2  A    between atoms: C_10  and  C_11 
REMARK       I    between atoms: C_11  and  N_12 
REMARK    3  A    between atoms: N_12  and  C_13 
REMARK    4  A    between atoms: C_16  and  C_17 
REMARK       I    between atoms: C_17  and  N_18 
REMARK    5  A    between atoms: N_18  and  C_19 
REMARK    6  A    between atoms: C_20  and  O_21 
ROOT
HETATM    1  C   UNL     1       6.659  -2.575   3.878  1.00  0.00     0.240 C 
HETATM    2  N   UNL     1       7.001  -2.023   2.653  1.00  0.00    -0.326 N 
HETATM    3  O   UNL     1       7.286  -2.423   4.925  1.00  0.00    -0.271 OA
HETATM    4  H   UNL     1       6.277  -2.016   1.938  1.00  0.00     0.169 HD
ENDROOT
BRANCH   2   5
HETATM    5  C   UNL     1       8.216  -1.398   2.307  1.00  0.00     0.034 A 
HETATM    6  C   UNL     1       9.316  -1.305   3.163  1.00  0.00     0.030 A 
HETATM    7  C   UNL     1      10.508  -0.707   2.735  1.00  0.00     0.019 A 
HETATM    8  C   UNL     1      10.612  -0.195   1.438  1.00  0.00     0.032 A 
HETATM    9  C   UNL     1       9.517  -0.291   0.574  1.00  0.00     0.019 A 
HETATM   10  C   UNL     1       8.325  -0.883   1.009  1.00  0.00     0.030 A 
BRANCH   8  11
HETATM   11  C   UNL     1      11.886   0.394   0.933  1.00  0.00     0.256 C 
HETATM   12  N   UNL     1      12.646   1.042   1.893  1.00  0.00    -0.321 N 
HETATM   13  H   UNL     1      12.141   1.414   2.686  1.00  0.00     0.169 HD
HETATM   14  O   UNL     1      12.119   0.346  -0.270  1.00  0.00    -0.267 OA
BRANCH  12  15
HETATM   15  C   UNL     1      13.971   1.500   1.712  1.00  0.00     0.068 A 
HETATM   16  C   UNL     1      14.930   0.839   0.924  1.00  0.00     0.095 A 
HETATM   17  C   UNL     1      16.220   1.375   0.802  1.00  0.00     0.039 A 
HETATM   18  C   UNL     1      16.559   2.557   1.462  1.00  0.00     0.003 A 
HETATM   19  C   UNL     1      15.625   3.192   2.274  1.00  0.00     0.002 A 
HETATM   20  C   UNL     1      14.341   2.658   2.411  1.00  0.00     0.032 A 
BRANCH  16  21
HETATM   21  O   UNL     1      14.640  -0.414   0.444  1.00  0.00    -0.354 OA
HETATM   22  C   UNL     1      15.084  -0.646  -0.889  1.00  0.00     0.210 C 
ENDBRANCH  16  21
ENDBRANCH  12  15
ENDBRANCH   8  11
ENDBRANCH   2   5
BRANCH   1  23
HETATM   23  C   UNL     1       5.297  -3.271   3.899  1.00  0.00     0.240 C 
BRANCH  23  24
HETATM   24  N   UNL     1       5.072  -4.131   2.754  1.00  0.00    -0.259 N 
HETATM   25  C   UNL     1       4.564  -3.721   1.568  1.00  0.00     0.326 A 
HETATM   26  N   UNL     1       4.397  -4.810   0.755  1.00  0.00    -0.324 N 
HETATM   27  O   UNL     1       4.357  -2.565   1.236  1.00  0.00    -0.247 OA
HETATM   28  C   UNL     1       4.950  -6.025   1.328  1.00  0.00     0.116 A 
HETATM   29  H   UNL     1       4.092  -4.701  -0.205  1.00  0.00     0.165 HD
HETATM   30  C   UNL     1       6.171  -6.469   0.516  1.00  0.00     0.041 C 
HETATM   31  C   UNL     1       5.362  -5.466   2.711  1.00  0.00     0.256 A 
HETATM   32  C   UNL     1       3.872  -7.103   1.462  1.00  0.00     0.041 C 
HETATM   33  C   UNL     1       6.695  -7.848   0.917  1.00  0.00     0.007 C 
HETATM   34  C   UNL     1       5.602  -8.922   0.966  1.00  0.00    -0.019 C 
HETATM   35  C   UNL     1       5.124  -9.315  -0.434  1.00  0.00     0.010 C 
HETATM   36  C   UNL     1       4.438  -8.469   1.856  1.00  0.00     0.007 C 
HETATM   37  O   UNL     1       5.874  -6.111   3.615  1.00  0.00    -0.270 OA
ENDBRANCH  23  24
ENDBRANCH   1  23
TORSDOF 6
