REMARK  10 active torsions:
REMARK  status: ('A' for Active; 'I' for Inactive)
REMARK    1  A    between atoms: N_1  and  C_2 
REMARK    2  A    between atoms: C_2  and  C_3 
REMARK    3  A    between atoms: C_6  and  C_33 
REMARK    4  A    between atoms: C_8  and  C_9 
REMARK    5  A    between atoms: C_13  and  C_15 
REMARK       I    between atoms: C_15  and  N_17 
REMARK    6  A    between atoms: N_17  and  C_18 
REMARK    7  A    between atoms: C_22  and  C_23 
REMARK    8  A    between atoms: C_23  and  O_25 
REMARK    9  A    between atoms: O_25  and  C_26 
REMARK       I    between atoms: C_33  and  N_35 
REMARK   10  A    between atoms: N_35  and  C_36 
ROOT
HETATM    1  C   UNL     1       3.228  -1.423  -2.487  1.00  0.00    -0.024 A 
HETATM    2  C   UNL     1       2.545  -2.178  -1.519  1.00  0.00     0.012 A 
HETATM    3  C   UNL     1       2.750  -3.557  -1.382  1.00  0.00     0.002 A 
HETATM    4  C   UNL     1       3.685  -4.212  -2.180  1.00  0.00     0.017 A 
HETATM    5  C   UNL     1       4.406  -3.480  -3.125  1.00  0.00     0.033 A 
HETATM    6  C   UNL     1       4.161  -2.108  -3.288  1.00  0.00     0.029 A 
ENDROOT
BRANCH   1   7
HETATM    7  C   UNL     1       3.051   0.046  -2.624  1.00  0.00    -0.017 A 
HETATM    8  C   UNL     1       1.794   0.696  -2.705  1.00  0.00    -0.020 A 
HETATM    9  C   UNL     1       1.746   2.102  -2.839  1.00  0.00     0.011 A 
HETATM   10  C   UNL     1       2.909   2.863  -2.940  1.00  0.00     0.017 A 
HETATM   11  C   UNL     1       4.153   2.241  -2.885  1.00  0.00     0.033 A 
HETATM   12  C   UNL     1       4.215   0.850  -2.717  1.00  0.00     0.030 A 
BRANCH   8  13
HETATM   13  C   UNL     1       0.465  -0.029  -2.690  1.00  0.00     0.306 C 
BRANCH  13  14
HETATM   14  N   UNL     1      -0.135  -0.023  -1.360  1.00  0.00     0.082 N 
HETATM   15  H   UNL     1      -1.074  -0.412  -1.419  1.00  0.00     0.313 HD
HETATM   16  H   UNL     1      -0.247   0.940  -1.047  1.00  0.00     0.313 HD
ENDBRANCH  13  14
ENDBRANCH   8  13
BRANCH  11  17
HETATM   17  C   UNL     1       5.374   3.071  -3.111  1.00  0.00     0.256 C 
HETATM   18  O   UNL     1       5.262   4.104  -3.763  1.00  0.00    -0.267 OA
HETATM   19  N   UNL     1       6.542   2.597  -2.546  1.00  0.00    -0.320 N 
HETATM   20  H   UNL     1       6.478   1.843  -1.870  1.00  0.00     0.169 HD
BRANCH  19  21
HETATM   21  C   UNL     1       7.850   3.092  -2.760  1.00  0.00     0.076 A 
HETATM   22  C   UNL     1       8.172   4.078  -3.690  1.00  0.00     0.052 A 
HETATM   23  C   UNL     1       9.503   4.453  -3.825  1.00  0.00     0.118 A 
HETATM   24  N   UNL     1      10.518   3.921  -3.107  1.00  0.00    -0.270 NA
HETATM   25  C   UNL     1      10.182   2.964  -2.213  1.00  0.00     0.160 A 
HETATM   26  C   UNL     1       8.884   2.527  -2.014  1.00  0.00     0.160 A 
HETATM   27  F   UNL     1       8.625   1.566  -1.114  1.00  0.00    -0.202 F 
ENDBRANCH  19  21
ENDBRANCH  11  17
ENDBRANCH   1   7
BRANCH   5  28
HETATM   28  C   UNL     1       5.540  -4.081  -3.872  1.00  0.00     0.256 C 
HETATM   29  O   UNL     1       6.537  -3.388  -4.050  1.00  0.00    -0.267 OA
HETATM   30  N   UNL     1       5.353  -5.373  -4.323  1.00  0.00    -0.320 N 
HETATM   31  H   UNL     1       4.405  -5.736  -4.346  1.00  0.00     0.169 HD
BRANCH  30  32
HETATM   32  C   UNL     1       6.340  -6.192  -4.924  1.00  0.00     0.075 A 
HETATM   33  C   UNL     1       7.709  -5.915  -4.849  1.00  0.00     0.033 A 
HETATM   34  C   UNL     1       8.639  -6.760  -5.458  1.00  0.00     0.003 A 
HETATM   35  C   UNL     1       8.206  -7.887  -6.153  1.00  0.00     0.021 A 
HETATM   36  C   UNL     1       6.839  -8.187  -6.229  1.00  0.00     0.080 A 
HETATM   37  C   UNL     1       5.916  -7.343  -5.605  1.00  0.00     0.159 A 
HETATM   38  F   UNL     1       4.596  -7.582  -5.678  1.00  0.00    -0.203 F 
BRANCH  36  39
HETATM   39  C   UNL     1       6.447  -9.372  -7.020  1.00  0.00     0.296 C 
HETATM   40  O   UNL     1       7.168  -9.853  -7.881  1.00  0.00    -0.259 OA
BRANCH  39  41
HETATM   41  O   UNL     1       5.247  -9.860  -6.627  1.00  0.00    -0.312 OA
BRANCH  41  42
HETATM   42  C   UNL     1       4.802 -11.015  -7.342  1.00  0.00     0.132 C 
HETATM   43  C   UNL     1       5.486 -12.292  -6.867  1.00  0.00     0.032 C 
HETATM   44  C   UNL     1       4.534 -13.377  -7.339  1.00  0.00     0.002 C 
HETATM   45  C   UNL     1       3.146 -12.792  -7.101  1.00  0.00     0.002 C 
HETATM   46  C   UNL     1       3.326 -11.275  -7.042  1.00  0.00     0.032 C 
ENDBRANCH  41  42
ENDBRANCH  39  41
ENDBRANCH  36  39
ENDBRANCH  30  32
ENDBRANCH   5  28
TORSDOF 10
