REMARK  6 active torsions:
REMARK  status: ('A' for Active; 'I' for Inactive)
REMARK    1  A    between atoms: C_7  and  S_8 
REMARK    2  A    between atoms: S_8  and  C_9 
REMARK    3  A    between atoms: C_9  and  C_10 
REMARK    4  A    between atoms: C_18  and  C_19 
REMARK    5  A    between atoms: C_29  and  C_30 
REMARK    6  A    between atoms: C_30  and  O_31 
ROOT
HETATM    1  C   UNL     1       1.006   0.277   0.081  1.00  0.00     0.070 C 
HETATM    2  C   UNL     1       2.505   0.151   0.181  1.00  0.00     0.037 A 
HETATM    3  N   UNL     1       3.201   1.347   0.289  1.00  0.00    -0.192 N 
HETATM    4  C   UNL     1       4.539   1.420   0.403  1.00  0.00     0.726 A 
HETATM    5  N   UNL     1       5.285   0.274   0.367  1.00  0.00    -0.082 N 
HETATM    6  N   UNL     1       6.606   0.550   0.448  1.00  0.00    -0.128 NA
HETATM    7  C   UNL     1       6.574   1.881   0.614  1.00  0.00     0.226 A 
HETATM    8  N   UNL     1       5.325   2.448   0.571  1.00  0.00    -0.035 NA
HETATM    9  C   UNL     1       4.711  -1.077   0.221  1.00  0.00     0.204 A 
HETATM   10  C   UNL     1       3.186  -1.021   0.150  1.00  0.00     0.070 A 
HETATM   11  H   UNL     1       2.660   2.207   0.336  1.00  0.00     0.184 HD
ENDROOT
BRANCH   9  12
HETATM   12  C   UNL     1       5.214  -2.002   1.338  1.00  0.00    -0.017 A 
HETATM   13  C   UNL     1       5.845  -3.259   1.071  1.00  0.00    -0.017 A 
HETATM   14  C   UNL     1       6.215  -4.078   2.171  1.00  0.00    -0.025 A 
HETATM   15  C   UNL     1       6.126  -3.769  -0.223  1.00  0.00     0.013 A 
HETATM   16  C   UNL     1       6.817  -5.330   1.959  1.00  0.00     0.012 A 
HETATM   17  C   UNL     1       5.976  -3.648   3.483  1.00  0.00     0.012 A 
HETATM   18  C   UNL     1       7.067  -5.800   0.673  1.00  0.00     0.001 A 
HETATM   19  C   UNL     1       6.723  -5.019  -0.418  1.00  0.00     0.001 A 
HETATM   20  C   UNL     1       5.367  -2.425   3.737  1.00  0.00     0.002 A 
HETATM   21  C   UNL     1       4.983  -1.614   2.678  1.00  0.00     0.010 A 
ENDBRANCH   9  12
BRANCH  10  22
HETATM   22  C   UNL     1       2.472  -2.311   0.114  1.00  0.00     0.293 C 
HETATM   23  O   UNL     1       1.537  -2.598   0.846  1.00  0.00    -0.259 OA
BRANCH  22  24
HETATM   24  O   UNL     1       3.009  -3.097  -0.849  1.00  0.00    -0.323 OA
HETATM   25  C   UNL     1       2.435  -4.405  -0.897  1.00  0.00     0.213 C 
ENDBRANCH  22  24
ENDBRANCH  10  22
BRANCH   7  26
HETATM   26  S   UNL     1       7.981   2.854   0.931  1.00  0.00    -0.083 SA
BRANCH  26  27
HETATM   27  C   UNL     1       9.328   1.690   0.592  1.00  0.00     0.123 C 
BRANCH  27  28
HETATM   28  C   UNL     1      10.666   2.297   0.956  1.00  0.00    -0.027 A 
HETATM   29  C   UNL     1      11.379   3.147   0.094  1.00  0.00     0.041 A 
HETATM   30 CL   UNL     1      10.811   3.529  -1.493  1.00  0.00    -0.084 Cl
HETATM   31  C   UNL     1      12.589   3.721   0.501  1.00  0.00     0.024 A 
HETATM   32  C   UNL     1      13.103   3.455   1.769  1.00  0.00     0.002 A 
HETATM   33  C   UNL     1      12.409   2.615   2.635  1.00  0.00     0.001 A 
HETATM   34  C   UNL     1      11.200   2.044   2.234  1.00  0.00     0.009 A 
ENDBRANCH  27  28
ENDBRANCH  26  27
ENDBRANCH   7  26
TORSDOF 6
