REMARK  2 active torsions:
REMARK  status: ('A' for Active; 'I' for Inactive)
REMARK    1  A    between atoms: N_8  and  N_9 
REMARK       I    between atoms: N_9  and  C_10 
REMARK    2  A    between atoms: C_10  and  C_11 
ROOT
HETATM    1  N   UNL     1       5.678   4.825  -0.410  1.00  0.00    -0.242 N 
HETATM    2  C   UNL     1       5.094   6.000   0.033  1.00  0.00     0.273 C 
HETATM    3  O   UNL     1       5.706   7.042   0.262  1.00  0.00    -0.266 OA
HETATM    4  H   UNL     1       5.132   3.994  -0.634  1.00  0.00     0.192 HD
ENDROOT
BRANCH   1   5
HETATM    5  N   UNL     1       7.021   4.810  -0.665  1.00  0.00    -0.166 NA
HETATM    6  C   UNL     1       7.559   3.671  -0.957  1.00  0.00     0.157 A 
HETATM    7  C   UNL     1       8.963   3.461  -1.286  1.00  0.00     0.027 A 
HETATM    8  C   UNL     1       6.908   2.288  -1.003  1.00  0.00     0.277 A 
HETATM    9  C   UNL     1       9.996   4.365  -1.433  1.00  0.00     0.023 A 
HETATM   10  C   UNL     1       9.130   2.090  -1.465  1.00  0.00     0.048 A 
HETATM   11  C   UNL     1      11.252   3.852  -1.787  1.00  0.00    -0.061 A 
HETATM   12  C   UNL     1      12.424   4.774  -1.969  1.00  0.00     0.048 C 
HETATM   13  C   UNL     1      11.425   2.454  -1.946  1.00  0.00     0.009 A 
HETATM   14  C   UNL     1      10.359   1.559  -1.788  1.00  0.00     0.031 A 
HETATM   15  N   UNL     1       7.928   1.407  -1.288  1.00  0.00    -0.321 N 
HETATM   16  H   UNL     1       7.795   0.411  -1.382  1.00  0.00     0.169 HD
HETATM   17  O   UNL     1       5.727   2.073  -0.827  1.00  0.00    -0.266 OA
ENDBRANCH   1   5
BRANCH   2  18
HETATM   18  C   UNL     1       3.618   6.010   0.176  1.00  0.00     0.058 A 
HETATM   19  C   UNL     1       2.844   4.991   0.728  1.00  0.00     0.047 A 
HETATM   20  C   UNL     1       3.412   3.724   1.293  1.00  0.00     0.071 C 
HETATM   21  N   UNL     1       1.485   5.080   0.815  1.00  0.00    -0.252 NA
HETATM   22  C   UNL     1       0.866   6.205   0.408  1.00  0.00     0.067 A 
HETATM   23  C   UNL     1       1.576   7.298  -0.120  1.00  0.00    -0.006 A 
HETATM   24  C   UNL     1      -0.514   6.312   0.516  1.00  0.00     0.032 A 
HETATM   25  C   UNL     1       2.964   7.180  -0.233  1.00  0.00     0.033 A 
HETATM   26  C   UNL     1       0.897   8.466  -0.512  1.00  0.00     0.014 A 
HETATM   27  C   UNL     1      -0.488   8.550  -0.386  1.00  0.00     0.001 A 
HETATM   28  C   UNL     1      -1.196   7.469   0.126  1.00  0.00     0.002 A 
ENDBRANCH   2  18
TORSDOF 2
