REMARK  4 active torsions:
REMARK  status: ('A' for Active; 'I' for Inactive)
REMARK    1  A    between atoms: C_9  and  C_10 
REMARK    2  A    between atoms: C_17  and  C_18 
REMARK       I    between atoms: C_18  and  N_19 
REMARK    3  A    between atoms: N_19  and  C_20 
REMARK    4  A    between atoms: C_23  and  O_24 
ROOT
HETATM    1  C   UNL     1       0.919  -0.188  -1.204  1.00  0.00     0.070 C 
HETATM    2  C   UNL     1       2.307  -0.068  -0.624  1.00  0.00     0.037 C 
HETATM    3  N   UNL     1       2.768   1.235  -0.454  1.00  0.00    -0.192 N 
HETATM    4  C   UNL     1       4.054   1.535  -0.186  1.00  0.00     0.725 A 
HETATM    5  N   UNL     1       4.932   0.525   0.101  1.00  0.00    -0.084 N 
HETATM    6  N   UNL     1       6.191   0.994   0.237  1.00  0.00    -0.149 NA
HETATM    7  C   UNL     1       5.982   2.306   0.078  1.00  0.00     0.275 A 
HETATM    8  N   UNL     1       4.688   2.679  -0.182  1.00  0.00    -0.054 NA
HETATM    9  C   UNL     1       4.571  -0.898   0.103  1.00  0.00     0.204 C 
HETATM   10  C   UNL     1       3.130  -1.114  -0.352  1.00  0.00     0.062 C 
HETATM   11  H   UNL     1       2.154   1.995  -0.738  1.00  0.00     0.184 HD
ENDROOT
BRANCH  10  12
HETATM   12  C   UNL     1       2.806  -2.533  -0.661  1.00  0.00     0.256 C 
HETATM   13  N   UNL     1       1.604  -2.970  -0.149  1.00  0.00    -0.323 N 
HETATM   14  H   UNL     1       1.100  -2.334   0.456  1.00  0.00     0.169 HD
HETATM   15  O   UNL     1       3.622  -3.187  -1.298  1.00  0.00    -0.267 OA
BRANCH  13  16
HETATM   16  C   UNL     1       0.961  -4.196  -0.435  1.00  0.00     0.035 A 
HETATM   17  C   UNL     1       1.495  -5.179  -1.267  1.00  0.00     0.032 A 
HETATM   18  C   UNL     1       0.775  -6.348  -1.539  1.00  0.00     0.039 A 
HETATM   19  C   UNL     1      -0.487  -6.557  -0.986  1.00  0.00     0.068 A 
HETATM   20  C   UNL     1      -1.029  -5.580  -0.153  1.00  0.00     0.039 A 
HETATM   21  C   UNL     1      -0.307  -4.409   0.122  1.00  0.00     0.032 A 
BRANCH  19  22
HETATM   22  O   UNL     1      -1.078  -7.736  -1.342  1.00  0.00    -0.356 OA
HETATM   23  C   UNL     1      -2.311  -8.056  -0.712  1.00  0.00     0.210 C 
ENDBRANCH  19  22
ENDBRANCH  13  16
ENDBRANCH  10  12
BRANCH   9  24
HETATM   24  C   UNL     1       4.920  -1.550   1.441  1.00  0.00    -0.006 A 
HETATM   25  C   UNL     1       4.392  -1.162   2.685  1.00  0.00     0.042 A 
HETATM   26 CL   UNL     1       3.186   0.062   2.856  1.00  0.00    -0.084 Cl
HETATM   27  C   UNL     1       4.818  -1.782   3.868  1.00  0.00     0.024 A 
HETATM   28  C   UNL     1       5.759  -2.808   3.831  1.00  0.00     0.002 A 
HETATM   29  C   UNL     1       6.273  -3.225   2.609  1.00  0.00     0.001 A 
HETATM   30  C   UNL     1       5.858  -2.604   1.429  1.00  0.00     0.011 A 
ENDBRANCH   9  24
TORSDOF 4
