REMARK  7 active torsions:
REMARK  status: ('A' for Active; 'I' for Inactive)
REMARK    1  A    between atoms: C_5  and  C_6 
REMARK    2  A    between atoms: C_10  and  C_11 
REMARK       I    between atoms: C_11  and  N_12 
REMARK    3  A    between atoms: N_12  and  N_13 
REMARK       I    between atoms: N_13  and  C_14 
REMARK       I    between atoms: C_14  and  N_15 
REMARK    4  A    between atoms: N_15  and  C_16 
REMARK    5  A    between atoms: C_16  and  C_17 
REMARK    6  A    between atoms: C_17  and  C_18 
REMARK    7  A    between atoms: C_21  and  O_22 
ROOT
HETATM    1  C   UNL     1       9.301  -1.347  -2.217  1.00  0.00     0.288 C 
HETATM    2  N   UNL     1       9.179  -2.688  -2.505  1.00  0.00    -0.261 N 
HETATM    3  O   UNL     1       8.560  -0.784  -1.412  1.00  0.00    -0.264 OA
HETATM    4  H   UNL     1       9.822  -3.207  -3.096  1.00  0.00     0.190 HD
ENDROOT
BRANCH   2   5
HETATM    5  N   UNL     1       8.113  -3.415  -1.953  1.00  0.00    -0.249 N 
HETATM    6  C   UNL     1       8.264  -4.784  -1.881  1.00  0.00     0.335 C 
HETATM    7  N   UNL     1       7.175  -5.387  -1.311  1.00  0.00    -0.337 N 
HETATM    8  O   UNL     1       9.246  -5.376  -2.316  1.00  0.00    -0.246 OA
HETATM    9  H   UNL     1       6.322  -4.847  -1.287  1.00  0.00     0.164 HD
HETATM   10  H   UNL     1       7.634  -2.951  -1.184  1.00  0.00     0.192 HD
BRANCH   7  11
HETATM   11  C   UNL     1       7.077  -6.834  -1.149  1.00  0.00     0.086 C 
HETATM   12  C   UNL     1       6.869  -7.522  -2.502  1.00  0.00     0.032 C 
BRANCH  11  13
HETATM   13  C   UNL     1       5.922  -7.217  -0.197  1.00  0.00     0.063 C 
BRANCH  13  14
HETATM   14  C   UNL     1       5.907  -6.533   1.154  1.00  0.00    -0.056 A 
HETATM   15  C   UNL     1       4.683  -6.105   1.696  1.00  0.00     0.010 A 
HETATM   16  C   UNL     1       4.629  -5.490   2.949  1.00  0.00     0.037 A 
HETATM   17  C   UNL     1       5.802  -5.312   3.672  1.00  0.00     0.065 A 
HETATM   18  C   UNL     1       7.021  -5.743   3.163  1.00  0.00     0.037 A 
HETATM   19  C   UNL     1       7.073  -6.360   1.912  1.00  0.00     0.010 A 
BRANCH  17  20
HETATM   20  O   UNL     1       5.798  -4.717   4.898  1.00  0.00    -0.361 OA
HETATM   21  H   UNL     1       4.885  -4.475   5.123  1.00  0.00     0.217 HD
ENDBRANCH  17  20
ENDBRANCH  13  14
ENDBRANCH  11  13
ENDBRANCH   7  11
ENDBRANCH   2   5
BRANCH   1  22
HETATM   22  C   UNL     1      10.328  -0.652  -2.941  1.00  0.00     0.121 A 
HETATM   23  N   UNL     1      10.556   0.684  -2.764  1.00  0.00    -0.272 N 
HETATM   24  N   UNL     1      11.481   1.198  -3.586  1.00  0.00    -0.174 NA
HETATM   25  H   UNL     1      10.078   1.302  -2.115  1.00  0.00     0.189 HD
HETATM   26  C   UNL     1      11.905   0.154  -4.316  1.00  0.00     0.089 A 
HETATM   27  C   UNL     1      11.225  -1.032  -3.920  1.00  0.00     0.071 A 
BRANCH  26  28
HETATM   28  C   UNL     1      12.891   0.307  -5.387  1.00  0.00    -0.006 A 
HETATM   29  C   UNL     1      13.699  -0.765  -5.787  1.00  0.00     0.014 A 
HETATM   30  C   UNL     1      14.601  -0.621  -6.848  1.00  0.00     0.007 A 
HETATM   31  C   UNL     1      14.716   0.599  -7.522  1.00  0.00    -0.062 A 
HETATM   32  C   UNL     1      15.642   0.737  -8.694  1.00  0.00     0.048 C 
HETATM   33  C   UNL     1      13.911   1.672  -7.126  1.00  0.00     0.007 A 
HETATM   34  C   UNL     1      13.014   1.529  -6.063  1.00  0.00     0.014 A 
ENDBRANCH  26  28
ENDBRANCH   1  22
TORSDOF 7
