REMARK  6 active torsions:
REMARK  status: ('A' for Active; 'I' for Inactive)
REMARK    1  A    between atoms: O_2  and  C_3 
REMARK    2  A    between atoms: C_6  and  S_7 
REMARK    3  A    between atoms: S_7  and  C_8 
REMARK    4  A    between atoms: C_11  and  N_12 
REMARK       I    between atoms: N_12  and  C_13 
REMARK    5  A    between atoms: C_13  and  C_14 
REMARK    6  A    between atoms: C_14  and  C_15 
ROOT
HETATM    1  C   UNL     1       5.074  -5.887   2.000  1.00  0.00     0.005 A 
HETATM    2  C   UNL     1       5.056  -6.984   2.863  1.00  0.00     0.021 A 
HETATM    3  C   UNL     1       4.597  -8.232   2.424  1.00  0.00     0.031 A 
HETATM    4  C   UNL     1       4.133  -8.396   1.118  1.00  0.00     0.034 A 
HETATM    5  C   UNL     1       4.160  -7.296   0.251  1.00  0.00     0.031 A 
HETATM    6  C   UNL     1       4.628  -6.050   0.687  1.00  0.00     0.021 A 
ENDROOT
BRANCH   4   7
HETATM    7  N   UNL     1       3.583  -9.598   0.624  1.00  0.00    -0.327 N 
HETATM    8  C   UNL     1       3.491 -10.813   1.281  1.00  0.00     0.227 C 
HETATM    9  O   UNL     1       4.022 -11.100   2.354  1.00  0.00    -0.273 OA
HETATM   10  H   UNL     1       3.231  -9.565  -0.325  1.00  0.00     0.169 HD
BRANCH   8  11
HETATM   11  C   UNL     1       2.639 -11.840   0.537  1.00  0.00     0.159 C 
BRANCH  11  12
HETATM   12  C   UNL     1       3.448 -13.016   0.093  1.00  0.00     0.017 A 
HETATM   13  N   UNL     1       4.441 -13.562   0.877  1.00  0.00    -0.369 N 
HETATM   14  H   UNL     1       4.723 -13.204   1.785  1.00  0.00     0.165 HD
HETATM   15  C   UNL     1       4.992 -14.639   0.235  1.00  0.00     0.088 A 
HETATM   16  C   UNL     1       4.339 -14.801  -0.965  1.00  0.00     0.019 A 
HETATM   17  C   UNL     1       3.364 -13.779  -1.056  1.00  0.00     0.027 A 
ENDBRANCH  11  12
ENDBRANCH   8  11
ENDBRANCH   4   7
BRANCH   1  18
HETATM   18  S   UNL     1       5.556  -4.287   2.607  1.00  0.00    -0.091 SA
BRANCH  18  19
HETATM   19  C   UNL     1       7.241  -4.098   2.054  1.00  0.00     0.005 A 
HETATM   20  C   UNL     1       7.690  -2.808   1.754  1.00  0.00     0.021 A 
HETATM   21  C   UNL     1       9.020  -2.583   1.386  1.00  0.00     0.038 A 
HETATM   22  C   UNL     1       9.927  -3.641   1.325  1.00  0.00     0.068 A 
HETATM   23  C   UNL     1       9.485  -4.932   1.610  1.00  0.00     0.038 A 
HETATM   24  C   UNL     1       8.151  -5.157   1.978  1.00  0.00     0.021 A 
BRANCH  22  25
HETATM   25  O   UNL     1      11.200  -3.285   0.977  1.00  0.00    -0.356 OA
HETATM   26  C   UNL     1      12.206  -4.278   1.133  1.00  0.00     0.210 C 
ENDBRANCH  22  25
ENDBRANCH  18  19
ENDBRANCH   1  18
TORSDOF 6
