REMARK  6 active torsions:
REMARK  status: ('A' for Active; 'I' for Inactive)
REMARK    1  A    between atoms: C_2  and  N_3 
REMARK       I    between atoms: N_3  and  C_4 
REMARK    2  A    between atoms: C_4  and  C_5 
REMARK    3  A    between atoms: C_13  and  N_14 
REMARK       I    between atoms: N_14  and  C_15 
REMARK    4  A    between atoms: C_15  and  C_16 
REMARK    5  A    between atoms: C_24  and  C_25 
REMARK       I    between atoms: C_25  and  N_26 
REMARK    6  A    between atoms: N_26  and  C_27 
ROOT
HETATM    1  C   UNL     1      -0.704   1.214   0.705  1.00  0.00     0.046 A 
HETATM    2  C   UNL     1       0.663   1.346   0.442  1.00  0.00     0.037 A 
HETATM    3  C   UNL     1       1.466   0.198   0.380  1.00  0.00     0.059 A 
HETATM    4  C   UNL     1       0.924  -1.072   0.572  1.00  0.00     0.037 A 
HETATM    5  C   UNL     1      -0.447  -1.187   0.822  1.00  0.00     0.046 A 
HETATM    6  C   UNL     1      -1.274  -0.052   0.889  1.00  0.00     0.036 A 
ENDROOT
BRANCH   6   7
HETATM    7  C   UNL     1      -2.736  -0.285   1.142  1.00  0.00     0.256 C 
HETATM    8  N   UNL     1      -3.576   0.812   1.134  1.00  0.00    -0.317 N 
HETATM    9  H   UNL     1      -3.196   1.743   0.985  1.00  0.00     0.169 HD
HETATM   10  O   UNL     1      -3.114  -1.439   1.333  1.00  0.00    -0.267 OA
BRANCH   8  11
HETATM   11  C   UNL     1      -4.949   0.824   1.298  1.00  0.00     0.119 A 
HETATM   12  C   UNL     1      -5.603   2.174   1.245  1.00  0.00     0.277 A 
HETATM   13  O   UNL     1      -4.929   3.187   1.070  1.00  0.00    -0.266 OA
HETATM   14  N   UNL     1      -6.960   2.213   1.397  1.00  0.00    -0.274 N 
HETATM   15  C   UNL     1      -7.759   1.123   1.583  1.00  0.00     0.327 A 
HETATM   16  H   UNL     1      -7.409   3.114   1.360  1.00  0.00     0.173 HD
HETATM   17  O   UNL     1      -8.975   1.214   1.703  1.00  0.00    -0.247 OA
HETATM   18  N   UNL     1      -7.113  -0.081   1.624  1.00  0.00    -0.316 N 
HETATM   19  C   UNL     1      -5.757  -0.228   1.488  1.00  0.00     0.128 A 
HETATM   20  H   UNL     1      -7.701  -0.896   1.762  1.00  0.00     0.170 HD
ENDBRANCH   8  11
ENDBRANCH   6   7
BRANCH   2  21
HETATM   21  N   UNL     1       1.309   2.582   0.220  1.00  0.00    -0.327 N 
HETATM   22  C   UNL     1       0.745   3.848   0.213  1.00  0.00     0.226 C 
HETATM   23  O   UNL     1      -0.442   4.095   0.395  1.00  0.00    -0.273 OA
HETATM   24  H   UNL     1       2.301   2.525   0.017  1.00  0.00     0.169 HD
BRANCH  22  25
HETATM   25  C   UNL     1       1.773   4.951  -0.093  1.00  0.00     0.078 C 
HETATM   26  C   UNL     1       1.109   6.321  -0.310  1.00  0.00     0.014 C 
HETATM   27  C   UNL     1       0.667   6.998   0.988  1.00  0.00     0.001 C 
HETATM   28  C   UNL     1       1.794   7.062   2.011  1.00  0.00     0.000 C 
HETATM   29  C   UNL     1       2.393   5.684   2.268  1.00  0.00     0.001 C 
HETATM   30  C   UNL     1       2.876   5.036   0.973  1.00  0.00     0.014 C 
ENDBRANCH  22  25
ENDBRANCH   2  21
BRANCH   4  31
HETATM   31  N   UNL     1       1.671  -2.268   0.512  1.00  0.00    -0.327 N 
HETATM   32  C   UNL     1       3.039  -2.404   0.325  1.00  0.00     0.226 C 
HETATM   33  O   UNL     1       3.841  -1.479   0.246  1.00  0.00    -0.273 OA
HETATM   34  H   UNL     1       1.145  -3.124   0.649  1.00  0.00     0.169 HD
BRANCH  32  35
HETATM   35  C   UNL     1       3.476  -3.875   0.240  1.00  0.00     0.078 C 
HETATM   36  C   UNL     1       2.892  -4.571  -0.999  1.00  0.00     0.014 C 
HETATM   37  C   UNL     1       3.596  -4.157  -2.289  1.00  0.00     0.001 C 
HETATM   38  C   UNL     1       5.099  -4.395  -2.205  1.00  0.00     0.000 C 
HETATM   39  C   UNL     1       5.712  -3.681  -1.006  1.00  0.00     0.001 C 
HETATM   40  C   UNL     1       5.003  -4.039   0.300  1.00  0.00     0.014 C 
ENDBRANCH  32  35
ENDBRANCH   4  31
TORSDOF 6
