REMARK  4 active torsions:
REMARK  status: ('A' for Active; 'I' for Inactive)
REMARK    1  A    between atoms: C_9  and  N_10 
REMARK       I    between atoms: N_10  and  C_11 
REMARK    2  A    between atoms: C_11  and  C_12 
REMARK    3  A    between atoms: C_14  and  C_15 
REMARK    4  A    between atoms: C_22  and  O_23 
ROOT
HETATM    1  N   UNL     1       5.728  -2.286   4.642  1.00  0.00    -0.322 N 
HETATM    2  C   UNL     1       6.744  -2.231   5.589  1.00  0.00     0.265 C 
HETATM    3  O   UNL     1       7.414  -3.205   5.925  1.00  0.00    -0.267 OA
HETATM    4  H   UNL     1       5.364  -1.388   4.346  1.00  0.00     0.169 HD
ENDROOT
BRANCH   2   5
HETATM    5  C   UNL     1       6.965  -0.900   6.134  1.00  0.00     0.107 A 
HETATM    6  S   UNL     1       5.628   0.059   6.615  1.00  0.00    -0.081 SA
HETATM    7  C   UNL     1       6.638   1.288   7.247  1.00  0.00     0.018 A 
HETATM    8  C   UNL     1       7.972   0.994   7.036  1.00  0.00     0.058 A 
HETATM    9  C   UNL     1       8.164  -0.264   6.387  1.00  0.00     0.092 A 
BRANCH   7  10
HETATM   10  C   UNL     1       6.057   2.439   7.945  1.00  0.00    -0.019 A 
HETATM   11  C   UNL     1       6.499   2.763   9.237  1.00  0.00     0.013 A 
HETATM   12  C   UNL     1       5.959   3.854   9.922  1.00  0.00     0.001 A 
HETATM   13  C   UNL     1       4.976   4.637   9.319  1.00  0.00     0.000 A 
HETATM   14  C   UNL     1       4.534   4.330   8.034  1.00  0.00     0.001 A 
HETATM   15  C   UNL     1       5.071   3.237   7.349  1.00  0.00     0.013 A 
ENDBRANCH   7  10
BRANCH   9  16
HETATM   16  O   UNL     1       9.329  -0.855   6.016  1.00  0.00    -0.354 OA
HETATM   17  C   UNL     1      10.496  -0.073   6.231  1.00  0.00     0.210 C 
ENDBRANCH   9  16
ENDBRANCH   2   5
BRANCH   1  18
HETATM   18  C   UNL     1       5.198  -3.434   4.024  1.00  0.00     0.035 A 
HETATM   19  C   UNL     1       5.468  -4.734   4.463  1.00  0.00     0.039 A 
HETATM   20  C   UNL     1       4.866  -5.802   3.814  1.00  0.00    -0.022 A 
HETATM   21  C   UNL     1       4.968  -7.246   4.157  1.00  0.00     0.274 C 
HETATM   22  C   UNL     1       4.010  -5.603   2.731  1.00  0.00    -0.025 A 
HETATM   23  N   UNL     1       4.202  -7.971   3.054  1.00  0.00    -0.067 N 
HETATM   24  C   UNL     1       3.319  -9.062   3.548  1.00  0.00     0.270 C 
HETATM   25  H   UNL     1       4.913  -8.375   2.434  1.00  0.00     0.280 HD
HETATM   26  C   UNL     1       3.477  -6.903   2.239  1.00  0.00     0.273 C 
HETATM   27  C   UNL     1       3.729  -4.325   2.279  1.00  0.00     0.012 A 
HETATM   28  C   UNL     1       4.321  -3.241   2.939  1.00  0.00     0.030 A 
ENDBRANCH   1  18
TORSDOF 4
