REMARK  2 active torsions:
REMARK  status: ('A' for Active; 'I' for Inactive)
REMARK    1  A    between atoms: C_2  and  C_3 
REMARK    2  A    between atoms: C_6  and  C_7 
ROOT
HETATM    1  C   UNL     1       4.571   1.970   5.056  1.00  0.00     0.119 C 
HETATM    2  S   UNL     1       3.599   3.284   5.832  1.00  0.00    -0.141 SA
HETATM    3  C   UNL     1       4.676   4.743   5.837  1.00  0.00     0.136 C 
HETATM    4  C   UNL     1       5.786   4.704   6.880  1.00  0.00     0.031 C 
HETATM    5  C   UNL     1       5.130   5.165   4.456  1.00  0.00     0.236 C 
HETATM    6  O   UNL     1       4.734   6.175   3.890  1.00  0.00    -0.272 OA
HETATM    7  N   UNL     1       6.146   4.464   3.744  1.00  0.00    -0.311 N 
HETATM    8  C   UNL     1       6.652   3.237   4.097  1.00  0.00     0.134 C 
HETATM    9  C   UNL     1       6.010   2.189   4.725  1.00  0.00     0.032 C 
HETATM   10  N   UNL     1       7.923   2.811   3.825  1.00  0.00    -0.262 N 
HETATM   11  H   UNL     1       8.660   3.298   3.327  1.00  0.00     0.191 HD
HETATM   12  N   UNL     1       8.222   1.641   4.395  1.00  0.00    -0.178 NA
HETATM   13  C   UNL     1       7.064   1.233   4.925  1.00  0.00     0.062 C 
HETATM   14  C   UNL     1       6.999  -0.094   5.595  1.00  0.00     0.073 C 
HETATM   15  H   UNL     1       6.540   4.973   2.960  1.00  0.00     0.170 HD
ENDROOT
BRANCH   1  16
HETATM   16  C   UNL     1       3.943   1.450   3.766  1.00  0.00    -0.040 A 
HETATM   17  C   UNL     1       3.607   2.288   2.687  1.00  0.00     0.009 A 
HETATM   18  C   UNL     1       3.087   1.764   1.500  1.00  0.00     0.007 A 
HETATM   19  C   UNL     1       2.877   0.389   1.361  1.00  0.00    -0.059 A 
HETATM   20  C   UNL     1       3.186  -0.453   2.433  1.00  0.00     0.007 A 
HETATM   21  C   UNL     1       3.707   0.071   3.619  1.00  0.00     0.009 A 
BRANCH  19  22
HETATM   22  C   UNL     1       2.360  -0.179   0.064  1.00  0.00     0.034 C 
HETATM   23  C   UNL     1       3.498  -0.542  -0.879  1.00  0.00     0.010 C 
ENDBRANCH  19  22
ENDBRANCH   1  16
TORSDOF 2
