REMARK  8 active torsions:
REMARK  status: ('A' for Active; 'I' for Inactive)
REMARK    1  A    between atoms: C_8  and  C_9 
REMARK    2  A    between atoms: C_9  and  C_10 
REMARK       I    between atoms: C_10  and  N_11 
REMARK    3  A    between atoms: N_11  and  C_12 
REMARK    4  A    between atoms: N_11  and  C_27 
REMARK    5  A    between atoms: C_12  and  C_13 
REMARK    6  A    between atoms: C_12  and  C_22 
REMARK       I    between atoms: C_13  and  N_14 
REMARK    7  A    between atoms: N_14  and  C_15 
REMARK    8  A    between atoms: C_27  and  C_28 
ROOT
HETATM    1  C   UNL     1      -0.420  -3.124   0.458  1.00  0.00     0.225 C 
HETATM    2  N   UNL     1       0.613  -3.108  -0.487  1.00  0.00    -0.330 N 
HETATM    3  O   UNL     1      -0.440  -3.939   1.386  1.00  0.00    -0.273 OA
ENDROOT
BRANCH   2   4
HETATM    4  C   UNL     1       1.682  -4.122  -0.339  1.00  0.00     0.219 C 
BRANCH   4   5
HETATM    5  C   UNL     1       2.445  -3.962   1.006  1.00  0.00     0.246 C 
HETATM    6  N   UNL     1       2.218  -4.925   1.971  1.00  0.00    -0.354 N 
HETATM    7  H   UNL     1       1.304  -5.364   1.881  1.00  0.00     0.162 HD
HETATM    8  O   UNL     1       3.141  -2.965   1.216  1.00  0.00    -0.271 OA
BRANCH   6   9
HETATM    9  C   UNL     1       2.737  -4.814   3.332  1.00  0.00     0.084 C 
HETATM   10  C   UNL     1       2.174  -5.949   4.205  1.00  0.00     0.025 C 
HETATM   11  C   UNL     1       2.774  -7.313   3.858  1.00  0.00     0.002 C 
HETATM   12  C   UNL     1       4.298  -7.289   3.916  1.00  0.00     0.000 C 
HETATM   13  C   UNL     1       4.875  -6.180   3.043  1.00  0.00     0.002 C 
HETATM   14  C   UNL     1       4.275  -4.821   3.397  1.00  0.00     0.025 C 
ENDBRANCH   6   9
ENDBRANCH   4   5
BRANCH   4  15
HETATM   15  C   UNL     1       1.221  -5.539  -0.659  1.00  0.00     0.014 A 
HETATM   16  S   UNL     1       2.417  -6.749  -0.963  1.00  0.00    -0.104 SA
HETATM   17  C   UNL     1       1.240  -7.956  -1.233  1.00  0.00     0.050 A 
HETATM   18  C   UNL     1      -0.038  -7.463  -1.126  1.00  0.00     0.008 A 
HETATM   19  C   UNL     1      -0.049  -6.073  -0.812  1.00  0.00     0.017 A 
ENDBRANCH   4  15
ENDBRANCH   2   4
BRANCH   2  20
HETATM   20  C   UNL     1       0.989  -1.855  -1.150  1.00  0.00     0.165 C 
BRANCH  20  21
HETATM   21  C   UNL     1       1.565  -2.019  -2.537  1.00  0.00    -0.037 A 
HETATM   22  C   UNL     1       0.754  -2.469  -3.591  1.00  0.00     0.048 A 
HETATM   23  C   UNL     1       1.312  -2.545  -4.850  1.00  0.00     0.105 A 
HETATM   24  C   UNL     1       2.624  -2.208  -5.085  1.00  0.00     0.105 A 
HETATM   25  O   UNL     1       0.665  -2.930  -5.983  1.00  0.00    -0.323 OA
HETATM   26  O   UNL     1       2.969  -2.341  -6.393  1.00  0.00    -0.323 OA
HETATM   27  C   UNL     1       3.456  -1.778  -4.074  1.00  0.00     0.040 A 
HETATM   28  C   UNL     1       1.715  -2.774  -6.960  1.00  0.00     0.352 A 
HETATM   29  C   UNL     1       2.916  -1.680  -2.789  1.00  0.00     0.012 A 
ENDBRANCH  20  21
ENDBRANCH   2  20
BRANCH   1  30
HETATM   30  C   UNL     1      -1.611  -2.200   0.252  1.00  0.00     0.144 C 
BRANCH  30  31
HETATM   31  C   UNL     1      -1.464  -0.772   0.684  1.00  0.00    -0.021 A 
HETATM   32  C   UNL     1      -0.506  -0.160   1.563  1.00  0.00    -0.001 A 
HETATM   33  C   UNL     1       0.584  -0.624   2.331  1.00  0.00     0.014 A 
HETATM   34  C   UNL     1      -0.775   1.212   1.580  1.00  0.00     0.042 A 
HETATM   35  C   UNL     1       1.370   0.287   3.048  1.00  0.00     0.001 A 
HETATM   36  C   UNL     1       1.079   1.646   3.030  1.00  0.00     0.002 A 
HETATM   37  C   UNL     1      -0.007   2.134   2.301  1.00  0.00     0.030 A 
HETATM   38  N   UNL     1      -1.877   1.423   0.789  1.00  0.00    -0.365 N 
HETATM   39  H   UNL     1      -2.303   2.326   0.630  1.00  0.00     0.165 HD
HETATM   40  C   UNL     1      -2.297   0.244   0.244  1.00  0.00     0.097 A 
ENDBRANCH  30  31
ENDBRANCH   1  30
TORSDOF 8
