REMARK  6 active torsions:
REMARK  status: ('A' for Active; 'I' for Inactive)
REMARK    1  A    between atoms: C_2  and  O_3 
REMARK    2  A    between atoms: C_2  and  C_4 
REMARK    3  A    between atoms: C_6  and  N_7 
REMARK       I    between atoms: N_7  and  C_8 
REMARK    4  A    between atoms: C_8  and  C_9 
REMARK    5  A    between atoms: C_12  and  C_13 
REMARK    6  A    between atoms: C_18  and  C_19 
ROOT
HETATM    1  C   UNL     1       2.274   4.170   1.586  1.00  0.00     0.096 A 
HETATM    2  C   UNL     1       3.392   3.647   2.210  1.00  0.00     0.138 A 
HETATM    3  N   UNL     1       2.926   2.662   3.053  1.00  0.00    -0.240 N 
HETATM    4  C   UNL     1       3.777   1.803   3.860  1.00  0.00     0.221 C 
HETATM    5  C   UNL     1       5.214   1.812   3.302  1.00  0.00     0.066 C 
HETATM    6  C   UNL     1       5.659   3.252   3.027  1.00  0.00     0.118 C 
HETATM    7  N   UNL     1       4.725   3.893   2.098  1.00  0.00    -0.365 N 
HETATM    8  N   UNL     1       1.590   2.576   3.092  1.00  0.00    -0.181 NA
HETATM    9  C   UNL     1       1.197   3.456   2.167  1.00  0.00     0.160 A 
HETATM   10  H   UNL     1       5.128   4.153   1.196  1.00  0.00     0.161 HD
ENDROOT
BRANCH   1  11
HETATM   11  C   UNL     1       2.165   5.214   0.579  1.00  0.00     0.261 C 
HETATM   12  N   UNL     1       3.290   6.012   0.486  1.00  0.00    -0.323 N 
HETATM   13  H   UNL     1       3.990   5.856   1.203  1.00  0.00     0.169 HD
HETATM   14  O   UNL     1       1.135   5.340  -0.073  1.00  0.00    -0.267 OA
BRANCH  12  15
HETATM   15  C   UNL     1       3.549   7.041  -0.439  1.00  0.00     0.035 A 
HETATM   16  C   UNL     1       2.695   7.371  -1.495  1.00  0.00     0.039 A 
HETATM   17  C   UNL     1       3.019   8.399  -2.401  1.00  0.00    -0.028 A 
HETATM   18  C   UNL     1       4.217   9.101  -2.222  1.00  0.00     0.010 A 
HETATM   19  C   UNL     1       5.078   8.777  -1.175  1.00  0.00     0.003 A 
HETATM   20  C   UNL     1       4.745   7.750  -0.289  1.00  0.00     0.029 A 
BRANCH  17  21
HETATM   21  C   UNL     1       2.053   8.740  -3.515  1.00  0.00     0.147 C 
HETATM   22  C   UNL     1       1.016   9.761  -3.060  1.00  0.00     0.044 C 
BRANCH  21  23
HETATM   23  O   UNL     1       2.758   9.263  -4.640  1.00  0.00    -0.391 OA
HETATM   24  H   UNL     1       2.108   9.375  -5.352  1.00  0.00     0.210 HD
ENDBRANCH  21  23
ENDBRANCH  17  21
ENDBRANCH  12  15
ENDBRANCH   1  11
BRANCH   4  25
HETATM   25  C   UNL     1       3.270   0.376   3.918  1.00  0.00     0.409 C 
HETATM   26  F   UNL     1       3.160  -0.185   2.693  1.00  0.00    -0.169 F 
HETATM   27  F   UNL     1       4.159  -0.388   4.612  1.00  0.00    -0.169 F 
HETATM   28  F   UNL     1       2.091   0.246   4.559  1.00  0.00    -0.169 F 
ENDBRANCH   4  25
BRANCH   6  29
HETATM   29  C   UNL     1       7.071   3.336   2.482  1.00  0.00    -0.035 A 
HETATM   30  C   UNL     1       7.437   2.709   1.279  1.00  0.00     0.009 A 
HETATM   31  C   UNL     1       8.744   2.800   0.797  1.00  0.00     0.001 A 
HETATM   32  C   UNL     1       9.703   3.517   1.509  1.00  0.00     0.000 A 
HETATM   33  C   UNL     1       9.356   4.148   2.701  1.00  0.00     0.001 A 
HETATM   34  C   UNL     1       8.048   4.060   3.184  1.00  0.00     0.009 A 
ENDBRANCH   6  29
TORSDOF 6
