REMARK  3 active torsions:
REMARK  status: ('A' for Active; 'I' for Inactive)
REMARK    1  A    between atoms: C_3  and  N_4 
REMARK       I    between atoms: N_4  and  C_5 
REMARK    2  A    between atoms: C_5  and  C_6 
REMARK    3  A    between atoms: C_6  and  C_7 
ROOT
HETATM    1  C   UNL     1       4.988   2.431  -0.037  1.00  0.00     0.286 C 
HETATM    2  N   UNL     1       4.020   1.320   0.377  1.00  0.00    -0.056 N 
HETATM    3  H   UNL     1       3.609   1.508   1.297  1.00  0.00     0.278 HD
HETATM    4  H   UNL     1       3.241   1.352  -0.316  1.00  0.00     0.278 HD
HETATM    5  C   UNL     1       4.661  -0.034   0.320  1.00  0.00     0.209 C 
HETATM    6  C   UNL     1       5.133  -0.283  -1.129  1.00  0.00     0.115 C 
HETATM    7  N   UNL     1       6.029   0.773  -1.590  1.00  0.00    -0.353 N 
HETATM    8  C   UNL     1       5.787   2.104  -1.324  1.00  0.00     0.249 C 
HETATM    9  O   UNL     1       6.282   2.974  -2.032  1.00  0.00    -0.271 OA
HETATM   10  C   UNL     1       3.668  -1.095   0.777  1.00  0.00     0.035 C 
HETATM   11  C   UNL     1       4.291  -2.486   0.656  1.00  0.00     0.002 C 
HETATM   12  C   UNL     1       4.817  -2.758  -0.754  1.00  0.00     0.002 C 
HETATM   13  C   UNL     1       5.774  -1.667  -1.241  1.00  0.00     0.027 C 
HETATM   14  H   UNL     1       6.508   0.637  -2.479  1.00  0.00     0.163 HD
ENDROOT
BRANCH   1  15
HETATM   15  C   UNL     1       4.247   3.768  -0.161  1.00  0.00     0.146 C 
BRANCH  15  16
HETATM   16  C   UNL     1       3.152   3.656  -1.196  1.00  0.00     0.224 C 
HETATM   17  N   UNL     1       2.576   4.860  -1.531  1.00  0.00    -0.327 N 
HETATM   18  H   UNL     1       2.598   5.591  -0.827  1.00  0.00     0.169 HD
HETATM   19  O   UNL     1       2.788   2.539  -1.565  1.00  0.00    -0.273 OA
BRANCH  17  20
HETATM   20  C   UNL     1       1.577   5.006  -2.520  1.00  0.00     0.040 A 
HETATM   21  C   UNL     1       1.652   4.421  -3.798  1.00  0.00    -0.035 A 
HETATM   22  C   UNL     1       2.851   3.670  -4.310  1.00  0.00     0.050 C 
HETATM   23  C   UNL     1       0.572   4.594  -4.683  1.00  0.00     0.009 A 
HETATM   24  C   UNL     1      -0.531   5.371  -4.331  1.00  0.00     0.001 A 
HETATM   25  C   UNL     1      -0.566   6.001  -3.093  1.00  0.00     0.002 A 
HETATM   26  C   UNL     1       0.490   5.831  -2.197  1.00  0.00     0.030 A 
ENDBRANCH  17  20
ENDBRANCH  15  16
ENDBRANCH   1  15
TORSDOF 3
