REMARK  8 active torsions:
REMARK  status: ('A' for Active; 'I' for Inactive)
REMARK    1  A    between atoms: C_2  and  C_3 
REMARK    2  A    between atoms: C_3  and  C_4 
REMARK    3  A    between atoms: C_7  and  C_8 
REMARK    4  A    between atoms: C_8  and  N_9 
REMARK    5  A    between atoms: C_8  and  C_26 
REMARK    6  A    between atoms: N_9  and  C_12 
REMARK    7  A    between atoms: C_12  and  C_13 
REMARK       I    between atoms: C_13  and  N_14 
REMARK    8  A    between atoms: N_14  and  C_15 
ROOT
HETATM    1  N   UNL     1       9.309  -1.172  -2.122  1.00  0.00    -0.054 N 
HETATM    2  H   UNL     1      10.300  -1.399  -1.962  1.00  0.00     0.278 HD
HETATM    3  H   UNL     1       8.924  -2.035  -2.529  1.00  0.00     0.278 HD
ENDROOT
BRANCH   1   4
HETATM    4  C   UNL     1       8.663  -0.912  -0.799  1.00  0.00     0.259 C 
BRANCH   4   5
HETATM    5  C   UNL     1       7.149  -0.847  -0.940  1.00  0.00    -0.023 A 
HETATM    6  C   UNL     1       6.385  -2.000  -0.681  1.00  0.00     0.010 A 
HETATM    7  C   UNL     1       4.999  -1.995  -0.848  1.00  0.00     0.007 A 
HETATM    8  C   UNL     1       4.340  -0.843  -1.287  1.00  0.00    -0.058 A 
HETATM    9  C   UNL     1       5.089   0.310  -1.544  1.00  0.00     0.007 A 
HETATM   10  C   UNL     1       6.476   0.307  -1.378  1.00  0.00     0.010 A 
BRANCH   8  11
HETATM   11  C   UNL     1       2.838  -0.833  -1.444  1.00  0.00     0.038 C 
BRANCH  11  12
HETATM   12  C   UNL     1       2.136  -0.450  -0.140  1.00  0.00     0.000 C 
HETATM   13  C   UNL     1       0.625  -0.431  -0.308  1.00  0.00     0.005 C 
ENDBRANCH  11  12
ENDBRANCH   8  11
ENDBRANCH   4   5
BRANCH   4  14
HETATM   14  C   UNL     1       9.318   0.211  -0.014  1.00  0.00     0.017 A 
HETATM   15  S   UNL     1      11.041   0.353  -0.018  1.00  0.00    -0.104 SA
HETATM   16  C   UNL     1      11.010   1.701   1.027  1.00  0.00     0.050 A 
HETATM   17  C   UNL     1       9.730   2.024   1.412  1.00  0.00     0.008 A 
HETATM   18  C   UNL     1       8.760   1.154   0.834  1.00  0.00     0.017 A 
ENDBRANCH   4  14
ENDBRANCH   1   4
BRANCH   1  19
HETATM   19  C   UNL     1       9.256  -0.110  -3.187  1.00  0.00     0.336 C 
BRANCH  19  20
HETATM   20  C   UNL     1      10.047  -0.577  -4.411  1.00  0.00     0.248 C 
HETATM   21  N   UNL     1      10.219   0.389  -5.381  1.00  0.00    -0.326 N 
HETATM   22  H   UNL     1       9.893   1.331  -5.192  1.00  0.00     0.169 HD
HETATM   23  O   UNL     1      10.453  -1.738  -4.426  1.00  0.00    -0.271 OA
BRANCH  21  24
HETATM   24  C   UNL     1      10.839   0.223  -6.643  1.00  0.00     0.037 A 
HETATM   25  C   UNL     1      11.302  -1.009  -7.124  1.00  0.00     0.061 A 
HETATM   26  C   UNL     1      11.862  -1.021  -8.382  1.00  0.00     0.065 A 
HETATM   27  C   UNL     1      11.980   0.127  -9.161  1.00  0.00     0.063 A 
HETATM   28  N   UNL     1      12.385  -2.085  -9.109  1.00  0.00    -0.306 N 
HETATM   29  N   UNL     1      12.576  -0.228 -10.364  1.00  0.00    -0.307 N 
HETATM   30  C   UNL     1      11.543   1.350  -8.722  1.00  0.00     0.034 A 
HETATM   31  C   UNL     1      12.834  -1.607 -10.349  1.00  0.00     0.325 A 
HETATM   32  H   UNL     1      12.798   0.369 -11.144  1.00  0.00     0.170 HD
HETATM   33  O   UNL     1      13.344  -2.262 -11.238  1.00  0.00    -0.247 OA
HETATM   34  C   UNL     1      10.964   1.390  -7.446  1.00  0.00     0.032 A 
HETATM   35  H   UNL     1      12.447  -3.051  -8.834  1.00  0.00     0.170 HD
ENDBRANCH  21  24
ENDBRANCH  19  20
ENDBRANCH   1  19
TORSDOF 8
