REMARK  4 active torsions:
REMARK  status: ('A' for Active; 'I' for Inactive)
REMARK    1  A    between atoms: O_2  and  C_3 
REMARK    2  A    between atoms: C_7  and  N_8 
REMARK       I    between atoms: N_8  and  C_9 
REMARK    3  A    between atoms: C_9  and  C_10 
REMARK    4  A    between atoms: C_12  and  C_13 
ROOT
HETATM    1  N   UNL     1       4.623  -4.235   2.778  1.00  0.00    -0.323 N 
HETATM    2  C   UNL     1       4.187  -5.548   2.850  1.00  0.00     0.256 C 
HETATM    3  O   UNL     1       4.562  -6.394   3.652  1.00  0.00    -0.267 OA
HETATM    4  H   UNL     1       4.312  -3.691   1.985  1.00  0.00     0.169 HD
ENDROOT
BRANCH   2   5
HETATM    5  C   UNL     1       3.187  -5.949   1.817  1.00  0.00     0.033 A 
HETATM    6  C   UNL     1       3.177  -7.285   1.389  1.00  0.00     0.029 A 
HETATM    7  C   UNL     1       2.249  -7.726   0.435  1.00  0.00    -0.023 A 
HETATM    8  C   UNL     1       1.332  -6.804  -0.088  1.00  0.00     0.012 A 
HETATM    9  C   UNL     1       1.326  -5.476   0.347  1.00  0.00     0.002 A 
HETATM   10  C   UNL     1       2.245  -5.048   1.305  1.00  0.00     0.017 A 
BRANCH   7  11
HETATM   11  C   UNL     1       2.225  -9.110  -0.011  1.00  0.00    -0.002 A 
HETATM   12  C   UNL     1       2.583 -10.192   0.770  1.00  0.00     0.153 A 
HETATM   13  O   UNL     1       2.439 -11.355   0.083  1.00  0.00    -0.334 OA
HETATM   14  C   UNL     1       1.980 -11.029  -1.151  1.00  0.00     0.142 A 
HETATM   15  C   UNL     1       1.826  -9.667  -1.260  1.00  0.00     0.038 A 
ENDBRANCH   7  11
ENDBRANCH   2   5
BRANCH   1  16
HETATM   16  C   UNL     1       5.510  -3.583   3.662  1.00  0.00     0.041 A 
HETATM   17  C   UNL     1       6.071  -4.177   4.790  1.00  0.00     0.074 A 
HETATM   18  C   UNL     1       6.928  -3.445   5.615  1.00  0.00     0.155 A 
HETATM   19  C   UNL     1       7.247  -2.110   5.354  1.00  0.00     0.145 A 
HETATM   20  F   UNL     1       7.448  -4.056   6.692  1.00  0.00    -0.203 F 
HETATM   21  C   UNL     1       6.682  -1.528   4.222  1.00  0.00     0.155 A 
HETATM   22  C   UNL     1       5.826  -2.250   3.384  1.00  0.00     0.074 A 
HETATM   23  F   UNL     1       6.932  -0.254   3.888  1.00  0.00    -0.203 F 
BRANCH  19  24
HETATM   24  O   UNL     1       8.091  -1.519   6.253  1.00  0.00    -0.350 OA
HETATM   25  C   UNL     1       8.378  -0.139   6.073  1.00  0.00     0.210 C 
ENDBRANCH  19  24
ENDBRANCH   1  16
TORSDOF 4
