REMARK  9 active torsions:
REMARK  status: ('A' for Active; 'I' for Inactive)
REMARK    1  A    between atoms: C_3  and  C_4 
REMARK       I    between atoms: C_4  and  N_5 
REMARK    2  A    between atoms: N_5  and  N_6 
REMARK    3  A    between atoms: N_6  and  C_7 
REMARK    4  A    between atoms: C_7  and  N_8 
REMARK    5  A    between atoms: N_8  and  C_9 
REMARK    6  A    between atoms: C_9  and  C_10 
REMARK    7  A    between atoms: C_18  and  C_19 
REMARK    8  A    between atoms: C_19  and  O_20 
REMARK    9  A    between atoms: O_20  and  C_21 
ROOT
HETATM    1  C   UNL     1       6.174   9.477 -10.919  1.00  0.00     0.069 A 
HETATM    2  C   UNL     1       7.053  10.357 -11.554  1.00  0.00     0.038 A 
HETATM    3  C   UNL     1       6.559  11.472 -12.242  1.00  0.00     0.025 A 
HETATM    4  C   UNL     1       5.183  11.713 -12.300  1.00  0.00     0.044 A 
HETATM    5  C   UNL     1       4.682  12.857 -13.004  1.00  0.00     0.099 C 
HETATM    6  N   UNL     1       4.285  13.787 -13.575  1.00  0.00    -0.191 NA
HETATM    7  C   UNL     1       4.303  10.834 -11.666  1.00  0.00     0.025 A 
HETATM    8  C   UNL     1       4.800   9.723 -10.979  1.00  0.00     0.038 A 
ENDROOT
BRANCH   1   9
HETATM    9  O   UNL     1       6.524   8.358 -10.213  1.00  0.00    -0.347 OA
BRANCH   9  10
HETATM   10  C   UNL     1       7.910   8.031 -10.184  1.00  0.00     0.214 C 
BRANCH  10  11
HETATM   11  C   UNL     1       8.118   6.785  -9.359  1.00  0.00    -0.033 A 
HETATM   12  C   UNL     1       7.966   6.827  -7.962  1.00  0.00     0.026 A 
HETATM   13  C   UNL     1       8.282   5.711  -7.180  1.00  0.00     0.034 A 
HETATM   14  C   UNL     1       8.655   4.516  -7.813  1.00  0.00     0.017 A 
HETATM   15  C   UNL     1       8.753   4.449  -9.202  1.00  0.00     0.002 A 
HETATM   16  C   UNL     1       8.498   5.582  -9.971  1.00  0.00     0.009 A 
BRANCH  13  17
HETATM   17  C   UNL     1       8.203   5.698  -5.696  1.00  0.00     0.270 C 
HETATM   18  N   UNL     1       8.488   6.810  -4.933  1.00  0.00    -0.264 N 
HETATM   19  H   UNL     1       8.479   6.657  -3.925  1.00  0.00     0.190 HD
HETATM   20  O   UNL     1       7.895   4.647  -5.132  1.00  0.00    -0.266 OA
BRANCH  18  21
HETATM   21  N   UNL     1       9.075   8.006  -5.359  1.00  0.00    -0.274 N 
HETATM   22  H   UNL     1       9.410   8.072  -6.322  1.00  0.00     0.189 HD
BRANCH  21  23
HETATM   23  C   UNL     1       9.701   8.828  -4.453  1.00  0.00     0.186 C 
HETATM   24  S   UNL     1       9.978   8.478  -2.842  1.00  0.00    -0.040 SA
BRANCH  23  25
HETATM   25  N   UNL     1      10.070  10.060  -4.918  1.00  0.00    -0.364 N 
HETATM   26  H   UNL     1      10.486  10.651  -4.206  1.00  0.00     0.162 HD
BRANCH  25  27
HETATM   27  C   UNL     1       9.526  10.725  -6.098  1.00  0.00     0.154 C 
BRANCH  27  28
HETATM   28  C   UNL     1      10.304  10.463  -7.395  1.00  0.00     0.139 C 
HETATM   29  O   UNL     1      10.319   9.051  -7.692  1.00  0.00    -0.384 OA
HETATM   30  C   UNL     1      11.680   8.658  -7.921  1.00  0.00     0.168 C 
HETATM   31  C   UNL     1      12.537   9.664  -7.189  1.00  0.00     0.029 C 
HETATM   32  C   UNL     1      11.751  10.938  -7.366  1.00  0.00     0.035 C 
ENDBRANCH  27  28
ENDBRANCH  25  27
ENDBRANCH  23  25
ENDBRANCH  21  23
ENDBRANCH  18  21
ENDBRANCH  13  17
ENDBRANCH  10  11
ENDBRANCH   9  10
ENDBRANCH   1   9
TORSDOF 9
