REMARK  2 active torsions:
REMARK  status: ('A' for Active; 'I' for Inactive)
REMARK    1  A    between atoms: C_15  and  C_16 
REMARK    2  A    between atoms: C_19  and  O_20 
ROOT
HETATM    1  C   UNL     1       1.839   1.904   0.804  1.00  0.00     0.048 C 
HETATM    2  C   UNL     1       3.064   1.182   0.323  1.00  0.00    -0.061 A 
HETATM    3  C   UNL     1       4.317   1.823   0.312  1.00  0.00     0.021 A 
HETATM    4  C   UNL     1       5.464   1.116  -0.107  1.00  0.00    -0.000 A 
HETATM    5  C   UNL     1       5.314  -0.216  -0.513  1.00  0.00     0.043 A 
HETATM    6  N   UNL     1       6.559  -0.680  -0.878  1.00  0.00    -0.353 N 
HETATM    7  H   UNL     1       6.761  -1.607  -1.232  1.00  0.00     0.166 HD
HETATM    8  C   UNL     1       7.488   0.283  -0.634  1.00  0.00     0.066 A 
HETATM    9  C   UNL     1       6.847   1.435  -0.228  1.00  0.00    -0.017 A 
HETATM   10  C   UNL     1       7.608   2.708   0.022  1.00  0.00     0.043 C 
HETATM   11  C   UNL     1       9.088   2.615  -0.494  1.00  0.00     0.018 C 
HETATM   12  C   UNL     1       9.713   1.268  -0.077  1.00  0.00     0.065 C 
HETATM   13  C   UNL     1       8.897   0.232  -0.813  1.00  0.00     0.082 C 
HETATM   14  N   UNL     1       9.507  -0.512  -1.676  1.00  0.00    -0.203 NA
HETATM   15  C   UNL     1      11.100   0.766  -0.498  1.00  0.00     0.121 C 
HETATM   16  N   UNL     1      10.807  -0.106  -1.660  1.00  0.00    -0.207 NA
HETATM   17  C   UNL     1       4.079  -0.872  -0.516  1.00  0.00     0.031 A 
HETATM   18  C   UNL     1       2.961  -0.152  -0.084  1.00  0.00     0.009 A 
HETATM   19  H   UNL     1      11.025   0.385  -2.531  1.00  0.00     0.149 HD
ENDROOT
BRANCH  15  20
HETATM   20  C   UNL     1      12.314   1.651  -0.669  1.00  0.00    -0.038 A 
HETATM   21  C   UNL     1      13.440   1.141  -1.344  1.00  0.00     0.011 A 
HETATM   22  C   UNL     1      14.634   1.862  -1.425  1.00  0.00     0.037 A 
HETATM   23  C   UNL     1      14.747   3.111  -0.824  1.00  0.00     0.068 A 
HETATM   24  C   UNL     1      13.650   3.630  -0.141  1.00  0.00     0.037 A 
HETATM   25  C   UNL     1      12.453   2.899  -0.049  1.00  0.00     0.011 A 
BRANCH  23  26
HETATM   26  O   UNL     1      15.974   3.697  -0.959  1.00  0.00    -0.356 OA
HETATM   27  C   UNL     1      16.173   4.941  -0.300  1.00  0.00     0.210 C 
ENDBRANCH  23  26
ENDBRANCH  15  20
TORSDOF 2
