REMARK  5 active torsions:
REMARK  status: ('A' for Active; 'I' for Inactive)
REMARK    1  A    between atoms: C_7  and  C_8 
REMARK    2  A    between atoms: C_16  and  C_17 
REMARK    3  A    between atoms: C_19  and  O_20 
REMARK    4  A    between atoms: C_24  and  C_25 
REMARK       I    between atoms: C_25  and  N_26 
REMARK    5  A    between atoms: N_26  and  C_27 
ROOT
HETATM    1  C   UNL     1       1.116   0.046  -0.037  1.00  0.00     0.070 C 
HETATM    2  C   UNL     1       2.584  -0.066   0.307  1.00  0.00     0.037 A 
HETATM    3  N   UNL     1       3.256   1.148   0.418  1.00  0.00    -0.192 N 
HETATM    4  C   UNL     1       4.583   1.249   0.599  1.00  0.00     0.726 A 
HETATM    5  N   UNL     1       5.315   0.116   0.778  1.00  0.00    -0.083 N 
HETATM    6  N   UNL     1       6.636   0.379   0.802  1.00  0.00    -0.135 NA
HETATM    7  C   UNL     1       6.638   1.724   0.741  1.00  0.00     0.199 A 
HETATM    8  N   UNL     1       5.379   2.285   0.601  1.00  0.00    -0.041 NA
HETATM    9  C   UNL     1       4.748  -1.237   0.789  1.00  0.00     0.202 A 
HETATM   10  C   UNL     1       3.252  -1.242   0.472  1.00  0.00     0.062 A 
HETATM   11  H   UNL     1       2.724   1.997   0.246  1.00  0.00     0.184 HD
ENDROOT
BRANCH  10  12
HETATM   12  C   UNL     1       2.522  -2.557   0.404  1.00  0.00     0.256 C 
HETATM   13  N   UNL     1       3.291  -3.650   0.056  1.00  0.00    -0.323 N 
HETATM   14  H   UNL     1       4.291  -3.550  -0.011  1.00  0.00     0.169 HD
HETATM   15  O   UNL     1       1.331  -2.604   0.696  1.00  0.00    -0.267 OA
BRANCH  13  16
HETATM   16  C   UNL     1       2.837  -4.971  -0.166  1.00  0.00     0.035 A 
HETATM   17  C   UNL     1       1.492  -5.329  -0.279  1.00  0.00     0.029 A 
HETATM   18  C   UNL     1       1.130  -6.657  -0.529  1.00  0.00     0.002 A 
HETATM   19  C   UNL     1       2.108  -7.639  -0.663  1.00  0.00     0.000 A 
HETATM   20  C   UNL     1       3.451  -7.294  -0.551  1.00  0.00     0.002 A 
HETATM   21  C   UNL     1       3.814  -5.966  -0.310  1.00  0.00     0.029 A 
ENDBRANCH  13  16
ENDBRANCH  10  12
BRANCH   9  22
HETATM   22  C   UNL     1       5.113  -1.929   2.100  1.00  0.00    -0.025 A 
HETATM   23  C   UNL     1       4.348  -1.758   3.268  1.00  0.00     0.046 A 
HETATM   24  C   UNL     1       4.728  -2.396   4.447  1.00  0.00     0.066 A 
HETATM   25  C   UNL     1       5.866  -3.191   4.496  1.00  0.00     0.036 A 
HETATM   26  C   UNL     1       6.643  -3.354   3.352  1.00  0.00     0.003 A 
HETATM   27  C   UNL     1       6.272  -2.726   2.162  1.00  0.00     0.010 A 
BRANCH  24  28
HETATM   28  O   UNL     1       4.003  -2.259   5.593  1.00  0.00    -0.361 OA
HETATM   29  H   UNL     1       3.223  -1.711   5.409  1.00  0.00     0.217 HD
ENDBRANCH  24  28
ENDBRANCH   9  22
BRANCH   7  30
HETATM   30  C   UNL     1       7.850   2.535   0.790  1.00  0.00     0.016 A 
HETATM   31  C   UNL     1       9.105   1.939   0.979  1.00  0.00     0.039 A 
HETATM   32  C   UNL     1      10.255   2.726   1.026  1.00  0.00     0.035 A 
HETATM   33 CL   UNL     1      11.790   1.983   1.258  1.00  0.00    -0.084 Cl
HETATM   34  C   UNL     1      10.174   4.111   0.888  1.00  0.00     0.024 A 
HETATM   35  C   UNL     1       8.932   4.714   0.700  1.00  0.00     0.003 A 
HETATM   36  C   UNL     1       7.776   3.930   0.652  1.00  0.00     0.015 A 
ENDBRANCH   7  30
TORSDOF 5
