REMARK  2 active torsions:
REMARK  status: ('A' for Active; 'I' for Inactive)
REMARK    1  A    between atoms: C_9  and  C_10 
REMARK       I    between atoms: C_10  and  N_11 
REMARK    2  A    between atoms: N_11  and  C_12 
ROOT
HETATM    1  C   UNL     1       5.480   3.413   0.126  1.00  0.00     0.277 C 
HETATM    2  N   UNL     1       6.529   4.313   0.067  1.00  0.00    -0.322 N 
HETATM    3  O   UNL     1       5.556   2.198  -0.016  1.00  0.00    -0.266 OA
HETATM    4  H   UNL     1       6.232   5.277   0.202  1.00  0.00     0.169 HD
ENDROOT
BRANCH   1   5
HETATM    5  C   UNL     1       4.197   4.095   0.383  1.00  0.00     0.157 A 
HETATM    6  C   UNL     1       2.894   3.514   0.417  1.00  0.00     0.029 A 
HETATM    7  C   UNL     1       2.352   2.226   0.236  1.00  0.00     0.023 A 
HETATM    8  C   UNL     1       2.035   4.568   0.698  1.00  0.00     0.063 A 
HETATM    9  C   UNL     1       0.963   2.038   0.338  1.00  0.00    -0.061 A 
HETATM   10  C   UNL     1       0.363   0.677   0.139  1.00  0.00     0.048 C 
HETATM   11  C   UNL     1       0.133   3.128   0.630  1.00  0.00     0.009 A 
HETATM   12  C   UNL     1       0.651   4.415   0.817  1.00  0.00     0.032 A 
HETATM   13  N   UNL     1       2.838   5.669   0.811  1.00  0.00    -0.277 N 
HETATM   14  H   UNL     1       2.548   6.618   1.015  1.00  0.00     0.189 HD
HETATM   15  N   UNL     1       4.147   5.428   0.615  1.00  0.00    -0.168 NA
ENDBRANCH   1   5
BRANCH   2  16
HETATM   16  C   UNL     1       7.891   4.063  -0.162  1.00  0.00     0.037 A 
HETATM   17  C   UNL     1       8.432   2.788  -0.338  1.00  0.00     0.069 A 
HETATM   18  C   UNL     1       9.807   2.626  -0.540  1.00  0.00     0.104 A 
HETATM   19  C   UNL     1      10.645   3.741  -0.602  1.00  0.00     0.102 A 
HETATM   20  O   UNL     1      10.249   1.351  -0.770  1.00  0.00    -0.348 OA
HETATM   21  O   UNL     1      11.977   3.663  -0.902  1.00  0.00    -0.348 OA
HETATM   22  C   UNL     1      10.108   5.017  -0.460  1.00  0.00     0.042 A 
HETATM   23  C   UNL     1      12.709   2.932   0.082  1.00  0.00     0.178 C 
HETATM   24  C   UNL     1      12.601   1.429  -0.120  1.00  0.00     0.053 C 
HETATM   25  C   UNL     1      11.202   0.930   0.206  1.00  0.00     0.178 C 
HETATM   26  C   UNL     1       8.740   5.176  -0.223  1.00  0.00     0.032 A 
ENDBRANCH   2  16
TORSDOF 2
