REMARK  2 active torsions:
REMARK  status: ('A' for Active; 'I' for Inactive)
REMARK    1  A    between atoms: N_4  and  C_5 
REMARK    2  A    between atoms: C_15  and  C_16 
REMARK       I    between atoms: C_16  and  N_17 
ROOT
HETATM    1  C   UNL     1       1.019  -0.656  -0.829  1.00  0.00     0.073 C 
HETATM    2  C   UNL     1       2.451  -0.402  -0.540  1.00  0.00     0.069 C 
HETATM    3  N   UNL     1       3.252  -1.401  -0.139  1.00  0.00    -0.170 NA
HETATM    4  N   UNL     1       4.496  -0.841  -0.030  1.00  0.00    -0.216 N 
HETATM    5  C   UNL     1       4.402   0.536  -0.134  1.00  0.00     0.145 C 
HETATM    6  C   UNL     1       3.132   0.830  -0.567  1.00  0.00     0.087 C 
HETATM    7  N   UNL     1       5.318   1.495   0.143  1.00  0.00    -0.349 N 
HETATM    8  C   UNL     1       4.930   2.816   0.004  1.00  0.00     0.111 C 
HETATM    9  C   UNL     1       3.723   3.223  -0.454  1.00  0.00     0.099 C 
HETATM   10  C   UNL     1       2.729   2.186  -0.885  1.00  0.00     0.205 C 
HETATM   11  O   UNL     1       1.679   2.448  -1.459  1.00  0.00    -0.286 OA
HETATM   12  H   UNL     1       6.189   1.320   0.643  1.00  0.00     0.167 HD
ENDROOT
BRANCH   9  13
HETATM   13  C   UNL     1       3.543   4.691  -0.578  1.00  0.00     0.264 C 
HETATM   14  N   UNL     1       2.436   5.291   0.000  1.00  0.00    -0.309 N 
HETATM   15  C   UNL     1       1.282   4.664   0.709  1.00  0.00     0.093 C 
HETATM   16  C   UNL     1       2.253   6.698   0.079  1.00  0.00     0.044 A 
HETATM   17  C   UNL     1       1.680   4.142   2.092  1.00  0.00     0.033 C 
HETATM   18  C   UNL     1       0.196   5.756   0.825  1.00  0.00     0.066 C 
HETATM   19  C   UNL     1       0.992   6.998   0.597  1.00  0.00    -0.029 A 
HETATM   20  C   UNL     1       0.572   8.307   0.783  1.00  0.00     0.009 A 
HETATM   21  C   UNL     1       1.454   9.337   0.460  1.00  0.00     0.001 A 
HETATM   22  C   UNL     1       2.725   9.045  -0.053  1.00  0.00     0.002 A 
HETATM   23  C   UNL     1       3.128   7.720  -0.253  1.00  0.00     0.030 A 
HETATM   24  O   UNL     1       4.452   5.312  -1.137  1.00  0.00    -0.267 OA
ENDBRANCH   9  13
BRANCH   4  25
HETATM   25  C   UNL     1       5.644  -1.669   0.117  1.00  0.00     0.060 A 
HETATM   26  C   UNL     1       6.928  -1.199  -0.189  1.00  0.00     0.031 A 
HETATM   27  C   UNL     1       8.033  -2.049  -0.074  1.00  0.00     0.002 A 
HETATM   28  C   UNL     1       7.863  -3.368   0.341  1.00  0.00     0.000 A 
HETATM   29  C   UNL     1       6.588  -3.847   0.632  1.00  0.00     0.002 A 
HETATM   30  C   UNL     1       5.480  -3.006   0.512  1.00  0.00     0.031 A 
ENDBRANCH   4  25
TORSDOF 2
