REMARK  9 active torsions:
REMARK  status: ('A' for Active; 'I' for Inactive)
REMARK    1  A    between atoms: C_2  and  N_3 
REMARK    2  A    between atoms: C_4  and  S_5 
REMARK    3  A    between atoms: S_5  and  C_6 
REMARK    4  A    between atoms: C_6  and  C_7 
REMARK       I    between atoms: C_7  and  N_8 
REMARK    5  A    between atoms: N_8  and  C_9 
REMARK    6  A    between atoms: C_11  and  O_12 
REMARK    7  A    between atoms: C_19  and  C_20 
REMARK    8  A    between atoms: C_23  and  S_24 
REMARK    9  A    between atoms: S_24  and  N_25 
ROOT
HETATM    1  N   UNL     1       3.260   0.809  -1.056  1.00  0.00    -0.308 N 
HETATM    2  C   UNL     1       3.416   2.149  -1.295  1.00  0.00     0.192 A 
HETATM    3  N   UNL     1       3.660   2.358  -2.562  1.00  0.00    -0.122 NA
HETATM    4  N   UNL     1       3.759   1.136  -3.164  1.00  0.00    -0.128 NA
HETATM    5  C   UNL     1       3.544   0.192  -2.262  1.00  0.00     0.164 A 
ENDROOT
BRANCH   5   6
HETATM    6  C   UNL     1       3.710  -1.236  -2.544  1.00  0.00     0.012 A 
HETATM    7  C   UNL     1       4.785  -1.622  -3.364  1.00  0.00     0.017 A 
HETATM    8  C   UNL     1       4.987  -2.958  -3.713  1.00  0.00     0.026 A 
HETATM    9  C   UNL     1       4.113  -3.930  -3.226  1.00  0.00     0.074 A 
HETATM   10  C   UNL     1       3.023  -3.568  -2.430  1.00  0.00     0.026 A 
HETATM   11  C   UNL     1       2.820  -2.222  -2.098  1.00  0.00     0.017 A 
BRANCH   9  12
HETATM   12  S   UNL     1       4.327  -5.620  -3.699  1.00  0.00     0.243 S 
HETATM   13  O   UNL     1       3.027  -6.223  -3.872  1.00  0.00    -0.206 OA
HETATM   14  O   UNL     1       5.333  -5.707  -4.736  1.00  0.00    -0.206 OA
BRANCH  12  15
HETATM   15  N   UNL     1       5.036  -6.339  -2.310  1.00  0.00    -0.203 NA
HETATM   16  C   UNL     1       6.417  -5.883  -1.953  1.00  0.00     0.135 C 
HETATM   17  C   UNL     1       7.512  -6.523  -2.833  1.00  0.00     0.250 C 
HETATM   18  N   UNL     1       7.373  -8.043  -2.874  1.00  0.00    -0.073 N 
HETATM   19  H   UNL     1       7.561  -8.395  -1.927  1.00  0.00     0.279 HD
HETATM   20  C   UNL     1       8.395  -8.660  -3.789  1.00  0.00     0.269 C 
HETATM   21  C   UNL     1       5.957  -8.482  -3.248  1.00  0.00     0.250 C 
HETATM   22  C   UNL     1       4.937  -7.835  -2.296  1.00  0.00     0.135 C 
ENDBRANCH  12  15
ENDBRANCH   9  12
ENDBRANCH   5   6
BRANCH   1  23
HETATM   23  C   UNL     1       2.946   0.187   0.212  1.00  0.00     0.128 C 
HETATM   24  C   UNL     1       1.456   0.206   0.516  1.00  0.00     0.027 C 
ENDBRANCH   1  23
BRANCH   2  25
HETATM   25  S   UNL     1       3.360   3.407  -0.116  1.00  0.00    -0.081 SA
BRANCH  25  26
HETATM   26  C   UNL     1       5.063   3.393   0.509  1.00  0.00     0.185 C 
BRANCH  26  27
HETATM   27  C   UNL     1       6.172   3.428  -0.535  1.00  0.00     0.231 C 
HETATM   28  N   UNL     1       5.893   4.162  -1.669  1.00  0.00    -0.326 N 
HETATM   29  H   UNL     1       4.912   4.380  -1.826  1.00  0.00     0.169 HD
HETATM   30  O   UNL     1       7.240   2.867  -0.287  1.00  0.00    -0.272 OA
BRANCH  28  31
HETATM   31  C   UNL     1       6.749   4.418  -2.761  1.00  0.00     0.037 A 
HETATM   32  C   UNL     1       8.126   4.185  -2.742  1.00  0.00     0.066 A 
HETATM   33  C   UNL     1       8.891   4.470  -3.873  1.00  0.00     0.067 A 
HETATM   34  C   UNL     1       8.309   4.985  -5.024  1.00  0.00     0.036 A 
HETATM   35  C   UNL     1       6.939   5.228  -5.047  1.00  0.00     0.005 A 
HETATM   36  C   UNL     1       6.163   4.948  -3.919  1.00  0.00     0.029 A 
BRANCH  33  37
HETATM   37  O   UNL     1      10.239   4.253  -3.888  1.00  0.00    -0.361 OA
HETATM   38  H   UNL     1      10.508   3.946  -3.006  1.00  0.00     0.217 HD
ENDBRANCH  33  37
ENDBRANCH  28  31
ENDBRANCH  26  27
ENDBRANCH  25  26
ENDBRANCH   2  25
TORSDOF 9
