REMARK  6 active torsions:
REMARK  status: ('A' for Active; 'I' for Inactive)
REMARK    1  A    between atoms: C_2  and  C_3 
REMARK       I    between atoms: C_3  and  N_4 
REMARK    2  A    between atoms: N_4  and  C_5 
REMARK    3  A    between atoms: C_5  and  C_6 
REMARK    4  A    between atoms: N_8  and  C_10 
REMARK    5  A    between atoms: C_10  and  C_11 
REMARK    6  A    between atoms: C_12  and  C_13 
ROOT
HETATM    1  C   UNL     1       4.932   3.079  -1.741  1.00  0.00     0.029 C 
HETATM    2  C   UNL     1       6.276   2.444  -1.365  1.00  0.00     0.241 C 
HETATM    3  N   UNL     1       6.399   1.058  -1.971  1.00  0.00    -0.067 N 
HETATM    4  H   UNL     1       5.624   0.489  -1.613  1.00  0.00     0.280 HD
HETATM    5  C   UNL     1       6.269   1.081  -3.471  1.00  0.00     0.235 C 
HETATM    6  C   UNL     1       4.915   1.664  -3.843  1.00  0.00     0.028 C 
HETATM    7  C   UNL     1       4.728   3.060  -3.264  1.00  0.00     0.009 C 
ENDROOT
BRANCH   3   8
HETATM    8  C   UNL     1       7.675   0.382  -1.491  1.00  0.00     0.277 C 
BRANCH   8   9
HETATM    9  C   UNL     1       7.677  -1.092  -1.691  1.00  0.00     0.016 A 
HETATM   10  C   UNL     1       7.342  -2.130  -0.757  1.00  0.00     0.096 A 
HETATM   11  N   UNL     1       7.501  -3.335  -1.321  1.00  0.00    -0.174 NA
HETATM   12  N   UNL     1       7.969  -3.099  -2.547  1.00  0.00    -0.288 N 
HETATM   13  H   UNL     1       8.192  -3.896  -3.139  1.00  0.00     0.188 HD
HETATM   14  C   UNL     1       8.090  -1.771  -2.824  1.00  0.00     0.120 A 
BRANCH  10  15
HETATM   15  C   UNL     1       6.909  -2.039   0.641  1.00  0.00    -0.003 A 
HETATM   16  C   UNL     1       5.979  -1.086   1.067  1.00  0.00     0.037 A 
HETATM   17  C   UNL     1       5.602  -1.021   2.410  1.00  0.00     0.035 A 
HETATM   18 CL   UNL     1       4.480   0.188   2.905  1.00  0.00    -0.084 Cl
HETATM   19  C   UNL     1       6.123  -1.914   3.342  1.00  0.00     0.024 A 
HETATM   20  C   UNL     1       7.031  -2.885   2.925  1.00  0.00     0.003 A 
HETATM   21  C   UNL     1       7.421  -2.945   1.584  1.00  0.00     0.014 A 
ENDBRANCH  10  15
ENDBRANCH   8   9
ENDBRANCH   3   8
BRANCH   1  22
HETATM   22  C   UNL     1       4.821   4.531  -1.241  1.00  0.00     0.128 C 
BRANCH  22  23
HETATM   23  N   UNL     1       4.810   4.660   0.202  1.00  0.00    -0.360 N 
HETATM   24  C   UNL     1       5.979   4.794   0.925  1.00  0.00     0.221 C 
HETATM   25  O   UNL     1       7.073   4.557   0.419  1.00  0.00    -0.273 OA
HETATM   26  H   UNL     1       3.941   4.937   0.648  1.00  0.00     0.162 HD
BRANCH  24  27
HETATM   27  C   UNL     1       5.782   5.191   2.386  1.00  0.00     0.070 C 
HETATM   28  C   UNL     1       5.159   6.582   2.494  1.00  0.00     0.019 C 
HETATM   29  C   UNL     1       7.110   5.152   3.141  1.00  0.00     0.019 C 
ENDBRANCH  24  27
ENDBRANCH  22  23
ENDBRANCH   1  22
TORSDOF 6
