REMARK  4 active torsions:
REMARK  status: ('A' for Active; 'I' for Inactive)
REMARK    1  A    between atoms: C_5  and  C_6 
REMARK    2  A    between atoms: C_6  and  N_7 
REMARK    3  A    between atoms: C_17  and  C_18 
REMARK    4  A    between atoms: C_27  and  C_28 
ROOT
HETATM    1  N   UNL     1       6.659  -1.107  -0.370  1.00  0.00    -0.067 N 
HETATM    2  H   UNL     1       6.613  -0.270  -0.970  1.00  0.00     0.280 HD
HETATM    3  C   UNL     1       7.065  -0.646   1.000  1.00  0.00     0.236 C 
HETATM    4  C   UNL     1       7.390  -1.822   1.920  1.00  0.00     0.039 C 
HETATM    5  C   UNL     1       8.404  -2.856   1.357  1.00  0.00    -0.013 C 
HETATM    6  C   UNL     1       9.863  -2.323   1.364  1.00  0.00     0.244 C 
HETATM    7  N   UNL     1      10.439  -2.268   2.755  1.00  0.00    -0.073 N 
HETATM    8  H   UNL     1       9.875  -1.632   3.335  1.00  0.00     0.279 HD
HETATM    9  C   UNL     1      11.837  -1.687   2.761  1.00  0.00     0.269 C 
HETATM   10  C   UNL     1      10.428  -3.625   3.448  1.00  0.00     0.243 C 
HETATM   11  C   UNL     1       8.983  -4.130   3.597  1.00  0.00     0.045 C 
HETATM   12  C   UNL     1       8.352  -4.182   2.180  1.00  0.00     0.022 C 
HETATM   13  C   UNL     1       7.981  -3.202  -0.104  1.00  0.00     0.039 C 
HETATM   14  C   UNL     1       7.698  -1.994  -0.996  1.00  0.00     0.236 C 
ENDROOT
BRANCH  11  15
HETATM   15  C   UNL     1       8.121  -3.418   4.639  1.00  0.00    -0.052 A 
HETATM   16  C   UNL     1       8.618  -2.451   5.531  1.00  0.00     0.007 A 
HETATM   17  C   UNL     1       7.780  -1.823   6.459  1.00  0.00     0.001 A 
HETATM   18  C   UNL     1       6.436  -2.167   6.537  1.00  0.00     0.000 A 
HETATM   19  C   UNL     1       5.932  -3.159   5.705  1.00  0.00     0.001 A 
HETATM   20  C   UNL     1       6.768  -3.785   4.777  1.00  0.00     0.007 A 
ENDBRANCH  11  15
BRANCH   1  21
HETATM   21  C   UNL     1       5.243  -1.679  -0.479  1.00  0.00     0.277 C 
BRANCH  21  22
HETATM   22  C   UNL     1       4.109  -0.742  -0.263  1.00  0.00     0.011 A 
HETATM   23  C   UNL     1       4.169   0.665  -0.106  1.00  0.00     0.149 A 
HETATM   24  N   UNL     1       2.989   1.219   0.131  1.00  0.00    -0.185 NA
HETATM   25  N   UNL     1       2.128   0.193   0.073  1.00  0.00    -0.278 N 
HETATM   26  C   UNL     1       0.716   0.443   0.262  1.00  0.00     0.179 C 
HETATM   27  C   UNL     1       2.743  -1.009  -0.204  1.00  0.00     0.043 A 
BRANCH  27  28
HETATM   28  C   UNL     1       1.961  -2.306  -0.418  1.00  0.00     0.038 A 
HETATM   29  C   UNL     1       2.386  -3.250  -1.522  1.00  0.00     0.011 A 
HETATM   30  C   UNL     1       2.535  -3.664  -0.098  1.00  0.00     0.011 A 
ENDBRANCH  27  28
ENDBRANCH  21  22
ENDBRANCH   1  21
TORSDOF 4
