REMARK  6 active torsions:
REMARK  status: ('A' for Active; 'I' for Inactive)
REMARK    1  A    between atoms: C_2  and  O_3 
REMARK    2  A    between atoms: C_2  and  C_4 
REMARK    3  A    between atoms: C_6  and  N_7 
REMARK       I    between atoms: N_7  and  C_8 
REMARK    4  A    between atoms: C_8  and  C_9 
REMARK    5  A    between atoms: C_12  and  C_13 
REMARK    6  A    between atoms: C_18  and  C_19 
ROOT
HETATM    1  C   UNL     1       2.185   3.796   1.640  1.00  0.00     0.096 A 
HETATM    2  C   UNL     1       3.215   3.317   2.428  1.00  0.00     0.138 A 
HETATM    3  N   UNL     1       2.715   2.205   3.061  1.00  0.00    -0.240 N 
HETATM    4  C   UNL     1       3.473   1.337   3.942  1.00  0.00     0.221 C 
HETATM    5  C   UNL     1       4.977   1.652   3.847  1.00  0.00     0.067 C 
HETATM    6  C   UNL     1       5.304   3.150   3.714  1.00  0.00     0.125 C 
HETATM    7  N   UNL     1       4.495   3.734   2.631  1.00  0.00    -0.365 N 
HETATM    8  N   UNL     1       1.438   1.934   2.754  1.00  0.00    -0.181 NA
HETATM    9  C   UNL     1       1.104   2.928   1.925  1.00  0.00     0.160 A 
HETATM   10  H   UNL     1       4.711   4.724   2.489  1.00  0.00     0.162 HD
ENDROOT
BRANCH   1  11
HETATM   11  C   UNL     1       2.173   4.908   0.704  1.00  0.00     0.261 C 
HETATM   12  N   UNL     1       3.414   5.158   0.148  1.00  0.00    -0.323 N 
HETATM   13  H   UNL     1       4.141   4.498   0.403  1.00  0.00     0.169 HD
HETATM   14  O   UNL     1       1.127   5.483   0.431  1.00  0.00    -0.267 OA
BRANCH  12  15
HETATM   15  C   UNL     1       3.744   6.107  -0.839  1.00  0.00     0.035 A 
HETATM   16  C   UNL     1       2.863   7.086  -1.306  1.00  0.00     0.039 A 
HETATM   17  C   UNL     1       3.249   7.987  -2.315  1.00  0.00    -0.028 A 
HETATM   18  C   UNL     1       4.537   7.883  -2.861  1.00  0.00     0.010 A 
HETATM   19  C   UNL     1       5.427   6.920  -2.390  1.00  0.00     0.003 A 
HETATM   20  C   UNL     1       5.033   6.041  -1.380  1.00  0.00     0.029 A 
BRANCH  17  21
HETATM   21  C   UNL     1       2.264   9.020  -2.820  1.00  0.00     0.147 C 
HETATM   22  C   UNL     1       1.584   8.579  -4.108  1.00  0.00     0.044 C 
BRANCH  21  23
HETATM   23  O   UNL     1       2.921  10.265  -3.049  1.00  0.00    -0.391 OA
HETATM   24  H   UNL     1       3.521  10.406  -2.297  1.00  0.00     0.210 HD
ENDBRANCH  21  23
ENDBRANCH  17  21
ENDBRANCH  12  15
ENDBRANCH   1  11
BRANCH   4  25
HETATM   25  C   UNL     1       2.919   1.386   5.350  1.00  0.00     0.409 C 
HETATM   26  F   UNL     1       2.771   2.633   5.833  1.00  0.00    -0.169 F 
HETATM   27  F   UNL     1       1.721   0.766   5.450  1.00  0.00    -0.169 F 
HETATM   28  F   UNL     1       3.752   0.727   6.199  1.00  0.00    -0.169 F 
ENDBRANCH   4  25
BRANCH   6  29
HETATM   29  C   UNL     1       5.262   3.909   5.020  1.00  0.00     0.005 A 
HETATM   30  S   UNL     1       6.453   3.603   6.224  1.00  0.00    -0.104 SA
HETATM   31  C   UNL     1       5.777   4.755   7.288  1.00  0.00     0.050 A 
HETATM   32  C   UNL     1       4.685   5.387   6.739  1.00  0.00     0.008 A 
HETATM   33  C   UNL     1       4.397   4.910   5.427  1.00  0.00     0.017 A 
ENDBRANCH   6  29
TORSDOF 6
