REMARK  9 active torsions:
REMARK  status: ('A' for Active; 'I' for Inactive)
REMARK    1  A    between atoms: C_2  and  O_3 
REMARK    2  A    between atoms: O_3  and  C_4 
REMARK    3  A    between atoms: C_5  and  C_6 
REMARK    4  A    between atoms: N_7  and  C_9 
REMARK    5  A    between atoms: C_9  and  C_10 
REMARK       I    between atoms: C_10  and  N_11 
REMARK    6  A    between atoms: N_11  and  C_12 
REMARK    7  A    between atoms: C_20  and  C_21 
REMARK    8  A    between atoms: C_21  and  O_22 
REMARK    9  A    between atoms: C_28  and  O_29 
ROOT
HETATM    1  C   UNL     1      -0.045  -1.491   0.966  1.00  0.00     0.231 C 
HETATM    2  N   UNL     1       0.993  -0.391   1.246  1.00  0.00    -0.054 N 
HETATM    3  H   UNL     1       1.348  -0.127   0.309  1.00  0.00     0.281 HD
HETATM    4  C   UNL     1       0.467   0.882   1.860  1.00  0.00     0.239 C 
HETATM    5  C   UNL     1      -0.378   0.608   3.090  1.00  0.00     0.066 C 
HETATM    6  C   UNL     1      -1.516  -0.369   2.791  1.00  0.00     0.065 C 
HETATM    7  C   UNL     1      -0.941  -1.683   2.221  1.00  0.00     0.055 C 
HETATM    8  C   UNL     1      -2.328  -0.638   4.074  1.00  0.00     0.038 C 
HETATM    9  C   UNL     1      -3.411  -1.696   3.865  1.00  0.00     0.003 C 
HETATM   10  C   UNL     1      -2.824  -2.988   3.312  1.00  0.00     0.001 C 
HETATM   11  C   UNL     1      -2.039  -2.745   2.025  1.00  0.00     0.010 C 
ENDROOT
BRANCH   2  12
HETATM   12  C   UNL     1       2.266  -0.893   1.950  1.00  0.00     0.338 C 
BRANCH  12  13
HETATM   13  C   UNL     1       3.412   0.091   1.685  1.00  0.00     0.248 C 
HETATM   14  N   UNL     1       3.939   0.662   2.826  1.00  0.00    -0.319 N 
HETATM   15  H   UNL     1       3.566   0.402   3.741  1.00  0.00     0.169 HD
HETATM   16  O   UNL     1       3.635   0.386   0.513  1.00  0.00    -0.271 OA
BRANCH  14  17
HETATM   17  C   UNL     1       4.820   1.739   2.877  1.00  0.00     0.094 A 
HETATM   18  S   UNL     1       5.656   2.258   1.497  1.00  0.00    -0.075 SA
HETATM   19  C   UNL     1       6.427   3.502   2.346  1.00  0.00    -0.008 A 
HETATM   20  C   UNL     1       6.057   3.553   3.678  1.00  0.00    -0.026 A 
HETATM   21  C   UNL     1       7.369   4.448   1.663  1.00  0.00     0.047 C 
HETATM   22  C   UNL     1       6.622   4.604   4.598  1.00  0.00     0.041 C 
HETATM   23  C   UNL     1       5.129   2.489   4.010  1.00  0.00     0.080 A 
HETATM   24  C   UNL     1       7.303   5.750   3.833  1.00  0.00     0.005 C 
HETATM   25  C   UNL     1       8.189   5.230   2.696  1.00  0.00     0.005 C 
BRANCH  23  26
HETATM   26  C   UNL     1       4.514   2.192   5.309  1.00  0.00     0.296 C 
HETATM   27  O   UNL     1       3.653   1.322   5.434  1.00  0.00    -0.259 OA
BRANCH  26  28
HETATM   28  O   UNL     1       4.980   2.964   6.326  1.00  0.00    -0.322 OA
HETATM   29  C   UNL     1       4.378   2.718   7.598  1.00  0.00     0.213 C 
ENDBRANCH  26  28
ENDBRANCH  23  26
ENDBRANCH  14  17
ENDBRANCH  12  13
ENDBRANCH   2  12
BRANCH   1  30
HETATM   30  C   UNL     1      -0.709  -1.399  -0.412  1.00  0.00     0.006 A 
HETATM   31  C   UNL     1      -0.864  -2.560  -1.210  1.00  0.00     0.077 A 
HETATM   32  C   UNL     1      -1.450  -2.474  -2.483  1.00  0.00     0.037 A 
HETATM   33  C   UNL     1      -1.901  -1.254  -2.979  1.00  0.00     0.003 A 
HETATM   34  C   UNL     1      -1.776  -0.112  -2.205  1.00  0.00     0.001 A 
HETATM   35  C   UNL     1      -1.194  -0.187  -0.938  1.00  0.00     0.012 A 
BRANCH  31  36
HETATM   36  O   UNL     1      -0.412  -3.740  -0.668  1.00  0.00    -0.351 OA
BRANCH  36  37
HETATM   37  C   UNL     1      -0.703  -4.942  -1.392  1.00  0.00     0.171 C 
HETATM   38  C   UNL     1      -0.250  -6.127  -0.559  1.00  0.00     0.034 C 
ENDBRANCH  36  37
ENDBRANCH  31  36
ENDBRANCH   1  30
BRANCH   6  39
HETATM   39  O   UNL     1      -2.354   0.247   1.817  1.00  0.00    -0.389 OA
HETATM   40  H   UNL     1      -3.188   0.544   2.230  1.00  0.00     0.210 HD
ENDBRANCH   6  39
TORSDOF 9
