REMARK  7 active torsions:
REMARK  status: ('A' for Active; 'I' for Inactive)
REMARK    1  A    between atoms: O_2  and  C_3 
REMARK    2  A    between atoms: C_5  and  C_6 
REMARK    3  A    between atoms: C_6  and  C_7 
REMARK       I    between atoms: C_7  and  N_8 
REMARK    4  A    between atoms: N_8  and  C_9 
REMARK    5  A    between atoms: C_9  and  C_10 
REMARK    6  A    between atoms: C_13  and  N_14 
REMARK       I    between atoms: N_14  and  C_15 
REMARK    7  A    between atoms: C_15  and  C_16 
ROOT
HETATM    1  C   UNL     1       4.538   1.412   0.556  1.00  0.00    -0.040 A 
HETATM    2  C   UNL     1       3.792   2.026  -0.456  1.00  0.00     0.011 A 
HETATM    3  C   UNL     1       3.432   3.376  -0.361  1.00  0.00     0.030 A 
HETATM    4  C   UNL     1       3.820   4.136   0.743  1.00  0.00     0.035 A 
HETATM    5  C   UNL     1       4.551   3.520   1.764  1.00  0.00     0.030 A 
HETATM    6  C   UNL     1       4.908   2.171   1.673  1.00  0.00     0.011 A 
ENDROOT
BRANCH   1   7
HETATM    7  C   UNL     1       4.986  -0.019   0.427  1.00  0.00     0.161 C 
BRANCH   7   8
HETATM    8  N   UNL     1       6.400  -0.077   0.135  1.00  0.00    -0.357 N 
HETATM    9  C   UNL     1       7.090  -1.266   0.219  1.00  0.00     0.222 C 
HETATM   10  O   UNL     1       6.572  -2.317   0.585  1.00  0.00    -0.273 OA
HETATM   11  H   UNL     1       6.799   0.675  -0.412  1.00  0.00     0.162 HD
BRANCH   9  12
HETATM   12  C   UNL     1       8.555  -1.162  -0.161  1.00  0.00     0.141 C 
BRANCH  12  13
HETATM   13  C   UNL     1       8.897  -1.409  -1.613  1.00  0.00    -0.047 A 
HETATM   14  C   UNL     1       7.946  -1.738  -2.591  1.00  0.00     0.044 A 
HETATM   15  C   UNL     1       8.321  -1.960  -3.923  1.00  0.00     0.068 A 
HETATM   16  C   UNL     1       9.664  -1.858  -4.284  1.00  0.00     0.037 A 
HETATM   17  C   UNL     1      10.622  -1.535  -3.323  1.00  0.00     0.003 A 
HETATM   18  C   UNL     1      10.242  -1.311  -2.000  1.00  0.00     0.007 A 
BRANCH  15  19
HETATM   19  O   UNL     1       7.286  -2.265  -4.764  1.00  0.00    -0.356 OA
HETATM   20  C   UNL     1       7.619  -2.545  -6.118  1.00  0.00     0.210 C 
ENDBRANCH  15  19
ENDBRANCH  12  13
ENDBRANCH   9  12
ENDBRANCH   7   8
ENDBRANCH   1   7
BRANCH   4  21
HETATM   21  N   UNL     1       3.550   5.509   0.888  1.00  0.00    -0.321 N 
HETATM   22  C   UNL     1       2.879   6.351   0.019  1.00  0.00     0.279 C 
HETATM   23  O   UNL     1       2.323   6.010  -1.019  1.00  0.00    -0.265 OA
HETATM   24  H   UNL     1       3.922   5.968   1.713  1.00  0.00     0.169 HD
BRANCH  22  25
HETATM   25  C   UNL     1       2.901   7.736   0.461  1.00  0.00     0.142 A 
HETATM   26  O   UNL     1       3.562   8.065   1.619  1.00  0.00    -0.317 OA
HETATM   27  C   UNL     1       3.446   9.410   1.776  1.00  0.00     0.143 A 
HETATM   28  C   UNL     1       2.719   9.956   0.745  1.00  0.00     0.027 A 
HETATM   29  C   UNL     1       2.365   8.879  -0.102  1.00  0.00     0.045 A 
ENDBRANCH  22  25
ENDBRANCH   4  21
TORSDOF 7
