REMARK  5 active torsions:
REMARK  status: ('A' for Active; 'I' for Inactive)
REMARK    1  A    between atoms: C_2  and  C_3 
REMARK    2  A    between atoms: N_4  and  C_5 
REMARK    3  A    between atoms: C_5  and  C_6 
REMARK    4  A    between atoms: C_11  and  N_12 
REMARK       I    between atoms: N_12  and  C_13 
REMARK       I    between atoms: C_13  and  N_14 
REMARK    5  A    between atoms: N_14  and  C_15 
ROOT
HETATM    1  N   UNL     1       3.553  -0.620   2.907  1.00  0.00    -0.306 N 
HETATM    2  C   UNL     1       4.525  -0.668   3.864  1.00  0.00     0.321 C 
HETATM    3  N   UNL     1       4.532   0.351   4.773  1.00  0.00    -0.333 N 
HETATM    4  O   UNL     1       5.284  -1.631   3.911  1.00  0.00    -0.247 OA
HETATM    5  H   UNL     1       3.466  -1.486   2.397  1.00  0.00     0.171 HD
HETATM    6  H   UNL     1       3.611   0.733   4.947  1.00  0.00     0.165 HD
ENDROOT
BRANCH   1   7
HETATM    7  C   UNL     1       2.922   0.488   2.371  1.00  0.00     0.080 A 
HETATM    8  C   UNL     1       1.868   0.459   1.468  1.00  0.00     0.058 A 
HETATM    9  N   UNL     1       1.679   1.783   1.107  1.00  0.00    -0.272 N 
HETATM   10  N   UNL     1       2.439   2.646   1.804  1.00  0.00    -0.182 NA
HETATM   11  C   UNL     1       3.216   1.858   2.543  1.00  0.00     0.170 A 
BRANCH   8  12
HETATM   12  C   UNL     1       1.008  -0.626   0.885  1.00  0.00     0.057 C 
HETATM   13  C   UNL     1       1.116  -1.996   1.531  1.00  0.00     0.011 C 
ENDBRANCH   8  12
BRANCH   9  14
HETATM   14  C   UNL     1       0.803   2.325   0.079  1.00  0.00     0.155 C 
BRANCH  14  15
HETATM   15  C   UNL     1       1.548   2.758  -1.197  1.00  0.00    -0.003 C 
HETATM   16  C   UNL     1       2.192   1.574  -1.922  1.00  0.00     0.011 C 
HETATM   17  C   UNL     1       0.584   3.477  -2.142  1.00  0.00     0.011 C 
ENDBRANCH  14  15
ENDBRANCH   9  14
ENDBRANCH   1   7
BRANCH   3  18
HETATM   18  C   UNL     1       5.507   0.436   5.874  1.00  0.00     0.039 C 
HETATM   19  C   UNL     1       6.899   0.769   5.294  1.00  0.00     0.039 C 
HETATM   20  C   UNL     1       5.091   1.556   6.881  1.00  0.00     0.070 C 
HETATM   21  C   UNL     1       5.573   1.017   8.193  1.00  0.00    -0.049 A 
HETATM   22  C   UNL     1       5.846  -0.350   8.104  1.00  0.00    -0.049 A 
HETATM   23  C   UNL     1       5.718   1.696   9.391  1.00  0.00     0.007 A 
HETATM   24  C   UNL     1       5.569  -0.869   6.727  1.00  0.00     0.070 C 
HETATM   25  C   UNL     1       6.276  -1.067   9.208  1.00  0.00     0.007 A 
HETATM   26  C   UNL     1       6.439  -0.389  10.417  1.00  0.00     0.001 A 
HETATM   27  C   UNL     1       6.160   0.983  10.508  1.00  0.00     0.001 A 
ENDBRANCH   3  18
TORSDOF 5
