REMARK  5 active torsions:
REMARK  status: ('A' for Active; 'I' for Inactive)
REMARK    1  A    between atoms: C_6  and  S_7 
REMARK    2  A    between atoms: S_7  and  C_8 
REMARK    3  A    between atoms: C_8  and  C_9 
REMARK       I    between atoms: C_9  and  N_10 
REMARK    4  A    between atoms: N_10  and  C_11 
REMARK    5  A    between atoms: N_22  and  C_23 
ROOT
HETATM    1  C   UNL     1      -2.497   0.703  -0.615  1.00  0.00     0.001 A 
HETATM    2  C   UNL     1      -1.363   1.513  -0.564  1.00  0.00     0.019 A 
HETATM    3  C   UNL     1      -0.136   0.967  -0.164  1.00  0.00     0.061 A 
HETATM    4  C   UNL     1      -0.035  -0.373   0.188  1.00  0.00     0.075 A 
HETATM    5  N   UNL     1       1.156  -0.930   0.659  1.00  0.00    -0.223 NA
HETATM    6  C   UNL     1       2.231  -0.206   0.646  1.00  0.00     0.177 A 
HETATM    7  N   UNL     1       2.281   1.117   0.197  1.00  0.00    -0.256 N 
HETATM    8  C   UNL     1       1.094   1.779  -0.149  1.00  0.00     0.267 A 
HETATM    9  O   UNL     1       1.001   2.958  -0.485  1.00  0.00    -0.267 OA
HETATM   10  C   UNL     1      -1.174  -1.181   0.119  1.00  0.00     0.032 A 
HETATM   11  C   UNL     1      -2.401  -0.646  -0.280  1.00  0.00     0.002 A 
ENDROOT
BRANCH   6  12
HETATM   12  S   UNL     1       3.666  -0.916   1.383  1.00  0.00    -0.082 SA
BRANCH  12  13
HETATM   13  C   UNL     1       3.245  -2.679   1.460  1.00  0.00     0.185 C 
BRANCH  13  14
HETATM   14  C   UNL     1       2.582  -3.051   2.782  1.00  0.00     0.231 C 
HETATM   15  N   UNL     1       1.288  -2.580   2.902  1.00  0.00    -0.326 N 
HETATM   16  H   UNL     1       0.982  -1.953   2.160  1.00  0.00     0.169 HD
HETATM   17  O   UNL     1       3.177  -3.737   3.609  1.00  0.00    -0.272 OA
BRANCH  15  18
HETATM   18  C   UNL     1       0.366  -2.820   3.940  1.00  0.00     0.037 A 
HETATM   19  C   UNL     1       0.592  -3.729   4.981  1.00  0.00     0.061 A 
HETATM   20  C   UNL     1      -0.419  -3.889   5.902  1.00  0.00     0.065 A 
HETATM   21  C   UNL     1      -1.619  -3.185   5.828  1.00  0.00     0.063 A 
HETATM   22  N   UNL     1      -0.484  -4.722   7.014  1.00  0.00    -0.306 N 
HETATM   23  N   UNL     1      -2.419  -3.583   6.892  1.00  0.00    -0.307 N 
HETATM   24  C   UNL     1      -1.871  -2.279   4.830  1.00  0.00     0.034 A 
HETATM   25  C   UNL     1      -1.725  -4.545   7.640  1.00  0.00     0.325 A 
HETATM   26  H   UNL     1      -3.346  -3.263   7.116  1.00  0.00     0.170 HD
HETATM   27  O   UNL     1      -2.128  -5.116   8.638  1.00  0.00    -0.247 OA
HETATM   28  C   UNL     1      -0.859  -2.103   3.878  1.00  0.00     0.032 A 
HETATM   29  H   UNL     1       0.226  -5.360   7.337  1.00  0.00     0.170 HD
ENDBRANCH  15  18
ENDBRANCH  13  14
ENDBRANCH  12  13
ENDBRANCH   6  12
BRANCH   7  30
HETATM   30  C   UNL     1       3.509   1.836   0.003  1.00  0.00     0.046 A 
HETATM   31  C   UNL     1       3.667   3.138   0.503  1.00  0.00     0.055 A 
HETATM   32  C   UNL     1       4.845   3.859   0.272  1.00  0.00     0.058 A 
HETATM   33 CL   UNL     1       4.959   5.448   0.942  1.00  0.00    -0.082 Cl
HETATM   34  C   UNL     1       5.878   3.289  -0.477  1.00  0.00     0.055 A 
HETATM   35 CL   UNL     1       7.354   4.120  -0.811  1.00  0.00    -0.083 Cl
HETATM   36  C   UNL     1       5.726   2.001  -0.994  1.00  0.00     0.028 A 
HETATM   37  C   UNL     1       4.549   1.281  -0.759  1.00  0.00     0.032 A 
ENDBRANCH   7  30
TORSDOF 5
