REMARK  6 active torsions:
REMARK  status: ('A' for Active; 'I' for Inactive)
REMARK    1  A    between atoms: N_3  and  C_4 
REMARK    2  A    between atoms: C_12  and  C_13 
REMARK       I    between atoms: C_13  and  N_14 
REMARK    3  A    between atoms: N_14  and  N_15 
REMARK       I    between atoms: N_15  and  C_16 
REMARK    4  A    between atoms: C_16  and  C_17 
REMARK    5  A    between atoms: C_17  and  C_18 
REMARK    6  A    between atoms: C_21  and  O_22 
ROOT
HETATM    1  C   UNL     1       5.829  -1.463   0.552  1.00  0.00     0.272 C 
HETATM    2  N   UNL     1       6.941  -0.883   1.125  1.00  0.00    -0.263 N 
HETATM    3  O   UNL     1       5.840  -2.630   0.159  1.00  0.00    -0.266 OA
HETATM    4  H   UNL     1       6.912   0.011   1.607  1.00  0.00     0.190 HD
ENDROOT
BRANCH   1   5
HETATM    5  C   UNL     1       4.630  -0.628   0.499  1.00  0.00     0.058 A 
HETATM    6  C   UNL     1       4.524   0.757   0.369  1.00  0.00     0.029 A 
HETATM    7  N   UNL     1       3.167   1.103   0.404  1.00  0.00    -0.319 N 
HETATM    8  C   UNL     1       5.607   1.753   0.085  1.00  0.00     0.070 C 
HETATM    9  C   UNL     1       2.424  -0.072   0.465  1.00  0.00     0.014 A 
HETATM   10  C   UNL     1       0.939  -0.146   0.581  1.00  0.00     0.068 C 
HETATM   11  C   UNL     1       3.305  -1.131   0.500  1.00  0.00     0.044 A 
BRANCH   7  12
HETATM   12  C   UNL     1       2.637   2.429   0.389  1.00  0.00     0.039 A 
HETATM   13  C   UNL     1       3.214   3.424   1.188  1.00  0.00     0.030 A 
HETATM   14  C   UNL     1       2.686   4.718   1.187  1.00  0.00     0.002 A 
HETATM   15  C   UNL     1       1.584   5.023   0.389  1.00  0.00     0.000 A 
HETATM   16  C   UNL     1       1.009   4.037  -0.411  1.00  0.00     0.002 A 
HETATM   17  C   UNL     1       1.532   2.742  -0.413  1.00  0.00     0.030 A 
ENDBRANCH   7  12
ENDBRANCH   1   5
BRANCH   2  18
HETATM   18  N   UNL     1       8.088  -1.665   1.298  1.00  0.00    -0.267 N 
HETATM   19  C   UNL     1       9.227  -1.068   1.796  1.00  0.00     0.240 C 
HETATM   20  O   UNL     1       9.241   0.095   2.200  1.00  0.00    -0.272 OA
HETATM   21  H   UNL     1       8.057  -2.606   0.908  1.00  0.00     0.190 HD
BRANCH  19  22
HETATM   22  C   UNL     1      10.455  -1.961   1.780  1.00  0.00     0.143 C 
BRANCH  22  23
HETATM   23  C   UNL     1      10.881  -2.439   3.147  1.00  0.00    -0.049 A 
HETATM   24  C   UNL     1      10.802  -3.798   3.488  1.00  0.00     0.010 A 
HETATM   25  C   UNL     1      11.239  -4.244   4.738  1.00  0.00     0.037 A 
HETATM   26  C   UNL     1      11.753  -3.330   5.651  1.00  0.00     0.065 A 
HETATM   27  C   UNL     1      11.830  -1.979   5.336  1.00  0.00     0.037 A 
HETATM   28  C   UNL     1      11.396  -1.534   4.087  1.00  0.00     0.010 A 
BRANCH  26  29
HETATM   29  O   UNL     1      12.202  -3.724   6.877  1.00  0.00    -0.361 OA
HETATM   30  H   UNL     1      12.102  -4.687   6.949  1.00  0.00     0.217 HD
ENDBRANCH  26  29
ENDBRANCH  22  23
ENDBRANCH  19  22
ENDBRANCH   2  18
TORSDOF 6
