REMARK  6 active torsions:
REMARK  status: ('A' for Active; 'I' for Inactive)
REMARK    1  A    between atoms: C_2  and  N_3 
REMARK    2  A    between atoms: C_2  and  C_21 
REMARK       I    between atoms: N_3  and  C_4 
REMARK       I    between atoms: C_4  and  N_5 
REMARK    3  A    between atoms: N_5  and  C_6 
REMARK    4  A    between atoms: C_9  and  O_10 
REMARK    5  A    between atoms: O_10  and  C_11 
REMARK    6  A    between atoms: C_11  and  C_12 
ROOT
HETATM    1  C   UNL     1       1.979  -0.340  -2.482  1.00  0.00     0.036 A 
HETATM    2  C   UNL     1       2.899  -1.380  -2.620  1.00  0.00     0.032 A 
HETATM    3  C   UNL     1       2.486  -2.718  -2.556  1.00  0.00     0.039 A 
HETATM    4  C   UNL     1       1.145  -3.034  -2.348  1.00  0.00     0.068 A 
HETATM    5  C   UNL     1       0.223  -1.997  -2.202  1.00  0.00     0.039 A 
HETATM    6  C   UNL     1       0.634  -0.660  -2.267  1.00  0.00     0.032 A 
ENDROOT
BRANCH   1   7
HETATM    7  N   UNL     1       2.329   1.024  -2.526  1.00  0.00    -0.309 N 
HETATM    8  C   UNL     1       3.561   1.561  -2.825  1.00  0.00     0.321 C 
HETATM    9  N   UNL     1       3.564   2.924  -2.666  1.00  0.00    -0.332 N 
HETATM   10  O   UNL     1       4.554   0.952  -3.199  1.00  0.00    -0.247 OA
HETATM   11  H   UNL     1       2.847   3.368  -2.110  1.00  0.00     0.165 HD
HETATM   12  H   UNL     1       1.578   1.689  -2.419  1.00  0.00     0.170 HD
BRANCH   9  13
HETATM   13  C   UNL     1       4.782   3.707  -2.853  1.00  0.00     0.155 C 
HETATM   14  C   UNL     1       5.753   3.507  -1.688  1.00  0.00     0.041 C 
BRANCH  13  15
HETATM   15  C   UNL     1       4.391   5.155  -2.976  1.00  0.00     0.169 A 
HETATM   16  N   UNL     1       5.066   6.041  -3.723  1.00  0.00    -0.156 NA
HETATM   17  N   UNL     1       4.364   7.165  -3.513  1.00  0.00    -0.270 N 
HETATM   18  H   UNL     1       4.652   8.024  -3.968  1.00  0.00     0.190 HD
HETATM   19  C   UNL     1       3.321   6.945  -2.670  1.00  0.00     0.227 A 
HETATM   20  N   UNL     1       3.304   5.684  -2.308  1.00  0.00    -0.223 NA
ENDBRANCH  13  15
ENDBRANCH   9  13
ENDBRANCH   1   7
BRANCH   4  21
HETATM   21  O   UNL     1       0.620  -4.294  -2.267  1.00  0.00    -0.351 OA
BRANCH  21  22
HETATM   22  C   UNL     1       1.537  -5.381  -2.421  1.00  0.00     0.180 C 
BRANCH  22  23
HETATM   23  C   UNL     1       0.767  -6.711  -2.322  1.00  0.00     0.010 C 
HETATM   24  C   UNL     1       1.682  -7.906  -2.632  1.00  0.00     0.007 C 
HETATM   25  C   UNL     1       2.678  -8.200  -1.511  1.00  0.00     0.000 C 
HETATM   26  C   UNL     1       1.976  -8.380  -0.168  1.00  0.00     0.000 C 
HETATM   27  C   UNL     1       1.073  -7.198   0.169  1.00  0.00     0.000 C 
HETATM   28  C   UNL     1       0.084  -6.901  -0.957  1.00  0.00     0.007 C 
ENDBRANCH  22  23
ENDBRANCH  21  22
ENDBRANCH   4  21
TORSDOF 6
