REMARK  5 active torsions:
REMARK  status: ('A' for Active; 'I' for Inactive)
REMARK    1  A    between atoms: C_2  and  N_3 
REMARK    2  A    between atoms: C_7  and  N_8 
REMARK       I    between atoms: N_8  and  C_9 
REMARK    3  A    between atoms: C_9  and  C_10 
REMARK    4  A    between atoms: C_13  and  C_14 
REMARK    5  A    between atoms: C_14  and  C_15 
ROOT
HETATM    1  N   UNL     1      -2.041  -5.574  -5.230  1.00  0.00    -0.323 N 
HETATM    2  C   UNL     1      -0.675  -5.641  -5.023  1.00  0.00     0.256 C 
HETATM    3  O   UNL     1      -0.109  -5.982  -3.991  1.00  0.00    -0.267 OA
HETATM    4  H   UNL     1      -2.362  -5.477  -6.183  1.00  0.00     0.169 HD
ENDROOT
BRANCH   1   5
HETATM    5  C   UNL     1      -3.054  -5.618  -4.246  1.00  0.00     0.035 A 
HETATM    6  C   UNL     1      -2.796  -5.679  -2.874  1.00  0.00     0.044 A 
HETATM    7  C   UNL     1      -3.860  -5.629  -1.945  1.00  0.00     0.005 A 
HETATM    8  C   UNL     1      -5.168  -5.520  -2.418  1.00  0.00     0.046 A 
HETATM    9  C   UNL     1      -3.916  -5.655  -0.517  1.00  0.00     0.003 A 
HETATM   10  N   UNL     1      -5.992  -5.451  -1.310  1.00  0.00    -0.346 N 
HETATM   11  C   UNL     1      -5.452  -5.489  -3.792  1.00  0.00     0.033 A 
HETATM   12  C   UNL     1      -5.257  -5.545  -0.143  1.00  0.00     0.046 A 
HETATM   13  C   UNL     1      -5.651  -5.539   1.206  1.00  0.00     0.030 A 
HETATM   14  C   UNL     1      -4.658  -5.644   2.185  1.00  0.00     0.002 A 
HETATM   15  C   UNL     1      -3.317  -5.752   1.835  1.00  0.00     0.001 A 
HETATM   16  C   UNL     1      -2.934  -5.759   0.491  1.00  0.00     0.014 A 
HETATM   17  C   UNL     1      -4.377  -5.536  -4.689  1.00  0.00     0.032 A 
BRANCH  10  18
HETATM   18  C   UNL     1      -7.434  -5.264  -1.362  1.00  0.00     0.125 C 
HETATM   19  C   UNL     1      -8.187  -6.582  -1.372  1.00  0.00     0.027 C 
ENDBRANCH  10  18
ENDBRANCH   1   5
BRANCH   2  20
HETATM   20  C   UNL     1       0.169  -5.262  -6.196  1.00  0.00     0.032 A 
HETATM   21  C   UNL     1      -0.266  -4.343  -7.159  1.00  0.00     0.017 A 
HETATM   22  C   UNL     1       0.588  -3.951  -8.195  1.00  0.00     0.008 A 
HETATM   23  C   UNL     1       1.896  -4.448  -8.268  1.00  0.00    -0.057 A 
HETATM   24  C   UNL     1       2.321  -5.378  -7.309  1.00  0.00     0.008 A 
HETATM   25  C   UNL     1       1.467  -5.778  -6.279  1.00  0.00     0.017 A 
BRANCH  23  26
HETATM   26  C   UNL     1       2.856  -3.955  -9.328  1.00  0.00     0.053 C 
BRANCH  26  27
HETATM   27  C   UNL     1       3.705  -2.734  -8.939  1.00  0.00     0.091 C 
HETATM   28  C   UNL     1       4.477  -2.970  -7.665  1.00  0.00     0.229 C 
HETATM   29  O   UNL     1       5.361  -3.797  -7.515  1.00  0.00    -0.273 OA
HETATM   30  N   UNL     1       4.000  -2.142  -6.703  1.00  0.00    -0.297 N 
HETATM   31  C   UNL     1       3.054  -1.283  -7.156  1.00  0.00     0.225 C 
HETATM   32  H   UNL     1       4.308  -2.168  -5.744  1.00  0.00     0.171 HD
HETATM   33  O   UNL     1       2.460  -0.458  -6.483  1.00  0.00    -0.273 OA
HETATM   34  C   UNL     1       2.911  -1.461  -8.639  1.00  0.00     0.117 C 
ENDBRANCH  26  27
ENDBRANCH  23  26
ENDBRANCH   2  20
TORSDOF 5
