REMARK  3 active torsions:
REMARK  status: ('A' for Active; 'I' for Inactive)
REMARK    1  A    between atoms: C_2  and  C_3 
REMARK       I    between atoms: C_3  and  N_4 
REMARK    2  A    between atoms: N_4  and  N_5 
REMARK    3  A    between atoms: C_21  and  C_22 
ROOT
HETATM    1  C   UNL     1      -0.362   2.620   0.415  1.00  0.00     0.288 C 
HETATM    2  N   UNL     1       0.528   3.353  -0.344  1.00  0.00    -0.251 N 
HETATM    3  O   UNL     1      -1.540   2.938   0.563  1.00  0.00    -0.264 OA
HETATM    4  H   UNL     1       1.522   3.191  -0.241  1.00  0.00     0.191 HD
ENDROOT
BRANCH   2   5
HETATM    5  N   UNL     1       0.184   4.663  -0.645  1.00  0.00    -0.167 N 
HETATM    6  C   UNL     1       0.835   5.733  -0.097  1.00  0.00     0.345 C 
HETATM    7  O   UNL     1       1.744   5.709   0.716  1.00  0.00    -0.245 OA
HETATM    8  N   UNL     1       0.331   6.876  -0.679  1.00  0.00    -0.323 N 
HETATM    9  C   UNL     1      -0.705   6.585  -1.658  1.00  0.00     0.117 C 
HETATM   10  H   UNL     1       0.666   7.793  -0.412  1.00  0.00     0.165 HD
HETATM   11  C   UNL     1      -0.348   7.137  -3.041  1.00  0.00     0.041 C 
HETATM   12  C   UNL     1      -2.071   7.079  -1.172  1.00  0.00     0.041 C 
HETATM   13  C   UNL     1      -0.661   5.038  -1.662  1.00  0.00     0.275 C 
HETATM   14  C   UNL     1      -0.473   8.659  -3.102  1.00  0.00     0.003 C 
HETATM   15  C   UNL     1      -1.845   9.133  -2.632  1.00  0.00     0.000 C 
HETATM   16  C   UNL     1      -2.185   8.602  -1.241  1.00  0.00     0.003 C 
HETATM   17  O   UNL     1      -1.260   4.314  -2.445  1.00  0.00    -0.268 OA
ENDBRANCH   2   5
BRANCH   1  18
HETATM   18  C   UNL     1       0.202   1.462   1.061  1.00  0.00     0.121 A 
HETATM   19  C   UNL     1       1.491   0.988   1.217  1.00  0.00     0.066 A 
HETATM   20  C   UNL     1       1.385  -0.154   2.050  1.00  0.00     0.061 A 
HETATM   21  N   UNL     1       0.103  -0.415   2.338  1.00  0.00    -0.178 NA
HETATM   22  N   UNL     1      -0.582   0.569   1.738  1.00  0.00    -0.272 N 
HETATM   23  H   UNL     1      -1.593   0.595   1.834  1.00  0.00     0.189 HD
BRANCH  20  24
HETATM   24  C   UNL     1       2.461  -1.040   2.630  1.00  0.00     0.039 C 
HETATM   25  C   UNL     1       2.935  -2.120   1.645  1.00  0.00     0.011 C 
HETATM   26  C   UNL     1       3.978  -1.621   0.650  1.00  0.00     0.001 C 
HETATM   27  C   UNL     1       5.165  -0.984   1.363  1.00  0.00     0.000 C 
HETATM   28  C   UNL     1       4.725   0.158   2.270  1.00  0.00     0.001 C 
HETATM   29  C   UNL     1       3.637  -0.268   3.256  1.00  0.00     0.011 C 
ENDBRANCH  20  24
ENDBRANCH   1  18
TORSDOF 3
