REMARK  3 active torsions:
REMARK  status: ('A' for Active; 'I' for Inactive)
REMARK    1  A    between atoms: O_2  and  C_3 
REMARK    2  A    between atoms: C_5  and  N_6 
REMARK       I    between atoms: N_6  and  C_7 
REMARK       I    between atoms: C_7  and  N_8 
REMARK    3  A    between atoms: C_11  and  C_12 
ROOT
HETATM    1  N   UNL     1       0.808   6.350   1.516  1.00  0.00    -0.306 N 
HETATM    2  C   UNL     1       1.254   5.152   1.003  1.00  0.00     0.323 C 
HETATM    3  N   UNL     1       0.489   4.032   1.358  1.00  0.00    -0.330 N 
HETATM    4  C   UNL     1      -0.629   4.092   2.297  1.00  0.00     0.155 C 
HETATM    5  C   UNL     1      -1.340   2.792   2.484  1.00  0.00     0.001 C 
HETATM    6  C   UNL     1      -1.026   1.639   1.871  1.00  0.00    -0.046 C 
HETATM    7  C   UNL     1       0.114   1.603   0.890  1.00  0.00     0.059 C 
HETATM    8  C   UNL     1       1.117   2.725   1.155  1.00  0.00     0.132 C 
HETATM    9  O   UNL     1       2.265   5.039   0.312  1.00  0.00    -0.247 OA
HETATM   10  H   UNL     1       0.021   6.336   2.145  1.00  0.00     0.171 HD
ENDROOT
BRANCH   1  11
HETATM   11  C   UNL     1       1.410   7.626   1.405  1.00  0.00     0.077 A 
HETATM   12  C   UNL     1       2.501   7.926   0.584  1.00  0.00     0.069 A 
HETATM   13  C   UNL     1       3.036   9.221   0.568  1.00  0.00     0.070 A 
HETATM   14  C   UNL     1       2.483  10.214   1.384  1.00  0.00     0.040 A 
HETATM   15  C   UNL     1       1.391   9.930   2.198  1.00  0.00     0.047 A 
HETATM   16  C   UNL     1       0.863   8.645   2.196  1.00  0.00     0.143 A 
HETATM   17  F   UNL     1      -0.186   8.372   2.989  1.00  0.00    -0.204 F 
BRANCH  13  18
HETATM   18  O   UNL     1       4.096   9.641  -0.190  1.00  0.00    -0.356 OA
HETATM   19  C   UNL     1       4.628   8.708  -1.123  1.00  0.00     0.210 C 
ENDBRANCH  13  18
ENDBRANCH   1  11
BRANCH   6  20
HETATM   20  C   UNL     1      -1.694   0.393   2.105  1.00  0.00    -0.002 A 
HETATM   21  C   UNL     1      -2.170  -0.139   3.350  1.00  0.00     0.003 A 
HETATM   22  C   UNL     1      -2.760  -1.374   3.070  1.00  0.00     0.043 A 
HETATM   23  C   UNL     1      -2.151   0.297   4.694  1.00  0.00     0.014 A 
HETATM   24  C   UNL     1      -3.344  -2.179   4.057  1.00  0.00     0.030 A 
HETATM   25  N   UNL     1      -2.634  -1.588   1.717  1.00  0.00    -0.364 N 
HETATM   26  C   UNL     1      -3.324  -1.713   5.374  1.00  0.00     0.002 A 
HETATM   27  C   UNL     1      -2.734  -0.493   5.692  1.00  0.00     0.001 A 
HETATM   28  H   UNL     1      -2.968  -2.410   1.235  1.00  0.00     0.165 HD
HETATM   29  C   UNL     1      -1.992  -0.532   1.126  1.00  0.00     0.101 A 
ENDBRANCH   6  20
TORSDOF 3
