REMARK  3 active torsions:
REMARK  status: ('A' for Active; 'I' for Inactive)
REMARK    1  A    between atoms: C_2  and  N_3 
REMARK    2  A    between atoms: C_6  and  C_7 
REMARK       I    between atoms: C_7  and  N_8 
REMARK    3  A    between atoms: N_8  and  C_9 
ROOT
HETATM    1  C   UNL     1       4.050   0.106   5.477  1.00  0.00     0.036 A 
HETATM    2  C   UNL     1       2.982   0.439   4.643  1.00  0.00     0.049 A 
HETATM    3  C   UNL     1       2.751   1.774   4.236  1.00  0.00     0.061 A 
HETATM    4  C   UNL     1       3.601   2.791   4.690  1.00  0.00     0.050 A 
HETATM    5  N   UNL     1       3.530   4.152   4.352  1.00  0.00    -0.324 N 
HETATM    6  C   UNL     1       3.082   4.725   3.194  1.00  0.00     0.245 C 
HETATM    7  O   UNL     1       3.265   5.935   3.041  1.00  0.00    -0.271 OA
HETATM    8  C   UNL     1       2.588   3.812   2.077  1.00  0.00     0.180 C 
HETATM    9  N   UNL     1       1.464   3.003   2.518  1.00  0.00    -0.334 N 
HETATM   10  C   UNL     1       1.506   1.997   3.453  1.00  0.00     0.256 C 
HETATM   11  O   UNL     1       0.540   1.264   3.656  1.00  0.00    -0.267 OA
HETATM   12  C   UNL     1       2.039   4.605   0.884  1.00  0.00     0.037 C 
HETATM   13  C   UNL     1       0.925   3.715   0.351  1.00  0.00     0.022 C 
HETATM   14  C   UNL     1       0.327   3.140   1.624  1.00  0.00     0.127 C 
HETATM   15  C   UNL     1       4.632   2.458   5.582  1.00  0.00     0.033 A 
HETATM   16  C   UNL     1       4.866   1.131   5.954  1.00  0.00     0.032 A 
HETATM   17  H   UNL     1       4.033   4.818   4.928  1.00  0.00     0.169 HD
ENDROOT
BRANCH   1  18
HETATM   18  N   UNL     1       4.365  -1.207   5.886  1.00  0.00    -0.323 N 
HETATM   19  C   UNL     1       3.690  -2.373   5.577  1.00  0.00     0.257 C 
HETATM   20  O   UNL     1       2.712  -2.473   4.845  1.00  0.00    -0.267 OA
HETATM   21  H   UNL     1       5.211  -1.309   6.431  1.00  0.00     0.169 HD
BRANCH  19  22
HETATM   22  C   UNL     1       4.271  -3.622   6.141  1.00  0.00     0.044 A 
HETATM   23  C   UNL     1       4.867  -3.690   7.427  1.00  0.00     0.008 A 
HETATM   24  C   UNL     1       5.432  -4.910   7.842  1.00  0.00     0.045 A 
HETATM   25  C   UNL     1       5.024  -2.782   8.515  1.00  0.00     0.032 A 
HETATM   26  N   UNL     1       5.974  -4.707   9.101  1.00  0.00    -0.352 N 
HETATM   27  C   UNL     1       5.378  -6.057   7.030  1.00  0.00     0.030 A 
HETATM   28  C   UNL     1       5.722  -3.420   9.510  1.00  0.00     0.092 A 
HETATM   29  C   UNL     1       4.751  -5.977   5.786  1.00  0.00     0.003 A 
HETATM   30  C   UNL     1       4.207  -4.779   5.344  1.00  0.00     0.018 A 
BRANCH  26  31
HETATM   31  C   UNL     1       6.692  -5.675   9.935  1.00  0.00     0.081 C 
HETATM   32  C   UNL     1       7.966  -6.205   9.276  1.00  0.00     0.032 C 
HETATM   33  C   UNL     1       5.784  -6.799  10.432  1.00  0.00     0.032 C 
ENDBRANCH  26  31
ENDBRANCH  19  22
ENDBRANCH   1  18
TORSDOF 3
