REMARK  6 active torsions:
REMARK  status: ('A' for Active; 'I' for Inactive)
REMARK    1  A    between atoms: C_4  and  C_5 
REMARK    2  A    between atoms: C_5  and  C_6 
REMARK    3  A    between atoms: C_6  and  C_7 
REMARK    4  A    between atoms: C_7  and  C_8 
REMARK       I    between atoms: C_8  and  N_9 
REMARK    5  A    between atoms: N_9  and  C_10 
REMARK    6  A    between atoms: C_12  and  C_13 
ROOT
HETATM    1  C   UNL     1       5.648  -2.529  -0.002  1.00  0.00     0.222 C 
HETATM    2  N   UNL     1       4.870  -3.645  -0.053  1.00  0.00    -0.327 N 
HETATM    3  O   UNL     1       6.869  -2.699  -0.078  1.00  0.00    -0.273 OA
HETATM    4  H   UNL     1       5.466  -4.460  -0.158  1.00  0.00     0.169 HD
ENDROOT
BRANCH   2   5
HETATM    5  C   UNL     1       3.491  -3.914   0.043  1.00  0.00     0.035 A 
HETATM    6  C   UNL     1       2.477  -2.971   0.220  1.00  0.00     0.042 A 
HETATM    7  C   UNL     1       1.129  -3.364   0.337  1.00  0.00    -0.021 A 
HETATM    8  C   UNL     1       0.802  -4.722   0.269  1.00  0.00     0.012 A 
HETATM    9  C   UNL     1       1.801  -5.672   0.080  1.00  0.00     0.003 A 
HETATM   10  C   UNL     1       3.132  -5.269  -0.032  1.00  0.00     0.029 A 
BRANCH   7  11
HETATM   11  C   UNL     1       0.080  -2.382   0.550  1.00  0.00     0.010 A 
HETATM   12  C   UNL     1      -1.123  -2.463   1.290  1.00  0.00     0.152 A 
HETATM   13  N   UNL     1      -1.843  -1.339   1.232  1.00  0.00    -0.187 NA
HETATM   14  N   UNL     1      -1.105  -0.534   0.452  1.00  0.00    -0.289 N 
HETATM   15  H   UNL     1      -1.457   0.397   0.253  1.00  0.00     0.188 HD
HETATM   16  C   UNL     1       0.055  -1.110   0.018  1.00  0.00     0.123 A 
ENDBRANCH   7  11
ENDBRANCH   2   5
BRANCH   1  17
HETATM   17  C   UNL     1       5.051  -1.146   0.137  1.00  0.00     0.103 C 
BRANCH  17  18
HETATM   18  C   UNL     1       6.099  -0.032   0.223  1.00  0.00     0.014 C 
BRANCH  18  19
HETATM   19  C   UNL     1       6.791   0.253  -1.116  1.00  0.00     0.039 C 
BRANCH  19  20
HETATM   20  C   UNL     1       7.812   1.357  -0.980  1.00  0.00    -0.058 A 
HETATM   21  C   UNL     1       9.052   1.100  -0.378  1.00  0.00     0.007 A 
HETATM   22  C   UNL     1       9.991   2.121  -0.226  1.00  0.00     0.001 A 
HETATM   23  C   UNL     1       9.701   3.407  -0.675  1.00  0.00     0.000 A 
HETATM   24  C   UNL     1       8.472   3.674  -1.277  1.00  0.00     0.001 A 
HETATM   25  C   UNL     1       7.530   2.654  -1.427  1.00  0.00     0.007 A 
ENDBRANCH  19  20
ENDBRANCH  18  19
ENDBRANCH  17  18
ENDBRANCH   1  17
TORSDOF 6
