REMARK  10 active torsions:
REMARK  status: ('A' for Active; 'I' for Inactive)
REMARK    1  A    between atoms: C_2  and  O_3 
REMARK    2  A    between atoms: O_3  and  C_4 
REMARK    3  A    between atoms: C_4  and  C_5 
REMARK    4  A    between atoms: C_7  and  N_8 
REMARK    5  A    between atoms: N_8  and  C_9 
REMARK    6  A    between atoms: C_9  and  N_10 
REMARK       I    between atoms: N_10  and  C_11 
REMARK    7  A    between atoms: C_11  and  C_12 
REMARK    8  A    between atoms: C_21  and  N_22 
REMARK    9  A    between atoms: N_25  and  C_27 
REMARK   10  A    between atoms: C_27  and  C_28 
ROOT
HETATM    1  C   UNL     1       4.672  -0.327  -0.422  1.00  0.00     0.041 A 
HETATM    2  C   UNL     1       4.419   1.049  -0.339  1.00  0.00     0.049 A 
HETATM    3  C   UNL     1       5.139   1.955  -1.131  1.00  0.00     0.062 A 
HETATM    4  C   UNL     1       6.092   1.482  -2.068  1.00  0.00     0.057 A 
HETATM    5  C   UNL     1       6.327   0.098  -2.131  1.00  0.00     0.033 A 
HETATM    6  C   UNL     1       5.632  -0.799  -1.318  1.00  0.00     0.020 A 
ENDROOT
BRANCH   3   7
HETATM    7  N   UNL     1       5.076   3.354  -0.892  1.00  0.00    -0.331 N 
HETATM    8  H   UNL     1       5.971   3.806  -1.025  1.00  0.00     0.168 HD
BRANCH   7   9
HETATM    9  C   UNL     1       4.221   4.021  -0.080  1.00  0.00     0.179 C 
HETATM   10  S   UNL     1       4.815   5.210   0.932  1.00  0.00    -0.040 SA
BRANCH   9  11
HETATM   11  N   UNL     1       2.880   3.786  -0.117  1.00  0.00    -0.299 N 
HETATM   12  C   UNL     1       2.127   3.539  -1.265  1.00  0.00     0.258 C 
HETATM   13  O   UNL     1       2.583   3.205  -2.353  1.00  0.00    -0.267 OA
HETATM   14  H   UNL     1       2.386   4.206   0.658  1.00  0.00     0.171 HD
BRANCH  12  15
HETATM   15  C   UNL     1       0.652   3.741  -1.101  1.00  0.00     0.038 A 
HETATM   16  C   UNL     1      -0.278   2.859  -1.688  1.00  0.00    -0.046 A 
HETATM   17  C   UNL     1       0.141   1.674  -2.514  1.00  0.00     0.049 C 
HETATM   18  C   UNL     1      -1.651   3.110  -1.518  1.00  0.00     0.007 A 
HETATM   19  C   UNL     1      -2.096   4.205  -0.777  1.00  0.00     0.001 A 
HETATM   20  C   UNL     1      -1.177   5.081  -0.210  1.00  0.00     0.001 A 
HETATM   21  C   UNL     1       0.190   4.859  -0.380  1.00  0.00     0.017 A 
ENDBRANCH  12  15
ENDBRANCH   9  11
ENDBRANCH   7   9
ENDBRANCH   3   7
BRANCH   4  22
HETATM   22  N   UNL     1       6.763   2.299  -2.973  1.00  0.00    -0.376 N 
HETATM   23  C   UNL     1       6.030   3.341  -3.706  1.00  0.00     0.150 C 
HETATM   24  C   UNL     1       6.613   3.476  -5.129  1.00  0.00     0.255 C 
HETATM   25  N   UNL     1       8.134   3.684  -5.075  1.00  0.00    -0.064 N 
HETATM   26  H   UNL     1       8.289   4.560  -4.563  1.00  0.00     0.280 HD
HETATM   27  C   UNL     1       8.817   2.563  -4.293  1.00  0.00     0.255 C 
HETATM   28  C   UNL     1       8.217   2.426  -2.879  1.00  0.00     0.150 C 
BRANCH  25  29
HETATM   29  C   UNL     1       8.744   3.853  -6.443  1.00  0.00     0.273 C 
BRANCH  29  30
HETATM   30  C   UNL     1       8.414   5.179  -7.069  1.00  0.00    -0.033 A 
HETATM   31  C   UNL     1       9.019   6.356  -6.599  1.00  0.00     0.009 A 
HETATM   32  C   UNL     1       8.696   7.590  -7.164  1.00  0.00     0.001 A 
HETATM   33  C   UNL     1       7.768   7.662  -8.200  1.00  0.00     0.000 A 
HETATM   34  C   UNL     1       7.165   6.501  -8.678  1.00  0.00     0.001 A 
HETATM   35  C   UNL     1       7.485   5.264  -8.117  1.00  0.00     0.009 A 
ENDBRANCH  29  30
ENDBRANCH  25  29
ENDBRANCH   4  22
BRANCH   1  36
HETATM   36  C   UNL     1       3.928  -1.236   0.490  1.00  0.00     0.293 C 
HETATM   37  O   UNL     1       2.925  -0.901   1.097  1.00  0.00    -0.259 OA
BRANCH  36  38
HETATM   38  O   UNL     1       4.563  -2.430   0.571  1.00  0.00    -0.318 OA
BRANCH  38  39
HETATM   39  C   UNL     1       3.995  -3.386   1.481  1.00  0.00     0.174 C 
HETATM   40  C   UNL     1       2.986  -4.252   0.753  1.00  0.00     0.034 C 
ENDBRANCH  38  39
ENDBRANCH  36  38
ENDBRANCH   1  36
TORSDOF 10
