REMARK  5 active torsions:
REMARK  status: ('A' for Active; 'I' for Inactive)
REMARK    1  A    between atoms: C_2  and  C_3 
REMARK    2  A    between atoms: C_6  and  C_7 
REMARK    3  A    between atoms: C_7  and  C_8 
REMARK       I    between atoms: C_8  and  N_9 
REMARK    4  A    between atoms: N_9  and  C_10 
REMARK    5  A    between atoms: C_12  and  C_13 
ROOT
HETATM    1  C   UNL     1       3.832  -5.635   3.105  1.00  0.00     0.226 C 
HETATM    2  N   UNL     1       2.745  -5.499   2.258  1.00  0.00    -0.327 N 
HETATM    3  O   UNL     1       4.323  -6.699   3.477  1.00  0.00    -0.273 OA
HETATM    4  H   UNL     1       2.372  -4.563   2.146  1.00  0.00     0.169 HD
ENDROOT
BRANCH   2   5
HETATM    5  C   UNL     1       2.031  -6.530   1.610  1.00  0.00     0.035 A 
HETATM    6  C   UNL     1       2.453  -7.864   1.569  1.00  0.00     0.042 A 
HETATM    7  C   UNL     1       1.712  -8.849   0.890  1.00  0.00    -0.021 A 
HETATM    8  C   UNL     1       0.525  -8.467   0.252  1.00  0.00     0.012 A 
HETATM    9  C   UNL     1       0.097  -7.139   0.280  1.00  0.00     0.003 A 
HETATM   10  C   UNL     1       0.850  -6.175   0.951  1.00  0.00     0.029 A 
BRANCH   7  11
HETATM   11  C   UNL     1       2.165 -10.236   0.830  1.00  0.00     0.010 A 
HETATM   12  C   UNL     1       1.723 -11.325   0.037  1.00  0.00     0.152 A 
HETATM   13  N   UNL     1       2.400 -12.452   0.270  1.00  0.00    -0.187 NA
HETATM   14  N   UNL     1       3.284 -12.094   1.213  1.00  0.00    -0.289 N 
HETATM   15  H   UNL     1       3.930 -12.795   1.560  1.00  0.00     0.188 HD
HETATM   16  C   UNL     1       3.183 -10.785   1.583  1.00  0.00     0.123 A 
ENDBRANCH   7  11
ENDBRANCH   2   5
BRANCH   1  17
HETATM   17  C   UNL     1       4.489  -4.323   3.511  1.00  0.00     0.141 C 
BRANCH  17  18
HETATM   18  C   UNL     1       3.568  -3.160   3.796  1.00  0.00    -0.049 A 
HETATM   19  C   UNL     1       2.547  -3.262   4.749  1.00  0.00     0.008 A 
HETATM   20  C   UNL     1       1.736  -2.161   5.045  1.00  0.00     0.007 A 
HETATM   21  C   UNL     1       1.926  -0.934   4.398  1.00  0.00    -0.059 A 
HETATM   22  C   UNL     1       2.960  -0.834   3.456  1.00  0.00     0.007 A 
HETATM   23  C   UNL     1       3.770  -1.933   3.156  1.00  0.00     0.008 A 
BRANCH  21  24
HETATM   24  C   UNL     1       1.130   0.309   4.728  1.00  0.00     0.034 C 
HETATM   25  C   UNL     1      -0.264   0.085   5.302  1.00  0.00     0.010 C 
ENDBRANCH  21  24
ENDBRANCH  17  18
ENDBRANCH   1  17
TORSDOF 5
