REMARK  6 active torsions:
REMARK  status: ('A' for Active; 'I' for Inactive)
REMARK    1  A    between atoms: O_2  and  C_3 
REMARK    2  A    between atoms: C_7  and  O_8 
REMARK    3  A    between atoms: O_8  and  C_9 
REMARK    4  A    between atoms: C_9  and  C_10 
REMARK    5  A    between atoms: C_13  and  O_14 
REMARK    6  A    between atoms: C_17  and  C_23 
ROOT
HETATM    1  C   UNL     1       2.053  -6.594  -0.643  1.00  0.00     0.132 A 
HETATM    2  N   UNL     1       2.834  -7.465  -0.093  1.00  0.00    -0.229 NA
HETATM    3  C   UNL     1       2.560  -8.837  -0.288  1.00  0.00     0.108 A 
HETATM    4  C   UNL     1       3.411  -9.813   0.263  1.00  0.00     0.098 A 
HETATM    5  C   UNL     1       3.121 -11.176   0.089  1.00  0.00     0.051 A 
HETATM    6  C   UNL     1       1.998 -11.594  -0.646  1.00  0.00    -0.019 A 
HETATM    7  C   UNL     1       1.167 -10.623  -1.210  1.00  0.00     0.032 A 
HETATM    8  C   UNL     1       1.455  -9.265  -1.030  1.00  0.00     0.064 A 
HETATM    9  C   UNL     1       0.594  -8.235  -1.636  1.00  0.00     0.259 A 
HETATM   10  O   UNL     1      -0.380  -8.521  -2.321  1.00  0.00    -0.267 OA
HETATM   11  N   UNL     1       0.958  -6.939  -1.390  1.00  0.00    -0.309 N 
HETATM   12  H   UNL     1       0.412  -6.220  -1.847  1.00  0.00     0.170 HD
ENDROOT
BRANCH   1  13
HETATM   13  C   UNL     1       2.279  -5.106  -0.454  1.00  0.00     0.254 C 
BRANCH  13  14
HETATM   14  O   UNL     1       2.282  -4.506  -1.749  1.00  0.00    -0.344 OA
BRANCH  14  15
HETATM   15  C   UNL     1       2.735  -3.214  -1.772  1.00  0.00     0.071 A 
HETATM   16  C   UNL     1       3.506  -2.864  -2.880  1.00  0.00     0.037 A 
HETATM   17  C   UNL     1       3.997  -1.567  -3.008  1.00  0.00     0.005 A 
HETATM   18  C   UNL     1       3.694  -0.614  -2.036  1.00  0.00     0.037 A 
HETATM   19  C   UNL     1       2.895  -0.947  -0.939  1.00  0.00     0.070 A 
HETATM   20  C   UNL     1       2.417  -2.254  -0.806  1.00  0.00     0.073 A 
BRANCH  19  21
HETATM   21  O   UNL     1       2.655   0.088  -0.076  1.00  0.00    -0.356 OA
HETATM   22  C   UNL     1       1.726  -0.150   0.974  1.00  0.00     0.210 C 
ENDBRANCH  19  21
ENDBRANCH  14  15
ENDBRANCH  13  14
ENDBRANCH   1  13
BRANCH   4  23
HETATM   23  O   UNL     1       4.488  -9.343   0.976  1.00  0.00    -0.354 OA
HETATM   24  C   UNL     1       5.555 -10.250   1.215  1.00  0.00     0.210 C 
ENDBRANCH   4  23
BRANCH   6  25
HETATM   25  C   UNL     1       1.713 -13.012  -0.800  1.00  0.00     0.010 A 
HETATM   26  C   UNL     1       2.091 -14.126  -0.011  1.00  0.00     0.152 A 
HETATM   27  N   UNL     1       1.634 -15.284  -0.494  1.00  0.00    -0.187 NA
HETATM   28  N   UNL     1       0.957 -14.920  -1.593  1.00  0.00    -0.289 N 
HETATM   29  H   UNL     1       0.506 -15.645  -2.143  1.00  0.00     0.188 HD
HETATM   30  C   UNL     1       0.976 -13.574  -1.822  1.00  0.00     0.123 A 
ENDBRANCH   6  25
TORSDOF 6
