REMARK  7 active torsions:
REMARK  status: ('A' for Active; 'I' for Inactive)
REMARK    1  A    between atoms: C_9  and  C_10 
REMARK       I    between atoms: C_10  and  N_11 
REMARK    2  A    between atoms: N_11  and  C_12 
REMARK    3  A    between atoms: C_12  and  C_13 
REMARK    4  A    between atoms: C_12  and  C_22 
REMARK       I    between atoms: C_13  and  N_14 
REMARK    5  A    between atoms: N_14  and  C_15 
REMARK    6  A    between atoms: C_15  and  C_16 
REMARK    7  A    between atoms: C_22  and  C_23 
ROOT
HETATM    1  C   UNL     1       0.320  -1.702   1.308  1.00  0.00     0.180 C 
ENDROOT
BRANCH   1   2
HETATM    2  N   UNL     1      -0.409  -0.543   0.748  1.00  0.00    -0.346 N 
HETATM    3  C   UNL     1      -0.798   0.527   1.500  1.00  0.00     0.249 C 
HETATM    4  O   UNL     1      -0.663   0.570   2.724  1.00  0.00    -0.271 OA
HETATM    5  H   UNL     1      -0.413  -0.528  -0.271  1.00  0.00     0.163 HD
BRANCH   3   6
HETATM    6  C   UNL     1      -1.553   1.667   0.781  1.00  0.00     0.281 C 
HETATM    7  N   UNL     1      -1.778   2.837   1.726  1.00  0.00    -0.058 N 
HETATM    8  C   UNL     1      -0.528   3.574   2.072  1.00  0.00     0.272 C 
HETATM    9  H   UNL     1      -2.465   3.489   1.335  1.00  0.00     0.278 HD
HETATM   10  H   UNL     1      -2.157   2.453   2.604  1.00  0.00     0.278 HD
HETATM   11  C   UNL     1       0.325   3.887   0.878  1.00  0.00    -0.026 A 
HETATM   12  C   UNL     1       0.168   3.193  -0.335  1.00  0.00    -0.048 A 
HETATM   13  C   UNL     1       1.337   4.853   0.991  1.00  0.00     0.009 A 
HETATM   14  C   UNL     1       1.002   3.499  -1.420  1.00  0.00     0.008 A 
HETATM   15  C   UNL     1      -0.934   2.180  -0.522  1.00  0.00     0.082 C 
HETATM   16  C   UNL     1       1.996   4.468  -1.297  1.00  0.00     0.001 A 
HETATM   17  C   UNL     1       2.164   5.144  -0.093  1.00  0.00     0.001 A 
ENDBRANCH   3   6
ENDBRANCH   1   2
BRANCH   1  18
HETATM   18  C   UNL     1       1.153  -2.243   0.125  1.00  0.00     0.241 C 
HETATM   19  N   UNL     1       2.041  -3.242   0.406  1.00  0.00    -0.353 N 
HETATM   20  H   UNL     1       1.974  -3.761   1.276  1.00  0.00     0.162 HD
HETATM   21  O   UNL     1       1.036  -1.735  -0.996  1.00  0.00    -0.271 OA
BRANCH  19  22
HETATM   22  C   UNL     1       2.931  -3.805  -0.588  1.00  0.00     0.187 C 
BRANCH  22  23
HETATM   23  C   UNL     1       2.610  -5.238  -0.794  1.00  0.00     0.070 A 
HETATM   24  O   UNL     1       2.331  -5.977   0.319  1.00  0.00    -0.325 OA
HETATM   25  C   UNL     1       2.092  -7.247  -0.097  1.00  0.00     0.142 A 
HETATM   26  C   UNL     1       2.230  -7.341  -1.461  1.00  0.00     0.027 A 
HETATM   27  C   UNL     1       2.565  -6.042  -1.915  1.00  0.00     0.036 A 
ENDBRANCH  22  23
ENDBRANCH  19  22
ENDBRANCH   1  18
BRANCH   1  28
HETATM   28  C   UNL     1      -0.666  -2.731   1.872  1.00  0.00     0.075 C 
BRANCH  28  29
HETATM   29  C   UNL     1      -0.070  -3.732   2.816  1.00  0.00    -0.028 A 
HETATM   30  C   UNL     1      -0.276  -5.151   2.790  1.00  0.00    -0.002 A 
HETATM   31  C   UNL     1       0.428  -5.696   3.864  1.00  0.00     0.042 A 
HETATM   32  C   UNL     1      -1.009  -6.024   1.960  1.00  0.00     0.014 A 
HETATM   33  C   UNL     1       0.436  -7.067   4.150  1.00  0.00     0.030 A 
HETATM   34  N   UNL     1       1.040  -4.655   4.519  1.00  0.00    -0.365 N 
HETATM   35  C   UNL     1      -0.303  -7.908   3.315  1.00  0.00     0.002 A 
HETATM   36  C   UNL     1      -1.017  -7.397   2.235  1.00  0.00     0.001 A 
HETATM   37  H   UNL     1       1.609  -4.759   5.349  1.00  0.00     0.165 HD
HETATM   38  C   UNL     1       0.737  -3.467   3.906  1.00  0.00     0.096 A 
ENDBRANCH  28  29
ENDBRANCH   1  28
TORSDOF 7
