REMARK  6 active torsions:
REMARK  status: ('A' for Active; 'I' for Inactive)
REMARK    1  A    between atoms: O_2  and  C_3 
REMARK    2  A    between atoms: C_8  and  C_9 
REMARK    3  A    between atoms: C_9  and  N_10 
REMARK    4  A    between atoms: N_13  and  C_26 
REMARK    5  A    between atoms: N_18  and  C_22 
REMARK    6  A    between atoms: C_29  and  C_32 
ROOT
HETATM    1  N   UNL     1       6.496   0.832  -2.970  1.00  0.00    -0.318 N 
HETATM    2  C   UNL     1       6.365  -0.563  -3.099  1.00  0.00     0.326 C 
HETATM    3  O   UNL     1       5.338  -1.115  -3.452  1.00  0.00    -0.247 OA
HETATM    4  N   UNL     1       7.611  -1.131  -2.753  1.00  0.00    -0.297 N 
HETATM    5  C   UNL     1       8.591  -0.085  -2.568  1.00  0.00     0.165 C 
HETATM    6  C   UNL     1       7.743   1.186  -2.293  1.00  0.00     0.057 C 
HETATM    7  C   UNL     1       8.401   2.451  -2.862  1.00  0.00     0.060 C 
HETATM    8  C   UNL     1       9.628   2.886  -2.073  1.00  0.00     0.238 C 
HETATM    9  N   UNL     1       9.323   3.033  -0.609  1.00  0.00    -0.063 N 
HETATM   10  H   UNL     1      10.215   3.223  -0.115  1.00  0.00     0.280 HD
HETATM   11  C   UNL     1       8.713   1.806   0.002  1.00  0.00     0.238 C 
HETATM   12  C   UNL     1       7.488   1.340  -0.774  1.00  0.00     0.060 C 
ENDROOT
BRANCH   4  13
HETATM   13  C   UNL     1       7.918  -2.518  -2.713  1.00  0.00     0.039 A 
HETATM   14  C   UNL     1       6.918  -3.492  -2.811  1.00  0.00     0.030 A 
HETATM   15  C   UNL     1       7.218  -4.860  -2.730  1.00  0.00     0.014 A 
HETATM   16  C   UNL     1       8.530  -5.299  -2.546  1.00  0.00    -0.023 A 
HETATM   17  C   UNL     1       9.538  -4.333  -2.464  1.00  0.00     0.014 A 
HETATM   18  C   UNL     1       9.236  -2.963  -2.545  1.00  0.00     0.030 A 
BRANCH  16  19
HETATM   19  C   UNL     1       8.850  -6.713  -2.445  1.00  0.00     0.010 A 
HETATM   20  C   UNL     1      10.059  -7.411  -2.677  1.00  0.00     0.152 A 
HETATM   21  N   UNL     1       9.954  -8.723  -2.451  1.00  0.00    -0.187 NA
HETATM   22  N   UNL     1       8.673  -8.878  -2.084  1.00  0.00    -0.289 N 
HETATM   23  H   UNL     1       8.345  -9.812  -1.861  1.00  0.00     0.188 HD
HETATM   24  C   UNL     1       7.973  -7.706  -2.056  1.00  0.00     0.123 A 
ENDBRANCH  16  19
ENDBRANCH   4  13
BRANCH   1  25
HETATM   25  C   UNL     1       5.360   1.718  -3.196  1.00  0.00     0.167 C 
BRANCH  25  26
HETATM   26  C   UNL     1       5.443   2.486  -4.492  1.00  0.00    -0.035 A 
HETATM   27  C   UNL     1       5.895   1.891  -5.676  1.00  0.00     0.051 A 
HETATM   28  C   UNL     1       5.893   2.615  -6.865  1.00  0.00     0.119 A 
HETATM   29  C   UNL     1       5.422   3.922  -6.918  1.00  0.00     0.079 A 
HETATM   30  F   UNL     1       6.354   2.038  -7.982  1.00  0.00    -0.206 F 
HETATM   31  C   UNL     1       4.936   4.517  -5.758  1.00  0.00     0.071 A 
HETATM   32  C   UNL     1       4.961   3.804  -4.552  1.00  0.00     0.045 A 
BRANCH  31  33
HETATM   33  O   UNL     1       4.429   5.784  -5.666  1.00  0.00    -0.356 OA
HETATM   34  C   UNL     1       3.943   6.349  -6.882  1.00  0.00     0.210 C 
ENDBRANCH  31  33
ENDBRANCH  25  26
ENDBRANCH   1  25
BRANCH   9  35
HETATM   35  C   UNL     1       8.440   4.254  -0.358  1.00  0.00     0.235 C 
HETATM   36  C   UNL     1       8.420   4.725   1.125  1.00  0.00     0.203 C 
HETATM   37  O   UNL     1       9.553   5.596   0.855  1.00  0.00    -0.387 OA
HETATM   38  C   UNL     1       9.175   5.612  -0.550  1.00  0.00     0.203 C 
ENDBRANCH   9  35
TORSDOF 6
