REMARK  8 active torsions:
REMARK  status: ('A' for Active; 'I' for Inactive)
REMARK    1  A    between atoms: C_5  and  C_6 
REMARK       I    between atoms: C_6  and  N_7 
REMARK    2  A    between atoms: N_7  and  N_8 
REMARK       I    between atoms: N_8  and  C_9 
REMARK    3  A    between atoms: C_9  and  C_10 
REMARK    4  A    between atoms: C_10  and  S_11 
REMARK    5  A    between atoms: S_11  and  C_12 
REMARK    6  A    between atoms: N_13  and  C_14 
REMARK    7  A    between atoms: C_21  and  C_22 
REMARK    8  A    between atoms: C_22  and  N_23 
ROOT
HETATM    1  C   UNL     1      11.590   2.950  -1.437  1.00  0.00     0.196 A 
HETATM    2  N   UNL     1      12.416   3.806  -2.142  1.00  0.00    -0.274 N 
HETATM    3  C   UNL     1      13.605   3.092  -2.250  1.00  0.00     0.166 A 
HETATM    4  N   UNL     1      13.437   1.866  -1.790  1.00  0.00    -0.131 NA
HETATM    5  N   UNL     1      12.177   1.786  -1.265  1.00  0.00    -0.122 NA
ENDROOT
BRANCH   1   6
HETATM    6  S   UNL     1      10.016   3.350  -0.846  1.00  0.00    -0.080 SA
BRANCH   6   7
HETATM    7  C   UNL     1      10.174   2.933   0.912  1.00  0.00     0.187 C 
BRANCH   7   8
HETATM    8  C   UNL     1      11.508   3.318   1.549  1.00  0.00     0.245 C 
HETATM    9  N   UNL     1      11.683   2.712   2.787  1.00  0.00    -0.267 N 
HETATM   10  H   UNL     1      10.862   2.506   3.360  1.00  0.00     0.190 HD
HETATM   11  O   UNL     1      12.367   4.044   1.044  1.00  0.00    -0.271 OA
BRANCH   9  12
HETATM   12  N   UNL     1      12.829   3.046   3.522  1.00  0.00    -0.263 N 
HETATM   13  C   UNL     1      12.671   3.857   4.632  1.00  0.00     0.270 C 
HETATM   14  O   UNL     1      11.573   4.207   5.049  1.00  0.00    -0.266 OA
HETATM   15  H   UNL     1      13.707   3.028   3.017  1.00  0.00     0.190 HD
BRANCH  13  16
HETATM   16  C   UNL     1      13.934   4.312   5.273  1.00  0.00     0.033 A 
HETATM   17  C   UNL     1      15.095   3.527   5.240  1.00  0.00     0.017 A 
HETATM   18  C   UNL     1      16.263   3.979   5.858  1.00  0.00     0.007 A 
HETATM   19  C   UNL     1      16.286   5.218   6.510  1.00  0.00    -0.062 A 
HETATM   20  C   UNL     1      17.525   5.675   7.225  1.00  0.00     0.048 C 
HETATM   21  C   UNL     1      15.116   5.986   6.562  1.00  0.00     0.007 A 
HETATM   22  C   UNL     1      13.944   5.537   5.947  1.00  0.00     0.017 A 
ENDBRANCH  13  16
ENDBRANCH   9  12
ENDBRANCH   7   8
ENDBRANCH   6   7
ENDBRANCH   1   6
BRANCH   2  23
HETATM   23  C   UNL     1      12.189   5.136  -2.583  1.00  0.00     0.043 A 
HETATM   24  C   UNL     1      11.581   6.079  -1.742  1.00  0.00     0.033 A 
HETATM   25  C   UNL     1      11.360   7.381  -2.197  1.00  0.00     0.044 A 
HETATM   26  C   UNL     1      11.748   7.735  -3.482  1.00  0.00     0.116 A 
HETATM   27  F   UNL     1      11.536   8.983  -3.916  1.00  0.00    -0.206 F 
HETATM   28  C   UNL     1      12.357   6.813  -4.325  1.00  0.00     0.044 A 
HETATM   29  C   UNL     1      12.581   5.508  -3.879  1.00  0.00     0.033 A 
ENDBRANCH   2  23
BRANCH   3  30
HETATM   30  C   UNL     1      14.947   3.683  -2.569  1.00  0.00     0.255 C 
HETATM   31  C   UNL     1      15.432   3.117  -3.909  1.00  0.00     0.049 C 
BRANCH  30  32
HETATM   32  N   UNL     1      15.994   3.352  -1.467  1.00  0.00    -0.060 N 
HETATM   33  H   UNL     1      16.059   2.322  -1.469  1.00  0.00     0.280 HD
HETATM   34  C   UNL     1      17.358   3.942  -1.744  1.00  0.00     0.236 C 
HETATM   35  C   UNL     1      18.355   3.509  -0.678  1.00  0.00     0.028 C 
HETATM   36  C   UNL     1      17.883   3.867   0.722  1.00  0.00     0.003 C 
HETATM   37  C   UNL     1      16.499   3.294   0.979  1.00  0.00     0.028 C 
HETATM   38  C   UNL     1      15.499   3.738  -0.079  1.00  0.00     0.236 C 
ENDBRANCH  30  32
ENDBRANCH   3  30
TORSDOF 8
