REMARK  5 active torsions:
REMARK  status: ('A' for Active; 'I' for Inactive)
REMARK    1  A    between atoms: C_7  and  C_8 
REMARK    2  A    between atoms: N_9  and  N_10 
REMARK       I    between atoms: N_10  and  C_11 
REMARK    3  A    between atoms: C_11  and  C_12 
REMARK    4  A    between atoms: C_12  and  N_13 
REMARK       I    between atoms: N_13  and  C_14 
REMARK    5  A    between atoms: C_14  and  C_15 
ROOT
HETATM    1  N   UNL     1       3.157  -4.743   0.011  1.00  0.00    -0.246 N 
HETATM    2  C   UNL     1       3.955  -5.863   0.189  1.00  0.00     0.255 C 
HETATM    3  O   UNL     1       5.166  -5.851   0.402  1.00  0.00    -0.270 OA
HETATM    4  H   UNL     1       2.189  -4.869  -0.292  1.00  0.00     0.192 HD
ENDROOT
BRANCH   1   5
HETATM    5  N   UNL     1       3.694  -3.492   0.085  1.00  0.00    -0.184 NA
HETATM    6  C   UNL     1       2.854  -2.521  -0.071  1.00  0.00     0.153 C 
BRANCH   6   7
HETATM    7  C   UNL     1       3.310  -1.143  -0.041  1.00  0.00     0.018 A 
HETATM    8  C   UNL     1       4.626  -0.698  -0.005  1.00  0.00     0.018 A 
HETATM    9  C   UNL     1       5.912  -1.447   0.016  1.00  0.00     0.069 C 
HETATM   10  N   UNL     1       4.604   0.674  -0.002  1.00  0.00    -0.358 N 
HETATM   11  H   UNL     1       5.422   1.266   0.017  1.00  0.00     0.166 HD
HETATM   12  C   UNL     1       3.312   1.139  -0.031  1.00  0.00     0.043 A 
HETATM   13  C   UNL     1       2.475   0.024  -0.052  1.00  0.00     0.004 A 
HETATM   14  C   UNL     1       2.829   2.454  -0.039  1.00  0.00     0.030 A 
HETATM   15  C   UNL     1       1.079   0.238  -0.076  1.00  0.00     0.014 A 
HETATM   16  C   UNL     1       0.579   1.546  -0.080  1.00  0.00     0.001 A 
HETATM   17  C   UNL     1       1.444   2.636  -0.063  1.00  0.00     0.002 A 
ENDBRANCH   6   7
ENDBRANCH   1   5
BRANCH   2  18
HETATM   18  C   UNL     1       3.202  -7.178  -0.031  1.00  0.00     0.227 C 
BRANCH  18  19
HETATM   19  N   UNL     1       1.983  -7.317   0.760  1.00  0.00    -0.348 N 
HETATM   20  C   UNL     1       0.791  -6.755   0.363  1.00  0.00     0.252 C 
HETATM   21  O   UNL     1       0.742  -5.981  -0.590  1.00  0.00    -0.268 OA
HETATM   22  H   UNL     1       2.075  -7.761   1.662  1.00  0.00     0.163 HD
BRANCH  20  23
HETATM   23  C   UNL     1      -0.436  -7.056   1.157  1.00  0.00     0.033 A 
HETATM   24  C   UNL     1      -1.602  -6.340   0.847  1.00  0.00     0.041 A 
HETATM   25  C   UNL     1      -2.783  -6.589   1.545  1.00  0.00     0.035 A 
HETATM   26 CL   UNL     1      -4.208  -5.709   1.153  1.00  0.00    -0.084 Cl
HETATM   27  C   UNL     1      -2.819  -7.548   2.553  1.00  0.00     0.024 A 
HETATM   28  C   UNL     1      -1.667  -8.271   2.862  1.00  0.00     0.003 A 
HETATM   29  C   UNL     1      -0.479  -8.031   2.164  1.00  0.00     0.017 A 
ENDBRANCH  20  23
ENDBRANCH  18  19
ENDBRANCH   2  18
TORSDOF 5
