REMARK  3 active torsions:
REMARK  status: ('A' for Active; 'I' for Inactive)
REMARK    1  A    between atoms: C_4  and  C_5 
REMARK    2  A    between atoms: C_14  and  C_15 
REMARK       I    between atoms: C_15  and  N_16 
REMARK    3  A    between atoms: N_16  and  C_17 
ROOT
HETATM    1  C   UNL     1       6.325   1.837   0.069  1.00  0.00     0.222 C 
HETATM    2  N   UNL     1       7.078   1.793  -1.181  1.00  0.00    -0.090 N 
HETATM    3  C   UNL     1       7.315   2.873  -1.982  1.00  0.00     0.735 A 
HETATM    4  N   UNL     1       7.986   2.466  -3.031  1.00  0.00     0.030 NA
HETATM    5  N   UNL     1       8.123   1.098  -2.880  1.00  0.00     0.033 NA
HETATM    6  N   UNL     1       7.540   0.674  -1.763  1.00  0.00     0.012 NA
HETATM    7  N   UNL     1       6.811   4.076  -1.635  1.00  0.00    -0.191 N 
HETATM    8  C   UNL     1       5.917   4.242  -0.580  1.00  0.00     0.037 C 
HETATM    9  C   UNL     1       5.220   5.579  -0.529  1.00  0.00     0.070 C 
HETATM   10  C   UNL     1       5.673   3.205   0.262  1.00  0.00     0.064 C 
HETATM   11  H   UNL     1       6.912   4.846  -2.292  1.00  0.00     0.184 HD
ENDROOT
BRANCH  10  12
HETATM   12  C   UNL     1       4.673   3.225   1.365  1.00  0.00     0.256 C 
HETATM   13  N   UNL     1       4.796   4.299   2.216  1.00  0.00    -0.323 N 
HETATM   14  H   UNL     1       5.573   4.928   2.058  1.00  0.00     0.169 HD
HETATM   15  O   UNL     1       3.878   2.297   1.443  1.00  0.00    -0.267 OA
BRANCH  13  16
HETATM   16  C   UNL     1       3.920   4.660   3.263  1.00  0.00     0.035 A 
HETATM   17  C   UNL     1       2.820   3.898   3.659  1.00  0.00     0.029 A 
HETATM   18  C   UNL     1       1.977   4.344   4.683  1.00  0.00     0.002 A 
HETATM   19  C   UNL     1       2.224   5.559   5.316  1.00  0.00     0.000 A 
HETATM   20  C   UNL     1       3.320   6.327   4.932  1.00  0.00     0.002 A 
HETATM   21  C   UNL     1       4.167   5.876   3.915  1.00  0.00     0.029 A 
ENDBRANCH  13  16
ENDBRANCH  10  12
BRANCH   1  22
HETATM   22  C   UNL     1       7.228   1.428   1.196  1.00  0.00     0.083 A 
HETATM   23  O   UNL     1       8.415   2.094   1.319  1.00  0.00    -0.317 OA
HETATM   24  C   UNL     1       9.091   1.523   2.353  1.00  0.00     0.049 A 
HETATM   25  C   UNL     1      10.448   2.040   2.621  1.00  0.00     0.076 C 
HETATM   26  C   UNL     1       8.328   0.529   2.926  1.00  0.00     0.035 A 
HETATM   27  C   UNL     1       7.124   0.471   2.186  1.00  0.00     0.038 A 
ENDBRANCH   1  22
TORSDOF 3
