REMARK  7 active torsions:
REMARK  status: ('A' for Active; 'I' for Inactive)
REMARK    1  A    between atoms: C_2  and  C_3 
REMARK    2  A    between atoms: C_2  and  C_20 
REMARK    3  A    between atoms: C_3  and  C_4 
REMARK       I    between atoms: C_4  and  N_5 
REMARK    4  A    between atoms: N_5  and  C_6 
REMARK    5  A    between atoms: C_13  and  C_14 
REMARK       I    between atoms: C_14  and  N_15 
REMARK    6  A    between atoms: C_20  and  C_21 
REMARK    7  A    between atoms: C_22  and  O_23 
ROOT
HETATM    1  C   UNL     1       2.022  -2.276   0.341  1.00  0.00     0.222 C 
HETATM    2  N   UNL     1       2.401  -3.608   0.386  1.00  0.00    -0.327 N 
HETATM    3  O   UNL     1       1.052  -1.775   0.895  1.00  0.00    -0.273 OA
HETATM    4  H   UNL     1       3.198  -3.869  -0.180  1.00  0.00     0.169 HD
ENDROOT
BRANCH   2   5
HETATM    5  C   UNL     1       1.831  -4.647   1.151  1.00  0.00     0.035 A 
HETATM    6  C   UNL     1       0.725  -4.483   1.996  1.00  0.00     0.046 A 
HETATM    7  C   UNL     1       0.246  -5.587   2.738  1.00  0.00     0.030 A 
HETATM    8  C   UNL     1       0.891  -6.811   2.611  1.00  0.00     0.063 A 
HETATM    9  C   UNL     1      -0.811  -5.823   3.669  1.00  0.00     0.156 A 
HETATM   10  N   UNL     1       0.217  -7.664   3.439  1.00  0.00    -0.277 N 
HETATM   11  C   UNL     1       1.992  -7.011   1.778  1.00  0.00     0.034 A 
HETATM   12  H   UNL     1       0.415  -8.645   3.601  1.00  0.00     0.189 HD
HETATM   13  N   UNL     1      -0.815  -7.108   4.092  1.00  0.00    -0.168 NA
HETATM   14  C   UNL     1       2.445  -5.904   1.051  1.00  0.00     0.032 A 
BRANCH   9  15
HETATM   15  C   UNL     1      -1.809  -4.861   4.160  1.00  0.00     0.270 C 
HETATM   16  N   UNL     1      -2.704  -5.393   5.049  1.00  0.00    -0.365 N 
HETATM   17  H   UNL     1      -2.622  -6.372   5.293  1.00  0.00     0.159 HD
HETATM   18  H   UNL     1      -3.430  -4.810   5.434  1.00  0.00     0.159 HD
HETATM   19  O   UNL     1      -1.869  -3.684   3.828  1.00  0.00    -0.266 OA
ENDBRANCH   9  15
ENDBRANCH   2   5
BRANCH   1  20
HETATM   20  C   UNL     1       2.957  -1.453  -0.540  1.00  0.00     0.107 C 
BRANCH  20  21
HETATM   21  C   UNL     1       3.117   0.000  -0.063  1.00  0.00    -0.006 C 
HETATM   22  C   UNL     1       3.699   0.117   1.350  1.00  0.00     0.011 C 
BRANCH  21  23
HETATM   23  C   UNL     1       3.856   0.890  -1.093  1.00  0.00     0.046 C 
BRANCH  23  24
HETATM   24  C   UNL     1       5.287   0.639  -1.544  1.00  0.00    -0.024 A 
HETATM   25  C   UNL     1       5.821   1.459  -2.568  1.00  0.00     0.074 A 
HETATM   26  C   UNL     1       7.127   1.257  -3.033  1.00  0.00     0.037 A 
HETATM   27  C   UNL     1       7.927   0.262  -2.476  1.00  0.00     0.003 A 
HETATM   28  C   UNL     1       7.428  -0.531  -1.452  1.00  0.00     0.001 A 
HETATM   29  C   UNL     1       6.123  -0.341  -0.989  1.00  0.00     0.010 A 
BRANCH  25  30
HETATM   30  O   UNL     1       4.977   2.422  -3.066  1.00  0.00    -0.355 OA
HETATM   31  C   UNL     1       5.566   3.465  -3.833  1.00  0.00     0.210 C 
ENDBRANCH  25  30
ENDBRANCH  23  24
ENDBRANCH  21  23
ENDBRANCH  20  21
ENDBRANCH   1  20
TORSDOF 7
