REMARK  6 active torsions:
REMARK  status: ('A' for Active; 'I' for Inactive)
REMARK    1  A    between atoms: C_4  and  C_5 
REMARK    2  A    between atoms: C_5  and  C_6 
REMARK    3  A    between atoms: C_8  and  C_9 
REMARK    4  A    between atoms: C_9  and  C_10 
REMARK       I    between atoms: C_10  and  N_11 
REMARK    5  A    between atoms: N_11  and  N_12 
REMARK       I    between atoms: N_12  and  C_13 
REMARK       I    between atoms: C_13  and  N_14 
REMARK    6  A    between atoms: N_14  and  C_15 
ROOT
HETATM    1  C   UNL     1       7.420  -1.203  -0.763  1.00  0.00     0.238 C 
HETATM    2  N   UNL     1       8.465  -1.092  -1.655  1.00  0.00    -0.266 N 
HETATM    3  O   UNL     1       7.305  -0.480   0.224  1.00  0.00    -0.272 OA
HETATM    4  H   UNL     1       8.643  -1.750  -2.415  1.00  0.00     0.190 HD
ENDROOT
BRANCH   1   5
HETATM    5  C   UNL     1       6.444  -2.289  -1.137  1.00  0.00     0.139 C 
BRANCH   5   6
HETATM    6  C   UNL     1       5.226  -2.309  -0.216  1.00  0.00     0.185 C 
HETATM    7  N   UNL     1       4.412  -1.114  -0.429  1.00  0.00    -0.363 N 
HETATM    8  C   UNL     1       3.042  -1.199  -0.335  1.00  0.00     0.125 C 
HETATM    9  H   UNL     1       4.831  -0.266  -0.048  1.00  0.00     0.161 HD
HETATM   10  N   UNL     1       2.366  -2.310  -0.371  1.00  0.00    -0.159 NA
HETATM   11  N   UNL     1       3.065  -3.472  -0.488  1.00  0.00    -0.244 N 
HETATM   12  C   UNL     1       4.434  -3.592  -0.476  1.00  0.00     0.261 C 
HETATM   13  H   UNL     1       2.519  -4.317  -0.614  1.00  0.00     0.192 HD
HETATM   14  O   UNL     1       4.972  -4.691  -0.617  1.00  0.00    -0.269 OA
BRANCH   8  15
HETATM   15  C   UNL     1       2.254   0.098  -0.179  1.00  0.00     0.118 C 
BRANCH  15  16
HETATM   16  C   UNL     1       2.244   0.622   1.238  1.00  0.00    -0.051 A 
HETATM   17  C   UNL     1       2.545   1.967   1.498  1.00  0.00     0.007 A 
HETATM   18  C   UNL     1       2.490   2.467   2.801  1.00  0.00     0.001 A 
HETATM   19  C   UNL     1       2.131   1.632   3.857  1.00  0.00     0.000 A 
HETATM   20  C   UNL     1       1.821   0.296   3.610  1.00  0.00     0.001 A 
HETATM   21  C   UNL     1       1.870  -0.204   2.308  1.00  0.00     0.007 A 
ENDBRANCH  15  16
ENDBRANCH   8  15
ENDBRANCH   5   6
ENDBRANCH   1   5
BRANCH   2  22
HETATM   22  N   UNL     1       9.458  -0.129  -1.420  1.00  0.00    -0.249 N 
HETATM   23  C   UNL     1      10.651  -0.286  -2.111  1.00  0.00     0.339 C 
HETATM   24  N   UNL     1      11.572   0.674  -1.756  1.00  0.00    -0.308 N 
HETATM   25  O   UNL     1      10.787  -1.168  -2.953  1.00  0.00    -0.245 OA
HETATM   26  H   UNL     1      11.224   1.405  -1.152  1.00  0.00     0.170 HD
HETATM   27  H   UNL     1       9.463   0.252  -0.477  1.00  0.00     0.192 HD
BRANCH  24  28
HETATM   28  C   UNL     1      12.885   0.828  -2.247  1.00  0.00     0.038 A 
HETATM   29  C   UNL     1      13.505  -0.074  -3.115  1.00  0.00     0.055 A 
HETATM   30  C   UNL     1      14.813   0.154  -3.565  1.00  0.00     0.058 A 
HETATM   31 CL   UNL     1      15.508  -1.007  -4.642  1.00  0.00    -0.082 Cl
HETATM   32  C   UNL     1      15.511   1.289  -3.144  1.00  0.00     0.055 A 
HETATM   33 CL   UNL     1      17.123   1.637  -3.659  1.00  0.00    -0.083 Cl
HETATM   34  C   UNL     1      14.899   2.189  -2.270  1.00  0.00     0.028 A 
HETATM   35  C   UNL     1      13.595   1.958  -1.824  1.00  0.00     0.031 A 
ENDBRANCH  24  28
ENDBRANCH   2  22
TORSDOF 6
