REMARK  5 active torsions:
REMARK  status: ('A' for Active; 'I' for Inactive)
REMARK    1  A    between atoms: C_3  and  O_4 
REMARK    2  A    between atoms: O_4  and  C_5 
REMARK    3  A    between atoms: C_5  and  C_6 
REMARK    4  A    between atoms: C_13  and  N_14 
REMARK       I    between atoms: N_14  and  C_15 
REMARK    5  A    between atoms: C_15  and  C_16 
ROOT
HETATM    1  N   UNL     1      -1.481  -2.363  -0.138  1.00  0.00    -0.323 N 
HETATM    2  C   UNL     1      -1.005  -3.643  -0.363  1.00  0.00     0.258 C 
HETATM    3  O   UNL     1       0.169  -3.996  -0.340  1.00  0.00    -0.267 OA
HETATM    4  H   UNL     1      -2.480  -2.250  -0.039  1.00  0.00     0.169 HD
ENDROOT
BRANCH   1   5
HETATM    5  C   UNL     1      -0.722  -1.187   0.055  1.00  0.00     0.037 A 
HETATM    6  C   UNL     1       0.671  -1.127  -0.024  1.00  0.00     0.066 A 
HETATM    7  C   UNL     1       1.354   0.081   0.173  1.00  0.00     0.071 A 
HETATM    8  C   UNL     1       0.633   1.245   0.436  1.00  0.00     0.037 A 
HETATM    9  C   UNL     1      -0.759   1.197   0.515  1.00  0.00     0.005 A 
HETATM   10  C   UNL     1      -1.431  -0.011   0.328  1.00  0.00     0.029 A 
BRANCH   7  11
HETATM   11  O   UNL     1       2.716  -0.013   0.080  1.00  0.00    -0.347 OA
BRANCH  11  12
HETATM   12  C   UNL     1       3.477   1.153   0.390  1.00  0.00     0.215 C 
BRANCH  12  13
HETATM   13  C   UNL     1       4.935   0.790   0.449  1.00  0.00    -0.017 A 
HETATM   14  C   UNL     1       5.896   1.568  -0.188  1.00  0.00     0.125 A 
HETATM   15  N   UNL     1       7.227   1.329  -0.137  1.00  0.00    -0.272 NA
HETATM   16  C   UNL     1       7.622   0.258   0.585  1.00  0.00     0.116 A 
HETATM   17  C   UNL     1       6.751  -0.578   1.262  1.00  0.00     0.020 A 
HETATM   18  C   UNL     1       5.389  -0.303   1.195  1.00  0.00     0.012 A 
ENDBRANCH  12  13
ENDBRANCH  11  12
ENDBRANCH   7  11
ENDBRANCH   1   5
BRANCH   2  19
HETATM   19  C   UNL     1      -2.051  -4.678  -0.610  1.00  0.00     0.059 A 
HETATM   20  C   UNL     1      -1.811  -6.008  -0.290  1.00  0.00     0.057 A 
HETATM   21  C   UNL     1      -2.764  -7.008  -0.487  1.00  0.00    -0.022 A 
HETATM   22  N   UNL     1      -0.663  -6.578   0.250  1.00  0.00    -0.325 N 
HETATM   23  C   UNL     1      -2.207  -8.329  -0.042  1.00  0.00     0.144 A 
HETATM   24  C   UNL     1      -4.001  -6.714  -1.031  1.00  0.00     0.010 A 
HETATM   25  C   UNL     1      -0.797  -7.948   0.422  1.00  0.00     0.226 A 
HETATM   26  O   UNL     1       0.049  -8.708   0.861  1.00  0.00    -0.273 OA
HETATM   27  C   UNL     1      -4.260  -5.388  -1.389  1.00  0.00     0.002 A 
HETATM   28  C   UNL     1      -3.296  -4.379  -1.188  1.00  0.00     0.019 A 
HETATM   29  H   UNL     1       0.187  -6.055   0.437  1.00  0.00     0.169 HD
ENDBRANCH   2  19
TORSDOF 5
