REMARK  5 active torsions:
REMARK  status: ('A' for Active; 'I' for Inactive)
REMARK    1  A    between atoms: C_11  and  C_12 
REMARK    2  A    between atoms: C_15  and  N_16 
REMARK    3  A    between atoms: N_16  and  C_17 
REMARK    4  A    between atoms: C_18  and  O_19 
REMARK    5  A    between atoms: O_19  and  C_20 
ROOT
HETATM    1  C   UNL     1       5.545   4.473  -0.232  1.00  0.00     0.077 C 
HETATM    2  C   UNL     1       4.598   5.661  -0.192  1.00  0.00     0.023 C 
HETATM    3  N   UNL     1       3.812   6.647  -0.158  1.00  0.00    -0.096 N 
HETATM    4  C   UNL     1       6.867   4.744  -0.291  1.00  0.00     0.087 C 
ENDROOT
BRANCH   1   5
HETATM    5  C   UNL     1       5.021   3.143  -0.278  1.00  0.00     0.118 A 
HETATM    6  N   UNL     1       3.870   2.745   0.241  1.00  0.00    -0.239 NA
HETATM    7  C   UNL     1       3.634   1.395  -0.004  1.00  0.00     0.081 A 
HETATM    8  C   UNL     1       2.430   0.790   0.512  1.00  0.00     0.070 A 
HETATM    9  C   UNL     1       4.638   0.758  -0.697  1.00  0.00     0.084 A 
HETATM   10  C   UNL     1       1.897  -0.465  -0.113  1.00  0.00     0.301 A 
HETATM   11  C   UNL     1       1.765   1.335   1.550  1.00  0.00     0.034 A 
HETATM   12  O   UNL     1       0.771  -1.046   0.465  1.00  0.00    -0.274 OA
HETATM   13  O   UNL     1       2.412  -0.991  -1.096  1.00  0.00    -0.259 OA
HETATM   14  C   UNL     1       0.111  -0.465   1.556  1.00  0.00     0.089 A 
HETATM   15  C   UNL     1       0.573   0.722   2.108  1.00  0.00    -0.001 A 
HETATM   16  C   UNL     1      -1.013  -1.119   2.053  1.00  0.00     0.038 A 
HETATM   17  C   UNL     1      -0.114   1.272   3.192  1.00  0.00     0.014 A 
HETATM   18  C   UNL     1      -1.245   0.628   3.704  1.00  0.00     0.001 A 
HETATM   19  C   UNL     1      -1.694  -0.567   3.136  1.00  0.00     0.003 A 
HETATM   20  S   UNL     1       5.873   1.864  -1.098  1.00  0.00    -0.078 SA
ENDBRANCH   1   5
BRANCH   4  21
HETATM   21  N   UNL     1       7.461   5.994  -0.301  1.00  0.00    -0.266 NA
HETATM   22  H   UNL     1       8.225   6.068  -0.981  1.00  0.00     0.133 HD
BRANCH  21  23
HETATM   23  C   UNL     1       7.909   6.659   0.877  1.00  0.00     0.046 A 
HETATM   24  C   UNL     1       8.462   7.948   0.752  1.00  0.00     0.096 A 
HETATM   25  C   UNL     1       8.943   8.651   1.856  1.00  0.00     0.039 A 
HETATM   26  C   UNL     1       8.827   8.090   3.124  1.00  0.00     0.003 A 
HETATM   27  C   UNL     1       8.232   6.837   3.279  1.00  0.00     0.002 A 
HETATM   28  C   UNL     1       7.767   6.130   2.164  1.00  0.00     0.026 A 
BRANCH  24  29
HETATM   29  O   UNL     1       8.559   8.518  -0.493  1.00  0.00    -0.288 OA
BRANCH  29  30
HETATM   30  C   UNL     1       7.389   9.296  -0.738  1.00  0.00     0.505 C 
HETATM   31  F   UNL     1       7.559  10.514  -0.162  1.00  0.00    -0.184 F 
HETATM   32  F   UNL     1       7.328   9.509  -2.077  1.00  0.00    -0.184 F 
ENDBRANCH  29  30
ENDBRANCH  24  29
ENDBRANCH  21  23
ENDBRANCH   4  21
TORSDOF 5
