REMARK  4 active torsions:
REMARK  status: ('A' for Active; 'I' for Inactive)
REMARK    1  A    between atoms: O_2  and  C_3 
REMARK    2  A    between atoms: C_5  and  O_6 
REMARK    3  A    between atoms: C_8  and  C_9 
REMARK    4  A    between atoms: C_20  and  N_21 
ROOT
HETATM    1  C   UNL     1       4.461  -1.190  -5.229  1.00  0.00    -0.022 A 
HETATM    2  C   UNL     1       4.127  -2.455  -5.733  1.00  0.00     0.031 A 
HETATM    3  C   UNL     1       4.619  -2.915  -6.971  1.00  0.00     0.059 A 
HETATM    4  C   UNL     1       5.480  -2.101  -7.723  1.00  0.00     0.050 A 
HETATM    5  N   UNL     1       6.165  -2.463  -8.902  1.00  0.00    -0.324 N 
HETATM    6  C   UNL     1       6.608  -3.700  -9.269  1.00  0.00     0.247 C 
HETATM    7  O   UNL     1       7.457  -3.807 -10.159  1.00  0.00    -0.271 OA
HETATM    8  C   UNL     1       6.246  -4.901  -8.417  1.00  0.00     0.210 C 
HETATM    9  N   UNL     1       4.816  -5.017  -8.243  1.00  0.00    -0.332 N 
HETATM   10  C   UNL     1       4.047  -4.198  -7.452  1.00  0.00     0.256 C 
HETATM   11  O   UNL     1       2.902  -4.506  -7.133  1.00  0.00    -0.267 OA
HETATM   12  C   UNL     1       6.649  -6.208  -9.134  1.00  0.00     0.217 C 
HETATM   13  C   UNL     1       5.517  -7.176  -8.802  1.00  0.00     0.055 C 
HETATM   14  C   UNL     1       4.301  -6.264  -8.781  1.00  0.00     0.129 C 
HETATM   15  C   UNL     1       5.734  -0.800  -7.270  1.00  0.00     0.031 A 
HETATM   16  C   UNL     1       5.238  -0.356  -6.041  1.00  0.00     0.014 A 
HETATM   17  H   UNL     1       6.605  -1.714  -9.430  1.00  0.00     0.169 HD
ENDROOT
BRANCH   1  18
HETATM   18  C   UNL     1       4.006  -0.749  -3.894  1.00  0.00     0.008 A 
HETATM   19  C   UNL     1       4.906  -0.280  -2.908  1.00  0.00     0.082 A 
HETATM   20  C   UNL     1       4.424   0.122  -1.656  1.00  0.00     0.074 A 
HETATM   21  C   UNL     1       3.058   0.089  -1.364  1.00  0.00     0.070 A 
HETATM   22  C   UNL     1       2.165  -0.375  -2.324  1.00  0.00     0.038 A 
HETATM   23  C   UNL     1       2.636  -0.789  -3.574  1.00  0.00     0.018 A 
BRANCH  19  24
HETATM   24  O   UNL     1       6.241  -0.289  -3.237  1.00  0.00    -0.355 OA
HETATM   25  C   UNL     1       7.111   0.490  -2.423  1.00  0.00     0.210 C 
ENDBRANCH  19  24
BRANCH  21  26
HETATM   26  O   UNL     1       2.735   0.522  -0.107  1.00  0.00    -0.356 OA
HETATM   27  C   UNL     1       1.353   0.711   0.171  1.00  0.00     0.210 C 
ENDBRANCH  21  26
ENDBRANCH   1  18
BRANCH  12  28
HETATM   28  N   UNL     1       7.946  -6.758  -8.644  1.00  0.00    -0.072 N 
HETATM   29  H   UNL     1       8.721  -6.119  -8.882  1.00  0.00     0.274 HD
HETATM   30  H   UNL     1       7.963  -6.913  -7.627  1.00  0.00     0.274 HD
HETATM   31  H   UNL     1       8.163  -7.658  -9.095  1.00  0.00     0.274 HD
ENDBRANCH  12  28
TORSDOF 4
