REMARK  6 active torsions:
REMARK  status: ('A' for Active; 'I' for Inactive)
REMARK    1  A    between atoms: C_2  and  C_3 
REMARK    2  A    between atoms: C_5  and  N_6 
REMARK       I    between atoms: N_6  and  C_7 
REMARK       I    between atoms: C_7  and  N_8 
REMARK    3  A    between atoms: N_8  and  C_9 
REMARK    4  A    between atoms: C_9  and  C_10 
REMARK    5  A    between atoms: C_11  and  N_12 
REMARK    6  A    between atoms: C_19  and  O_20 
ROOT
HETATM    1  N   UNL     1       4.116  -2.934  -3.989  1.00  0.00    -0.306 N 
HETATM    2  C   UNL     1       4.812  -2.101  -4.795  1.00  0.00     0.321 C 
HETATM    3  N   UNL     1       5.775  -1.324  -4.230  1.00  0.00    -0.338 N 
HETATM    4  O   UNL     1       4.677  -2.182  -6.014  1.00  0.00    -0.247 OA
HETATM    5  H   UNL     1       3.705  -3.721  -4.480  1.00  0.00     0.171 HD
HETATM    6  H   UNL     1       6.011  -1.514  -3.265  1.00  0.00     0.164 HD
ENDROOT
BRANCH   1   7
HETATM    7  C   UNL     1       3.759  -2.880  -2.630  1.00  0.00     0.070 A 
HETATM    8  C   UNL     1       3.726  -1.690  -1.891  1.00  0.00     0.040 A 
HETATM    9  C   UNL     1       3.245  -1.667  -0.566  1.00  0.00    -0.048 A 
HETATM   10  C   UNL     1       2.815  -2.888  -0.014  1.00  0.00     0.011 A 
HETATM   11  C   UNL     1       2.843  -4.080  -0.745  1.00  0.00     0.039 A 
HETATM   12  C   UNL     1       3.293  -4.080  -2.060  1.00  0.00     0.095 A 
BRANCH   9  13
HETATM   13  C   UNL     1       3.075  -0.344   0.210  1.00  0.00    -0.024 C 
HETATM   14  C   UNL     1       1.676   0.220  -0.113  1.00  0.00     0.019 C 
HETATM   15  C   UNL     1       4.134   0.713  -0.177  1.00  0.00     0.019 C 
HETATM   16  C   UNL     1       3.182  -0.533   1.741  1.00  0.00     0.019 C 
ENDBRANCH   9  13
BRANCH  12  17
HETATM   17  O   UNL     1       3.331  -5.177  -2.888  1.00  0.00    -0.354 OA
HETATM   18  C   UNL     1       2.863  -6.410  -2.351  1.00  0.00     0.210 C 
ENDBRANCH  12  17
ENDBRANCH   1   7
BRANCH   3  19
HETATM   19  C   UNL     1       6.637  -0.469  -5.027  1.00  0.00     0.166 C 
BRANCH  19  20
HETATM   20  C   UNL     1       7.942  -1.123  -5.439  1.00  0.00     0.003 A 
HETATM   21  C   UNL     1       8.023  -2.129  -6.422  1.00  0.00     0.106 A 
HETATM   22  N   UNL     1       9.230  -2.620  -6.743  1.00  0.00    -0.352 N 
HETATM   23  H   UNL     1       9.256  -3.315  -7.481  1.00  0.00     0.166 HD
HETATM   24  C   UNL     1      10.377  -2.206  -6.197  1.00  0.00     0.089 A 
HETATM   25  C   UNL     1      10.365  -1.215  -5.234  1.00  0.00     0.018 A 
HETATM   26  C   UNL     1       9.140  -0.682  -4.845  1.00  0.00     0.014 A 
BRANCH  21  27
HETATM   27  N   UNL     1       6.979  -2.529  -7.219  1.00  0.00    -0.385 N 
HETATM   28  H   UNL     1       6.033  -2.424  -6.824  1.00  0.00     0.157 HD
HETATM   29  H   UNL     1       7.025  -3.342  -7.816  1.00  0.00     0.157 HD
ENDBRANCH  21  27
ENDBRANCH  19  20
ENDBRANCH   3  19
TORSDOF 6
