REMARK  2 active torsions:
REMARK  status: ('A' for Active; 'I' for Inactive)
REMARK    1  A    between atoms: C_4  and  C_5 
REMARK    2  A    between atoms: C_10  and  C_11 
ROOT
HETATM    1  C   UNL     1       7.175  -0.205   0.461  1.00  0.00     0.202 C 
HETATM    2  N   UNL     1       6.228  -1.103   1.117  1.00  0.00    -0.331 N 
HETATM    3  C   UNL     1       4.799  -0.829   1.055  1.00  0.00     0.155 C 
HETATM    4  C   UNL     1       6.582  -2.457   1.180  1.00  0.00     0.256 C 
HETATM    5  O   UNL     1       5.775  -3.375   1.301  1.00  0.00    -0.267 OA
HETATM    6  C   UNL     1       8.029  -2.763   1.145  1.00  0.00     0.053 A 
HETATM    7  C   UNL     1       8.922  -1.688   1.134  1.00  0.00     0.026 A 
HETATM    8  N   UNL     1       8.460  -0.356   1.159  1.00  0.00    -0.266 NA
HETATM    9  C   UNL     1       8.490  -4.082   1.193  1.00  0.00     0.019 A 
HETATM   10  C   UNL     1       9.860  -4.330   1.263  1.00  0.00     0.001 A 
HETATM   11  C   UNL     1      10.758  -3.262   1.305  1.00  0.00     0.002 A 
HETATM   12  C   UNL     1      10.289  -1.947   1.257  1.00  0.00     0.024 A 
HETATM   13  H   UNL     1       8.305  -0.101   2.132  1.00  0.00     0.130 HD
ENDROOT
BRANCH   1  14
HETATM   14  C   UNL     1       6.701   1.223   0.439  1.00  0.00     0.029 A 
HETATM   15  C   UNL     1       5.991   1.899  -0.597  1.00  0.00     0.121 A 
HETATM   16  N   UNL     1       5.746   3.180  -0.284  1.00  0.00    -0.172 NA
HETATM   17  N   UNL     1       6.299   3.333   0.926  1.00  0.00    -0.288 N 
HETATM   18  H   UNL     1       6.246   4.246   1.366  1.00  0.00     0.188 HD
HETATM   19  C   UNL     1       6.871   2.198   1.410  1.00  0.00     0.122 A 
BRANCH  15  20
HETATM   20  C   UNL     1       5.515   1.307  -1.886  1.00  0.00     0.106 A 
HETATM   21  O   UNL     1       5.689   0.003  -2.259  1.00  0.00    -0.313 OA
HETATM   22  C   UNL     1       5.093  -0.164  -3.471  1.00  0.00     0.050 A 
HETATM   23  C   UNL     1       5.159  -1.519  -4.054  1.00  0.00     0.076 C 
HETATM   24  C   UNL     1       4.544   1.025  -3.895  1.00  0.00     0.035 A 
HETATM   25  C   UNL     1       4.815   1.971  -2.876  1.00  0.00     0.042 A 
ENDBRANCH  15  20
ENDBRANCH   1  14
TORSDOF 2
