REMARK  4 active torsions:
REMARK  status: ('A' for Active; 'I' for Inactive)
REMARK    1  A    between atoms: C_6  and  N_7 
REMARK       I    between atoms: N_7  and  C_8 
REMARK    2  A    between atoms: C_8  and  C_9 
REMARK    3  A    between atoms: C_10  and  C_11 
REMARK    4  A    between atoms: C_13  and  O_14 
ROOT
HETATM    1  C   UNL     1       6.749  -2.548  -0.607  1.00  0.00     0.062 A 
HETATM    2  C   UNL     1       7.624  -3.700  -0.128  1.00  0.00     0.202 A 
HETATM    3  N   UNL     1       6.921  -4.985  -0.248  1.00  0.00    -0.084 N 
HETATM    4  C   UNL     1       5.644  -5.120  -0.725  1.00  0.00     0.725 A 
HETATM    5  N   UNL     1       4.956  -4.025  -1.093  1.00  0.00    -0.192 N 
HETATM    6  N   UNL     1       7.505  -6.192  -0.078  1.00  0.00    -0.149 NA
HETATM    7  C   UNL     1       6.478  -7.004  -0.354  1.00  0.00     0.275 A 
HETATM    8  N   UNL     1       5.326  -6.388  -0.768  1.00  0.00    -0.054 NA
HETATM    9  C   UNL     1       5.483  -2.740  -1.051  1.00  0.00     0.037 A 
HETATM   10  C   UNL     1       4.569  -1.641  -1.534  1.00  0.00     0.070 C 
HETATM   11  H   UNL     1       4.007  -4.137  -1.440  1.00  0.00     0.184 HD
ENDROOT
BRANCH   1  12
HETATM   12  C   UNL     1       7.288  -1.171  -0.473  1.00  0.00     0.256 C 
HETATM   13  N   UNL     1       8.388  -0.943  -1.272  1.00  0.00    -0.323 N 
HETATM   14  H   UNL     1       8.700  -1.705  -1.856  1.00  0.00     0.169 HD
HETATM   15  O   UNL     1       6.726  -0.387   0.280  1.00  0.00    -0.267 OA
BRANCH  13  16
HETATM   16  C   UNL     1       9.114   0.267  -1.407  1.00  0.00     0.041 A 
HETATM   17  C   UNL     1      10.241   0.295  -2.257  1.00  0.00    -0.035 A 
HETATM   18  C   UNL     1      10.951   1.500  -2.427  1.00  0.00     0.015 A 
HETATM   19  C   UNL     1      10.724  -0.922  -3.001  1.00  0.00     0.050 C 
HETATM   20  C   UNL     1      10.575   2.667  -1.755  1.00  0.00    -0.061 A 
HETATM   21  C   UNL     1      11.312   3.955  -1.973  1.00  0.00     0.048 C 
HETATM   22  C   UNL     1       9.463   2.628  -0.916  1.00  0.00     0.009 A 
HETATM   23  C   UNL     1       8.746   1.441  -0.740  1.00  0.00     0.030 A 
ENDBRANCH  13  16
ENDBRANCH   1  12
BRANCH   2  24
HETATM   24  C   UNL     1       8.198  -3.539   1.277  1.00  0.00    -0.025 A 
HETATM   25  C   UNL     1       7.470  -2.939   2.322  1.00  0.00     0.046 A 
HETATM   26  C   UNL     1       8.037  -2.781   3.589  1.00  0.00     0.068 A 
HETATM   27  C   UNL     1       9.317  -3.277   3.838  1.00  0.00     0.037 A 
HETATM   28  C   UNL     1      10.042  -3.900   2.825  1.00  0.00     0.003 A 
HETATM   29  C   UNL     1       9.489  -4.026   1.552  1.00  0.00     0.010 A 
BRANCH  26  30
HETATM   30  O   UNL     1       7.434  -2.179   4.660  1.00  0.00    -0.356 OA
HETATM   31  C   UNL     1       6.351  -1.305   4.355  1.00  0.00     0.210 C 
ENDBRANCH  26  30
ENDBRANCH   2  24
TORSDOF 4
