REMARK  6 active torsions:
REMARK  status: ('A' for Active; 'I' for Inactive)
REMARK    1  A    between atoms: C_5  and  C_6 
REMARK    2  A    between atoms: C_6  and  O_7 
REMARK    3  A    between atoms: C_6  and  C_8 
REMARK    4  A    between atoms: C_8  and  N_9 
REMARK       I    between atoms: N_9  and  C_10 
REMARK    5  A    between atoms: C_10  and  C_11 
REMARK    6  A    between atoms: C_11  and  C_12 
ROOT
HETATM    1  N   UNL     1       8.954  -1.397  -1.083  1.00  0.00    -0.358 N 
HETATM    2  C   UNL     1       9.386  -2.660  -0.748  1.00  0.00     0.222 C 
HETATM    3  O   UNL     1       8.650  -3.513  -0.261  1.00  0.00    -0.273 OA
HETATM    4  H   UNL     1       9.575  -0.781  -1.591  1.00  0.00     0.162 HD
ENDROOT
BRANCH   1   5
HETATM    5  C   UNL     1       7.556  -1.006  -0.974  1.00  0.00     0.159 C 
BRANCH   5   6
HETATM    6  C   UNL     1       6.957  -1.031   0.448  1.00  0.00     0.169 C 
BRANCH   6   7
HETATM    7  C   UNL     1       7.703  -0.157   1.437  1.00  0.00    -0.028 A 
HETATM    8  C   UNL     1       8.435  -0.742   2.479  1.00  0.00     0.010 A 
HETATM    9  C   UNL     1       9.109   0.053   3.410  1.00  0.00     0.007 A 
HETATM   10  C   UNL     1       9.059   1.448   3.320  1.00  0.00    -0.062 A 
HETATM   11  C   UNL     1       9.784   2.310   4.310  1.00  0.00     0.048 C 
HETATM   12  C   UNL     1       8.343   2.035   2.271  1.00  0.00     0.007 A 
HETATM   13  C   UNL     1       7.669   1.241   1.341  1.00  0.00     0.010 A 
ENDBRANCH   6   7
BRANCH   6  14
HETATM   14  O   UNL     1       5.595  -0.586   0.382  1.00  0.00    -0.389 OA
HETATM   15  H   UNL     1       5.321  -0.408   1.299  1.00  0.00     0.210 HD
ENDBRANCH   6  14
ENDBRANCH   5   6
ENDBRANCH   1   5
BRANCH   2  16
HETATM   16  C   UNL     1      10.849  -2.931  -1.049  1.00  0.00     0.142 C 
BRANCH  16  17
HETATM   17  C   UNL     1      11.096  -3.597  -2.377  1.00  0.00    -0.031 A 
HETATM   18  C   UNL     1      10.222  -4.529  -2.924  1.00  0.00     0.125 A 
HETATM   19  N   UNL     1      10.431  -5.178  -4.093  1.00  0.00    -0.260 NA
HETATM   20  C   UNL     1      11.569  -4.933  -4.763  1.00  0.00     0.066 A 
HETATM   21  C   UNL     1      12.538  -4.026  -4.289  1.00  0.00    -0.007 A 
HETATM   22  C   UNL     1      11.815  -5.595  -5.958  1.00  0.00     0.032 A 
HETATM   23  C   UNL     1      12.281  -3.361  -3.080  1.00  0.00     0.022 A 
HETATM   24  C   UNL     1      13.722  -3.814  -5.018  1.00  0.00     0.014 A 
HETATM   25  C   UNL     1      13.946  -4.495  -6.214  1.00  0.00     0.001 A 
HETATM   26  C   UNL     1      12.990  -5.387  -6.685  1.00  0.00     0.002 A 
ENDBRANCH  16  17
ENDBRANCH   2  16
TORSDOF 6
