REMARK  9 active torsions:
REMARK  status: ('A' for Active; 'I' for Inactive)
REMARK    1  A    between atoms: O_2  and  C_3 
REMARK    2  A    between atoms: C_5  and  O_6 
REMARK    3  A    between atoms: C_9  and  C_10 
REMARK       I    between atoms: C_10  and  N_11 
REMARK    4  A    between atoms: N_11  and  C_12 
REMARK    5  A    between atoms: C_12  and  N_13 
REMARK    6  A    between atoms: N_13  and  C_14 
REMARK    7  A    between atoms: C_17  and  N_18 
REMARK    8  A    between atoms: N_21  and  C_23 
REMARK    9  A    between atoms: C_23  and  C_24 
ROOT
HETATM    1  C   UNL     1       5.311   2.067   3.674  1.00  0.00     0.034 A 
HETATM    2  C   UNL     1       4.589   0.891   3.479  1.00  0.00     0.032 A 
HETATM    3  C   UNL     1       4.388   0.360   2.192  1.00  0.00     0.031 A 
HETATM    4  C   UNL     1       4.885   0.988   1.047  1.00  0.00     0.030 A 
HETATM    5  C   UNL     1       5.554   2.207   1.259  1.00  0.00     0.031 A 
HETATM    6  C   UNL     1       5.766   2.740   2.544  1.00  0.00     0.032 A 
ENDROOT
BRANCH   1   7
HETATM    7  N   UNL     1       5.523   2.661   4.943  1.00  0.00    -0.333 N 
HETATM    8  H   UNL     1       5.933   3.587   4.929  1.00  0.00     0.168 HD
BRANCH   7   9
HETATM    9  C   UNL     1       5.428   2.087   6.180  1.00  0.00     0.179 C 
HETATM   10  S   UNL     1       5.752   0.487   6.574  1.00  0.00    -0.040 SA
BRANCH   9  11
HETATM   11  N   UNL     1       5.020   2.894   7.236  1.00  0.00    -0.299 N 
HETATM   12  C   UNL     1       4.662   4.202   7.578  1.00  0.00     0.258 C 
HETATM   13  O   UNL     1       4.189   4.401   8.698  1.00  0.00    -0.267 OA
HETATM   14  H   UNL     1       4.884   2.322   8.064  1.00  0.00     0.171 HD
BRANCH  12  15
HETATM   15  C   UNL     1       4.909   5.369   6.715  1.00  0.00     0.037 A 
HETATM   16  C   UNL     1       4.429   5.485   5.411  1.00  0.00     0.054 A 
HETATM   17  C   UNL     1       4.683   6.649   4.673  1.00  0.00     0.071 A 
HETATM   18  C   UNL     1       5.331   7.731   5.278  1.00  0.00     0.073 A 
HETATM   19  C   UNL     1       5.731   7.644   6.611  1.00  0.00     0.071 A 
HETATM   20  C   UNL     1       5.552   6.458   7.316  1.00  0.00     0.054 A 
BRANCH  17  21
HETATM   21  O   UNL     1       4.252   6.606   3.373  1.00  0.00    -0.356 OA
HETATM   22  C   UNL     1       4.588   7.720   2.551  1.00  0.00     0.210 C 
ENDBRANCH  17  21
BRANCH  19  23
HETATM   23  O   UNL     1       6.349   8.661   7.286  1.00  0.00    -0.356 OA
HETATM   24  C   UNL     1       5.716   9.930   7.119  1.00  0.00     0.210 C 
ENDBRANCH  19  23
ENDBRANCH  12  15
ENDBRANCH   9  11
ENDBRANCH   7   9
ENDBRANCH   1   7
BRANCH   4  25
HETATM   25  N   UNL     1       4.691   0.494  -0.243  1.00  0.00    -0.378 N 
HETATM   26  C   UNL     1       3.722  -0.586  -0.517  1.00  0.00     0.150 C 
HETATM   27  C   UNL     1       4.410  -1.969  -0.550  1.00  0.00     0.255 C 
HETATM   28  N   UNL     1       5.580  -1.957  -1.533  1.00  0.00    -0.064 N 
HETATM   29  H   UNL     1       5.191  -1.738  -2.463  1.00  0.00     0.280 HD
HETATM   30  C   UNL     1       6.564  -0.838  -1.184  1.00  0.00     0.255 C 
HETATM   31  C   UNL     1       5.837   0.524  -1.176  1.00  0.00     0.150 C 
BRANCH  28  32
HETATM   32  C   UNL     1       6.235  -3.310  -1.665  1.00  0.00     0.276 C 
BRANCH  32  33
HETATM   33  C   UNL     1       7.257  -3.391  -2.763  1.00  0.00     0.006 A 
HETATM   34  C   UNL     1       6.931  -2.977  -4.059  1.00  0.00     0.124 A 
HETATM   35  F   UNL     1       5.707  -2.476  -4.290  1.00  0.00    -0.206 F 
HETATM   36  C   UNL     1       7.854  -3.027  -5.097  1.00  0.00     0.043 A 
HETATM   37  C   UNL     1       9.135  -3.512  -4.846  1.00  0.00     0.003 A 
HETATM   38  C   UNL     1       9.478  -3.947  -3.565  1.00  0.00     0.001 A 
HETATM   39  C   UNL     1       8.544  -3.892  -2.526  1.00  0.00     0.012 A 
ENDBRANCH  32  33
ENDBRANCH  28  32
ENDBRANCH   4  25
TORSDOF 9
