REMARK  6 active torsions:
REMARK  status: ('A' for Active; 'I' for Inactive)
REMARK    1  A    between atoms: C_2  and  C_3 
REMARK    2  A    between atoms: C_3  and  C_4 
REMARK    3  A    between atoms: N_7  and  C_9 
REMARK    4  A    between atoms: C_9  and  C_10 
REMARK    5  A    between atoms: N_23  and  C_24 
REMARK    6  A    between atoms: C_24  and  C_25 
ROOT
HETATM    1  C   UNL     1       3.077   1.339   1.277  1.00  0.00     0.119 C 
HETATM    2  N   UNL     1       3.066   2.759   0.964  1.00  0.00    -0.324 N 
HETATM    3  C   UNL     1       2.383   3.486   1.919  1.00  0.00     0.326 C 
HETATM    4  O   UNL     1       2.391   4.703   1.936  1.00  0.00    -0.247 OA
HETATM    5  N   UNL     1       1.752   2.629   2.756  1.00  0.00    -0.264 N 
HETATM    6  C   UNL     1       2.056   1.337   2.441  1.00  0.00     0.257 C 
HETATM    7  O   UNL     1       1.614   0.333   2.979  1.00  0.00    -0.270 OA
HETATM    8  H   UNL     1       3.850   3.257   0.556  1.00  0.00     0.165 HD
ENDROOT
BRANCH   1   9
HETATM    9  C   UNL     1       4.475   0.982   1.839  1.00  0.00     0.037 C 
HETATM   10  C   UNL     1       4.699  -0.488   2.168  1.00  0.00     0.008 C 
ENDBRANCH   1   9
BRANCH   1  11
HETATM   11  C   UNL     1       2.586   0.453   0.088  1.00  0.00     0.026 C 
HETATM   12  C   UNL     1       3.496   0.498  -1.151  1.00  0.00     0.035 C 
HETATM   13  C   UNL     1       3.329   1.745  -2.012  1.00  0.00     0.235 C 
HETATM   14  N   UNL     1       1.885   1.941  -2.404  1.00  0.00    -0.067 N 
HETATM   15  H   UNL     1       1.628   1.149  -3.007  1.00  0.00     0.280 HD
HETATM   16  C   UNL     1       0.938   1.941  -1.224  1.00  0.00     0.235 C 
HETATM   17  C   UNL     1       1.134   0.696  -0.375  1.00  0.00     0.035 C 
BRANCH  14  18
HETATM   18  C   UNL     1       1.654   3.200  -3.229  1.00  0.00     0.273 C 
BRANCH  18  19
HETATM   19  C   UNL     1       2.588   3.376  -4.395  1.00  0.00    -0.027 A 
HETATM   20  C   UNL     1       2.464   2.596  -5.553  1.00  0.00     0.051 A 
HETATM   21  C   UNL     1       3.362   2.766  -6.609  1.00  0.00     0.119 A 
HETATM   22  F   UNL     1       3.228   2.006  -7.702  1.00  0.00    -0.206 F 
HETATM   23  C   UNL     1       4.390   3.694  -6.542  1.00  0.00     0.084 A 
HETATM   24  C   UNL     1       4.511   4.467  -5.398  1.00  0.00     0.119 A 
HETATM   25  F   UNL     1       5.499   5.364  -5.305  1.00  0.00    -0.206 F 
HETATM   26  C   UNL     1       3.627   4.320  -4.331  1.00  0.00     0.051 A 
ENDBRANCH  18  19
ENDBRANCH  14  18
ENDBRANCH   1  11
BRANCH   5  27
HETATM   27  C   UNL     1       0.891   3.037   3.843  1.00  0.00     0.175 C 
BRANCH  27  28
HETATM   28  C   UNL     1      -0.528   3.257   3.371  1.00  0.00    -0.037 A 
HETATM   29  C   UNL     1      -1.445   2.193   3.368  1.00  0.00     0.048 A 
HETATM   30  C   UNL     1      -2.733   2.449   2.948  1.00  0.00     0.105 A 
HETATM   31  C   UNL     1      -3.124   3.697   2.524  1.00  0.00     0.105 A 
HETATM   32  O   UNL     1      -3.748   1.545   2.901  1.00  0.00    -0.323 OA
HETATM   33  O   UNL     1      -4.434   3.734   2.161  1.00  0.00    -0.323 OA
HETATM   34  C   UNL     1      -2.249   4.759   2.489  1.00  0.00     0.040 A 
HETATM   35  C   UNL     1      -4.845   2.390   2.494  1.00  0.00     0.352 A 
HETATM   36  C   UNL     1      -0.936   4.533   2.916  1.00  0.00     0.012 A 
ENDBRANCH  27  28
ENDBRANCH   5  27
TORSDOF 6
