REMARK  7 active torsions:
REMARK  status: ('A' for Active; 'I' for Inactive)
REMARK    1  A    between atoms: C_4  and  N_5 
REMARK    2  A    between atoms: C_6  and  S_7 
REMARK    3  A    between atoms: S_7  and  C_8 
REMARK    4  A    between atoms: C_8  and  C_9 
REMARK       I    between atoms: C_9  and  N_10 
REMARK    5  A    between atoms: C_12  and  C_13 
REMARK    6  A    between atoms: C_13  and  N_14 
REMARK       I    between atoms: N_14  and  C_15 
REMARK       I    between atoms: C_15  and  N_16 
REMARK    7  A    between atoms: N_16  and  C_17 
ROOT
HETATM    1  C   UNL     1       0.868   6.108   1.513  1.00  0.00     0.229 C 
HETATM    2  N   UNL     1       0.151   4.997   1.041  1.00  0.00    -0.351 N 
HETATM    3  C   UNL     1      -1.163   5.104   0.415  1.00  0.00     0.132 C 
HETATM    4  C   UNL     1      -1.564   3.898  -0.443  1.00  0.00     0.021 C 
HETATM    5  C   UNL     1      -1.294   2.580   0.294  1.00  0.00     0.009 C 
HETATM    6  C   UNL     1       0.122   2.520   0.847  1.00  0.00     0.020 C 
HETATM    7  C   UNL     1       0.422   3.730   1.723  1.00  0.00     0.126 C 
HETATM    8  O   UNL     1       1.806   5.957   2.307  1.00  0.00    -0.273 OA
ENDROOT
BRANCH   1   9
HETATM    9  C   UNL     1       0.652   7.487   0.901  1.00  0.00     0.185 C 
BRANCH   9  10
HETATM   10  S   UNL     1      -0.927   8.325   1.146  1.00  0.00    -0.082 SA
BRANCH  10  11
HETATM   11  C   UNL     1      -1.449   7.832   2.721  1.00  0.00     0.173 A 
HETATM   12  N   UNL     1      -2.767   7.903   3.166  1.00  0.00    -0.299 N 
HETATM   13  C   UNL     1      -2.714   7.535   4.498  1.00  0.00     0.118 A 
HETATM   14  C   UNL     1      -1.396   7.272   4.777  1.00  0.00     0.137 A 
HETATM   15  N   UNL     1      -0.621   7.469   3.673  1.00  0.00    -0.235 NA
BRANCH  12  16
HETATM   16  C   UNL     1      -3.967   8.185   2.443  1.00  0.00     0.047 A 
HETATM   17  C   UNL     1      -4.131   7.619   1.164  1.00  0.00     0.037 A 
HETATM   18  C   UNL     1      -5.307   7.804   0.428  1.00  0.00    -0.060 A 
HETATM   19  C   UNL     1      -5.449   7.219  -0.948  1.00  0.00     0.048 C 
HETATM   20  C   UNL     1      -6.330   8.576   0.975  1.00  0.00     0.007 A 
HETATM   21  C   UNL     1      -6.181   9.144   2.242  1.00  0.00     0.009 A 
HETATM   22  C   UNL     1      -5.000   8.975   2.989  1.00  0.00    -0.035 A 
HETATM   23  C   UNL     1      -4.914   9.696   4.307  1.00  0.00     0.050 C 
ENDBRANCH  12  16
ENDBRANCH  10  11
ENDBRANCH   9  10
ENDBRANCH   1   9
BRANCH   4  24
HETATM   24  C   UNL     1      -0.872   3.988  -1.816  1.00  0.00     0.130 C 
BRANCH  24  25
HETATM   25  N   UNL     1      -1.313   2.982  -2.766  1.00  0.00    -0.342 N 
HETATM   26  C   UNL     1      -2.576   2.998  -3.279  1.00  0.00     0.320 C 
HETATM   27  N   UNL     1      -2.872   2.082  -4.243  1.00  0.00    -0.309 N 
HETATM   28  O   UNL     1      -3.426   3.824  -2.955  1.00  0.00    -0.247 OA
HETATM   29  H   UNL     1      -3.756   2.305  -4.686  1.00  0.00     0.170 HD
HETATM   30  H   UNL     1      -0.621   2.709  -3.448  1.00  0.00     0.164 HD
BRANCH  27  31
HETATM   31  C   UNL     1      -2.211   0.928  -4.703  1.00  0.00     0.039 A 
HETATM   32  C   UNL     1      -1.179   0.283  -4.020  1.00  0.00     0.071 A 
HETATM   33  C   UNL     1      -0.579  -0.844  -4.577  1.00  0.00     0.118 A 
HETATM   34  F   UNL     1       0.419  -1.447  -3.918  1.00  0.00    -0.206 F 
HETATM   35  C   UNL     1      -0.999  -1.360  -5.797  1.00  0.00     0.042 A 
HETATM   36  C   UNL     1      -2.052  -0.747  -6.467  1.00  0.00     0.005 A 
HETATM   37  C   UNL     1      -2.660   0.386  -5.916  1.00  0.00     0.030 A 
ENDBRANCH  27  31
ENDBRANCH  24  25
ENDBRANCH   4  24
TORSDOF 7
