REMARK  7 active torsions:
REMARK  status: ('A' for Active; 'I' for Inactive)
REMARK    1  A    between atoms: C_4  and  C_5 
REMARK    2  A    between atoms: C_10  and  C_11 
REMARK       I    between atoms: C_11  and  N_12 
REMARK    3  A    between atoms: N_12  and  C_13 
REMARK    4  A    between atoms: C_13  and  C_14 
REMARK    5  A    between atoms: C_14  and  C_15 
REMARK    6  A    between atoms: C_15  and  N_16 
REMARK    7  A    between atoms: C_26  and  C_27 
ROOT
HETATM    1  C   UNL     1       2.348  -2.362   0.345  1.00  0.00     0.125 C 
HETATM    2  N   UNL     1       2.247  -2.251  -1.114  1.00  0.00    -0.365 N 
HETATM    3  C   UNL     1       2.147  -3.350  -1.901  1.00  0.00     0.141 A 
HETATM    4  N   UNL     1       1.947  -4.593  -1.358  1.00  0.00    -0.238 N 
HETATM    5  N   UNL     1       1.922  -5.581  -2.271  1.00  0.00    -0.163 NA
HETATM    6  C   UNL     1       2.018  -4.938  -3.458  1.00  0.00     0.165 A 
HETATM    7  C   UNL     1       2.184  -3.547  -3.258  1.00  0.00     0.092 A 
HETATM    8 BR   UNL     1       2.386  -2.236  -4.579  1.00  0.00    -0.044 Br
HETATM    9  C   UNL     1       1.863  -4.849   0.072  1.00  0.00     0.221 C 
HETATM   10  C   UNL     1       1.491  -3.552   0.814  1.00  0.00     0.067 C 
HETATM   11  H   UNL     1       2.593  -1.370  -1.497  1.00  0.00     0.162 HD
ENDROOT
BRANCH   6  12
HETATM   12  C   UNL     1       1.916  -5.700  -4.708  1.00  0.00     0.273 C 
HETATM   13  N   UNL     1       1.773  -7.059  -4.512  1.00  0.00    -0.355 N 
HETATM   14  H   UNL     1       1.819  -7.362  -3.536  1.00  0.00     0.162 HD
HETATM   15  O   UNL     1       1.881  -5.215  -5.840  1.00  0.00    -0.266 OA
BRANCH  13  16
HETATM   16  C   UNL     1       1.712  -8.024  -5.581  1.00  0.00     0.124 C 
BRANCH  16  17
HETATM   17  C   UNL     1       0.289  -8.317  -6.053  1.00  0.00     0.047 C 
BRANCH  17  18
HETATM   18  C   UNL     1      -0.549  -7.122  -6.513  1.00  0.00     0.236 C 
BRANCH  18  19
HETATM   19  N   UNL     1       0.124  -6.261  -7.548  1.00  0.00    -0.067 N 
HETATM   20  H   UNL     1       1.008  -5.907  -7.123  1.00  0.00     0.280 HD
HETATM   21  C   UNL     1       0.450  -6.964  -8.853  1.00  0.00     0.261 C 
HETATM   22  C   UNL     1       1.124  -5.985  -9.821  1.00  0.00     0.195 C 
HETATM   23  O   UNL     1       0.299  -4.838 -10.052  1.00  0.00    -0.388 OA
HETATM   24  C   UNL     1       0.059  -4.117  -8.838  1.00  0.00     0.195 C 
HETATM   25  C   UNL     1      -0.685  -4.993  -7.825  1.00  0.00     0.261 C 
ENDBRANCH  18  19
ENDBRANCH  17  18
ENDBRANCH  16  17
ENDBRANCH  13  16
ENDBRANCH   6  12
BRANCH   9  26
HETATM   26  C   UNL     1       0.851  -5.929   0.391  1.00  0.00     0.409 C 
HETATM   27  F   UNL     1      -0.382  -5.627  -0.077  1.00  0.00    -0.169 F 
HETATM   28  F   UNL     1       1.198  -7.138  -0.102  1.00  0.00    -0.169 F 
HETATM   29  F   UNL     1       0.736  -6.082   1.734  1.00  0.00    -0.169 F 
ENDBRANCH   9  26
BRANCH   1  30
HETATM   30  C   UNL     1       3.760  -2.441   0.882  1.00  0.00     0.005 A 
HETATM   31  S   UNL     1       4.070  -1.990   2.513  1.00  0.00    -0.104 SA
HETATM   32  C   UNL     1       5.736  -2.336   2.365  1.00  0.00     0.050 A 
HETATM   33  C   UNL     1       6.062  -2.773   1.102  1.00  0.00     0.008 A 
HETATM   34  C   UNL     1       4.925  -2.829   0.245  1.00  0.00     0.017 A 
ENDBRANCH   1  30
TORSDOF 7
