REMARK  4 active torsions:
REMARK  status: ('A' for Active; 'I' for Inactive)
REMARK    1  A    between atoms: C_2  and  C_3 
REMARK    2  A    between atoms: C_3  and  N_4 
REMARK    3  A    between atoms: C_3  and  C_17 
REMARK       I    between atoms: N_4  and  C_5 
REMARK    4  A    between atoms: C_5  and  C_6 
ROOT
HETATM    1  N   UNL     1       2.436  -1.765   1.604  1.00  0.00    -0.345 N 
HETATM    2  C   UNL     1       2.387  -2.117   2.941  1.00  0.00     0.252 C 
HETATM    3  O   UNL     1       3.000  -1.491   3.800  1.00  0.00    -0.268 OA
HETATM    4  H   UNL     1       1.729  -2.177   1.006  1.00  0.00     0.163 HD
ENDROOT
BRANCH   1   5
HETATM    5  C   UNL     1       3.002  -0.477   1.193  1.00  0.00     0.152 C 
BRANCH   5   6
HETATM    6  C   UNL     1       2.657  -0.155  -0.266  1.00  0.00     0.028 C 
HETATM    7  C   UNL     1       1.169   0.082  -0.488  1.00  0.00     0.007 C 
ENDBRANCH   5   6
BRANCH   5   8
HETATM    8  C   UNL     1       4.507  -0.428   1.490  1.00  0.00     0.104 A 
HETATM    9  N   UNL     1       5.526  -0.225   0.636  1.00  0.00    -0.347 N 
HETATM   10  H   UNL     1       5.415  -0.087  -0.365  1.00  0.00     0.167 HD
HETATM   11  C   UNL     1       6.752  -0.228   1.296  1.00  0.00     0.022 A 
HETATM   12  C   UNL     1       8.038  -0.017   0.613  1.00  0.00     0.069 C 
HETATM   13  C   UNL     1       6.448  -0.462   2.614  1.00  0.00     0.114 A 
HETATM   14  N   UNL     1       5.088  -0.580   2.690  1.00  0.00    -0.352 N 
HETATM   15  H   UNL     1       4.523  -0.812   3.520  1.00  0.00     0.166 HD
ENDBRANCH   5   8
ENDBRANCH   1   5
BRANCH   2  16
HETATM   16  C   UNL     1       1.513  -3.269   3.295  1.00  0.00     0.033 A 
HETATM   17  C   UNL     1       0.896  -3.257   4.560  1.00  0.00     0.031 A 
HETATM   18  C   UNL     1       0.014  -4.302   4.890  1.00  0.00     0.001 A 
HETATM   19  C   UNL     1      -0.193  -5.314   3.962  1.00  0.00     0.086 A 
HETATM   20  C   UNL     1      -0.802  -4.629   6.005  1.00  0.00     0.046 A 
HETATM   21  O   UNL     1      -1.084  -6.222   4.442  1.00  0.00    -0.315 OA
HETATM   22  C   UNL     1       0.428  -5.377   2.717  1.00  0.00     0.039 A 
HETATM   23  C   UNL     1      -1.459  -5.799   5.682  1.00  0.00     0.050 A 
HETATM   24  C   UNL     1      -2.451  -6.632   6.392  1.00  0.00     0.077 C 
HETATM   25  C   UNL     1       1.296  -4.326   2.397  1.00  0.00     0.020 A 
ENDBRANCH   2  16
TORSDOF 4
