REMARK  6 active torsions:
REMARK  status: ('A' for Active; 'I' for Inactive)
REMARK    1  A    between atoms: C_6  and  C_7 
REMARK    2  A    between atoms: C_7  and  N_8 
REMARK    3  A    between atoms: C_12  and  C_13 
REMARK    4  A    between atoms: C_13  and  C_14 
REMARK    5  A    between atoms: N_23  and  C_24 
REMARK    6  A    between atoms: C_24  and  C_25 
ROOT
HETATM    1  C   UNL     1       2.566  -1.845   0.640  1.00  0.00     0.164 C 
HETATM    2  N   UNL     1       3.016  -2.595   1.806  1.00  0.00    -0.319 N 
HETATM    3  C   UNL     1       3.849  -1.870   2.621  1.00  0.00     0.326 C 
HETATM    4  O   UNL     1       4.199  -2.225   3.731  1.00  0.00    -0.247 OA
HETATM    5  N   UNL     1       4.187  -0.726   1.976  1.00  0.00    -0.265 N 
HETATM    6  C   UNL     1       3.468  -0.609   0.822  1.00  0.00     0.263 C 
HETATM    7  O   UNL     1       3.527   0.331   0.034  1.00  0.00    -0.270 OA
HETATM    8  H   UNL     1       2.462  -3.345   2.209  1.00  0.00     0.166 HD
ENDROOT
BRANCH   1   9
HETATM    9  C   UNL     1       2.858  -2.688  -0.655  1.00  0.00     0.033 C 
HETATM   10  C   UNL     1       4.348  -2.925  -0.976  1.00  0.00     0.036 C 
HETATM   11  C   UNL     1       5.051  -1.780  -1.697  1.00  0.00     0.235 C 
HETATM   12  N   UNL     1       4.265  -1.312  -2.896  1.00  0.00    -0.067 N 
HETATM   13  H   UNL     1       4.336  -2.052  -3.604  1.00  0.00     0.280 HD
HETATM   14  C   UNL     1       2.805  -1.052  -2.638  1.00  0.00     0.235 C 
HETATM   15  C   UNL     1       2.155  -2.235  -1.948  1.00  0.00     0.036 C 
BRANCH  12  16
HETATM   16  C   UNL     1       4.893  -0.066  -3.512  1.00  0.00     0.273 C 
BRANCH  16  17
HETATM   17  C   UNL     1       6.254  -0.294  -4.118  1.00  0.00    -0.027 A 
HETATM   18  C   UNL     1       7.438   0.218  -3.544  1.00  0.00    -0.054 A 
HETATM   19  C   UNL     1       8.668  -0.017  -4.185  1.00  0.00     0.014 A 
HETATM   20  C   UNL     1       7.440   1.044  -2.285  1.00  0.00     0.049 C 
HETATM   21  C   UNL     1       8.742  -0.740  -5.380  1.00  0.00    -0.061 A 
HETATM   22  C   UNL     1      10.058  -0.964  -6.066  1.00  0.00     0.048 C 
HETATM   23  C   UNL     1       7.569  -1.250  -5.937  1.00  0.00     0.007 A 
HETATM   24  C   UNL     1       6.339  -1.030  -5.315  1.00  0.00     0.010 A 
ENDBRANCH  16  17
ENDBRANCH  12  16
ENDBRANCH   1   9
BRANCH   1  25
HETATM   25  C   UNL     1       1.076  -1.549   0.813  1.00  0.00     0.072 A 
HETATM   26  N   UNL     1       0.293  -2.645   1.022  1.00  0.00    -0.262 NA
HETATM   27  C   UNL     1      -1.035  -2.457   1.198  1.00  0.00     0.117 A 
HETATM   28  C   UNL     1      -1.643  -1.217   1.156  1.00  0.00     0.019 A 
HETATM   29  C   UNL     1      -0.845  -0.106   0.926  1.00  0.00     0.003 A 
HETATM   30  C   UNL     1       0.529  -0.267   0.753  1.00  0.00     0.030 A 
ENDBRANCH   1  25
BRANCH   5  31
HETATM   31  C   UNL     1       5.174   0.233   2.440  1.00  0.00     0.168 C 
BRANCH  31  32
HETATM   32  C   UNL     1       6.628  -0.222   2.213  1.00  0.00     0.140 C 
HETATM   33  O   UNL     1       6.764  -0.948   0.966  1.00  0.00    -0.384 OA
HETATM   34  C   UNL     1       7.675  -2.033   1.208  1.00  0.00     0.168 C 
HETATM   35  C   UNL     1       7.456  -2.429   2.647  1.00  0.00     0.029 C 
HETATM   36  C   UNL     1       7.216  -1.098   3.316  1.00  0.00     0.036 C 
ENDBRANCH  31  32
ENDBRANCH   5  31
TORSDOF 6
