REMARK  6 active torsions:
REMARK  status: ('A' for Active; 'I' for Inactive)
REMARK    1  A    between atoms: C_2  and  O_3 
REMARK    2  A    between atoms: C_2  and  C_4 
REMARK    3  A    between atoms: C_6  and  N_7 
REMARK       I    between atoms: N_7  and  C_8 
REMARK    4  A    between atoms: C_8  and  C_9 
REMARK    5  A    between atoms: C_12  and  C_13 
REMARK    6  A    between atoms: C_18  and  C_19 
ROOT
HETATM    1  C   UNL     1       4.025   0.411  -3.991  1.00  0.00     0.096 C 
HETATM    2  C   UNL     1       2.977   1.297  -3.817  1.00  0.00     0.138 C 
HETATM    3  N   UNL     1       3.486   2.343  -3.081  1.00  0.00    -0.240 N 
HETATM    4  C   UNL     1       2.706   3.477  -2.619  1.00  0.00     0.221 C 
HETATM    5  C   UNL     1       1.387   3.577  -3.406  1.00  0.00     0.068 C 
HETATM    6  C   UNL     1       0.731   2.198  -3.534  1.00  0.00     0.143 C 
HETATM    7  N   UNL     1       1.670   1.279  -4.204  1.00  0.00    -0.363 N 
HETATM    8  N   UNL     1       4.730   2.120  -2.632  1.00  0.00    -0.181 NA
HETATM    9  C   UNL     1       5.068   0.965  -3.211  1.00  0.00     0.160 C 
HETATM   10  H   UNL     1       1.235   0.363  -4.343  1.00  0.00     0.162 HD
ENDROOT
BRANCH   1  11
HETATM   11  C   UNL     1       4.074  -0.835  -4.741  1.00  0.00     0.261 C 
HETATM   12  N   UNL     1       3.112  -0.917  -5.728  1.00  0.00    -0.323 N 
HETATM   13  H   UNL     1       2.581  -0.068  -5.888  1.00  0.00     0.169 HD
HETATM   14  O   UNL     1       4.928  -1.677  -4.491  1.00  0.00    -0.267 OA
BRANCH  12  15
HETATM   15  C   UNL     1       2.828  -2.007  -6.574  1.00  0.00     0.035 A 
HETATM   16  C   UNL     1       3.457  -3.251  -6.480  1.00  0.00     0.039 A 
HETATM   17  C   UNL     1       3.114  -4.309  -7.343  1.00  0.00    -0.028 A 
HETATM   18  C   UNL     1       2.115  -4.099  -8.302  1.00  0.00     0.010 A 
HETATM   19  C   UNL     1       1.484  -2.861  -8.406  1.00  0.00     0.003 A 
HETATM   20  C   UNL     1       1.838  -1.821  -7.546  1.00  0.00     0.029 A 
BRANCH  17  21
HETATM   21  C   UNL     1       3.803  -5.648  -7.186  1.00  0.00     0.147 C 
HETATM   22  C   UNL     1       3.146  -6.488  -6.097  1.00  0.00     0.044 C 
BRANCH  21  23
HETATM   23  O   UNL     1       3.770  -6.376  -8.413  1.00  0.00    -0.391 OA
HETATM   24  H   UNL     1       4.315  -7.169  -8.285  1.00  0.00     0.210 HD
ENDBRANCH  21  23
ENDBRANCH  17  21
ENDBRANCH  12  15
ENDBRANCH   1  11
BRANCH   4  25
HETATM   25  C   UNL     1       3.470   4.777  -2.741  1.00  0.00     0.409 C 
HETATM   26  F   UNL     1       3.858   5.028  -4.012  1.00  0.00    -0.169 F 
HETATM   27  F   UNL     1       2.664   5.812  -2.373  1.00  0.00    -0.169 F 
HETATM   28  F   UNL     1       4.554   4.847  -1.943  1.00  0.00    -0.169 F 
ENDBRANCH   4  25
BRANCH   6  29
HETATM   29  C   UNL     1      -0.575   2.319  -4.252  1.00  0.00     0.075 A 
HETATM   30  O   UNL     1      -1.695   2.354  -3.473  1.00  0.00    -0.325 OA
HETATM   31  C   UNL     1      -2.757   2.475  -4.310  1.00  0.00     0.142 A 
HETATM   32  C   UNL     1      -2.336   2.520  -5.619  1.00  0.00     0.027 A 
HETATM   33  C   UNL     1      -0.925   2.419  -5.583  1.00  0.00     0.037 A 
ENDBRANCH   6  29
TORSDOF 6
