REMARK  6 active torsions:
REMARK  status: ('A' for Active; 'I' for Inactive)
REMARK    1  A    between atoms: O_2  and  C_3 
REMARK    2  A    between atoms: C_5  and  C_6 
REMARK    3  A    between atoms: C_12  and  C_13 
REMARK       I    between atoms: C_13  and  N_14 
REMARK    4  A    between atoms: N_14  and  C_15 
REMARK    5  A    between atoms: C_17  and  O_18 
REMARK    6  A    between atoms: C_23  and  C_24 
ROOT
HETATM    1  C   UNL     1       4.434  -0.794  -4.312  1.00  0.00     0.118 C 
HETATM    2  N   UNL     1       4.416  -1.818  -5.368  1.00  0.00    -0.365 N 
HETATM    3  C   UNL     1       4.925  -1.452  -6.580  1.00  0.00     0.138 C 
HETATM    4  N   UNL     1       5.015  -0.122  -6.930  1.00  0.00    -0.240 N 
HETATM    5  N   UNL     1       5.736   0.087  -8.042  1.00  0.00    -0.181 NA
HETATM    6  C   UNL     1       5.973  -1.148  -8.493  1.00  0.00     0.160 C 
HETATM    7  C   UNL     1       5.458  -2.157  -7.643  1.00  0.00     0.096 C 
HETATM    8  C   UNL     1       4.608   0.988  -6.085  1.00  0.00     0.221 C 
HETATM    9  C   UNL     1       3.811   0.492  -4.865  1.00  0.00     0.066 C 
HETATM   10  H   UNL     1       4.673  -2.737  -5.000  1.00  0.00     0.161 HD
ENDROOT
BRANCH   7  11
HETATM   11  C   UNL     1       5.551  -3.588  -7.866  1.00  0.00     0.261 C 
HETATM   12  N   UNL     1       4.542  -4.309  -7.254  1.00  0.00    -0.323 N 
HETATM   13  H   UNL     1       3.823  -3.756  -6.800  1.00  0.00     0.169 HD
HETATM   14  O   UNL     1       6.429  -4.047  -8.588  1.00  0.00    -0.267 OA
BRANCH  12  15
HETATM   15  C   UNL     1       4.324  -5.701  -7.324  1.00  0.00     0.037 A 
HETATM   16  C   UNL     1       5.232  -6.603  -7.884  1.00  0.00     0.066 A 
HETATM   17  C   UNL     1       4.926  -7.963  -7.925  1.00  0.00     0.067 A 
HETATM   18  C   UNL     1       3.727  -8.444  -7.416  1.00  0.00     0.036 A 
HETATM   19  C   UNL     1       2.820  -7.554  -6.849  1.00  0.00     0.005 A 
HETATM   20  C   UNL     1       3.119  -6.189  -6.798  1.00  0.00     0.029 A 
BRANCH  17  21
HETATM   21  O   UNL     1       5.793  -8.867  -8.468  1.00  0.00    -0.361 OA
HETATM   22  H   UNL     1       6.565  -8.385  -8.810  1.00  0.00     0.217 HD
ENDBRANCH  17  21
ENDBRANCH  12  15
ENDBRANCH   7  11
BRANCH   1  23
HETATM   23  C   UNL     1       3.709  -1.288  -3.078  1.00  0.00    -0.033 A 
HETATM   24  C   UNL     1       2.375  -1.726  -3.130  1.00  0.00     0.046 A 
HETATM   25  C   UNL     1       1.696  -2.126  -1.974  1.00  0.00     0.068 A 
HETATM   26  C   UNL     1       2.360  -2.105  -0.749  1.00  0.00     0.037 A 
HETATM   27  C   UNL     1       3.690  -1.684  -0.681  1.00  0.00     0.003 A 
HETATM   28  C   UNL     1       4.359  -1.277  -1.835  1.00  0.00     0.009 A 
BRANCH  25  29
HETATM   29  O   UNL     1       0.398  -2.509  -2.177  1.00  0.00    -0.356 OA
HETATM   30  C   UNL     1      -0.370  -2.809  -1.017  1.00  0.00     0.210 C 
ENDBRANCH  25  29
ENDBRANCH   1  23
BRANCH   8  31
HETATM   31  C   UNL     1       3.784   1.996  -6.855  1.00  0.00     0.409 C 
HETATM   32  F   UNL     1       2.672   1.447  -7.393  1.00  0.00    -0.169 F 
HETATM   33  F   UNL     1       3.362   2.977  -6.011  1.00  0.00    -0.169 F 
HETATM   34  F   UNL     1       4.467   2.617  -7.838  1.00  0.00    -0.169 F 
ENDBRANCH   8  31
TORSDOF 6
