REMARK  2 active torsions:
REMARK  status: ('A' for Active; 'I' for Inactive)
REMARK       I    between atoms: C_2  and  N_3 
REMARK    1  A    between atoms: N_3  and  C_4 
REMARK    2  A    between atoms: C_13  and  N_14 
REMARK       I    between atoms: N_14  and  C_15 
ROOT
HETATM    1  C   UNL     1       2.516   1.645  -1.842  1.00  0.00     0.035 A 
HETATM    2  C   UNL     1       1.612   1.180  -2.795  1.00  0.00     0.038 A 
HETATM    3  C   UNL     1       1.053   2.092  -3.684  1.00  0.00    -0.041 A 
HETATM    4  C   UNL     1       1.349   3.472  -3.649  1.00  0.00    -0.016 A 
HETATM    5  C   UNL     1       0.585   4.147  -4.701  1.00  0.00     0.008 A 
HETATM    6  C   UNL     1      -0.115   3.145  -5.425  1.00  0.00    -0.041 A 
HETATM    7  C   UNL     1      -0.897   3.435  -6.530  1.00  0.00     0.008 A 
HETATM    8  C   UNL     1      -1.000   4.764  -6.918  1.00  0.00     0.003 A 
HETATM    9  C   UNL     1      -0.345   5.778  -6.194  1.00  0.00     0.030 A 
HETATM   10  C   UNL     1       0.453   5.491  -5.075  1.00  0.00     0.046 A 
HETATM   11  C   UNL     1       0.104   1.778  -4.815  1.00  0.00     0.079 A 
HETATM   12  C   UNL     1       2.284   3.925  -2.732  1.00  0.00     0.015 A 
HETATM   13  C   UNL     1       2.855   3.012  -1.829  1.00  0.00     0.030 A 
ENDROOT
BRANCH   1  14
HETATM   14  N   UNL     1       3.137   0.822  -0.880  1.00  0.00    -0.328 N 
HETATM   15  C   UNL     1       2.948  -0.535  -0.685  1.00  0.00     0.218 C 
HETATM   16  C   UNL     1       3.768  -1.076   0.460  1.00  0.00     0.117 C 
HETATM   17  O   UNL     1       2.192  -1.271  -1.311  1.00  0.00    -0.274 OA
HETATM   18  H   UNL     1       3.777   1.288  -0.249  1.00  0.00     0.169 HD
ENDBRANCH   1  14
BRANCH  10  19
HETATM   19  N   UNL     1       1.018   6.495  -4.269  1.00  0.00    -0.327 N 
HETATM   20  C   UNL     1       1.297   7.813  -4.466  1.00  0.00     0.218 C 
HETATM   21  C   UNL     1       1.252   8.429  -5.834  1.00  0.00     0.117 C 
HETATM   22  O   UNL     1       1.639   8.488  -3.491  1.00  0.00    -0.274 OA
HETATM   23  H   UNL     1       1.210   6.228  -3.313  1.00  0.00     0.169 HD
ENDBRANCH  10  19
TORSDOF 2
