REMARK  6 active torsions:
REMARK  status: ('A' for Active; 'I' for Inactive)
REMARK    1  A    between atoms: C_5  and  O_6 
REMARK    2  A    between atoms: O_6  and  C_7 
REMARK    3  A    between atoms: C_7  and  C_8 
REMARK       I    between atoms: C_8  and  N_9 
REMARK    4  A    between atoms: N_9  and  C_10 
REMARK    5  A    between atoms: C_10  and  C_11 
REMARK       I    between atoms: C_11  and  N_12 
REMARK    6  A    between atoms: N_12  and  N_13 
ROOT
HETATM    1  C   UNL     1       9.286   2.870  -1.318  1.00  0.00     0.255 C 
HETATM    2  N   UNL     1       9.265   3.978  -0.485  1.00  0.00    -0.245 N 
HETATM    3  O   UNL     1       9.931   2.776  -2.362  1.00  0.00    -0.270 OA
HETATM    4  H   UNL     1       8.774   3.952   0.412  1.00  0.00     0.192 HD
ENDROOT
BRANCH   1   5
HETATM    5  C   UNL     1       8.343   1.758  -0.855  1.00  0.00     0.227 C 
BRANCH   5   6
HETATM    6  N   UNL     1       8.901   0.456  -1.186  1.00  0.00    -0.350 N 
HETATM    7  C   UNL     1       9.196  -0.577  -0.342  1.00  0.00     0.242 C 
HETATM    8  O   UNL     1       9.799  -1.558  -0.778  1.00  0.00    -0.271 OA
HETATM    9  H   UNL     1       9.325   0.371  -2.106  1.00  0.00     0.163 HD
BRANCH   7  10
HETATM   10  C   UNL     1       8.699  -0.514   1.099  1.00  0.00     0.278 C 
BRANCH  10  11
HETATM   11  O   UNL     1       9.409   0.507   1.796  1.00  0.00    -0.342 OA
BRANCH  11  12
HETATM   12  C   UNL     1       9.143   0.553   3.137  1.00  0.00     0.069 A 
HETATM   13  C   UNL     1      10.238   0.756   3.974  1.00  0.00     0.037 A 
HETATM   14  C   UNL     1      10.061   0.846   5.357  1.00  0.00     0.009 A 
HETATM   15  C   UNL     1       8.782   0.745   5.914  1.00  0.00    -0.062 A 
HETATM   16  C   UNL     1       8.579   0.878   7.394  1.00  0.00     0.048 C 
HETATM   17  C   UNL     1       7.682   0.581   5.063  1.00  0.00     0.009 A 
HETATM   18  C   UNL     1       7.860   0.486   3.680  1.00  0.00     0.037 A 
ENDBRANCH  11  12
ENDBRANCH  10  11
ENDBRANCH   7  10
ENDBRANCH   5   6
ENDBRANCH   1   5
BRANCH   2  19
HETATM   19  N   UNL     1      10.001   5.086  -0.800  1.00  0.00    -0.166 NA
HETATM   20  C   UNL     1      10.002   6.046   0.068  1.00  0.00     0.157 A 
HETATM   21  C   UNL     1       9.285   6.106   1.420  1.00  0.00     0.277 A 
HETATM   22  C   UNL     1      10.713   7.311  -0.064  1.00  0.00     0.028 A 
HETATM   23  O   UNL     1       8.568   5.231   1.858  1.00  0.00    -0.266 OA
HETATM   24  N   UNL     1       9.627   7.323   1.967  1.00  0.00    -0.321 N 
HETATM   25  C   UNL     1      10.457   8.033   1.102  1.00  0.00     0.048 A 
HETATM   26  H   UNL     1       9.297   7.639   2.867  1.00  0.00     0.169 HD
HETATM   27  C   UNL     1      10.988   9.290   1.296  1.00  0.00     0.032 A 
HETATM   28  C   UNL     1      11.791   9.811   0.273  1.00  0.00     0.021 A 
HETATM   29  C   UNL     1      12.039   9.071  -0.902  1.00  0.00     0.012 A 
HETATM   30 BR   UNL     1      13.124   9.825  -2.257  1.00  0.00    -0.051 Br
HETATM   31  C   UNL     1      11.499   7.798  -1.087  1.00  0.00     0.035 A 
ENDBRANCH   2  19
TORSDOF 6
