REMARK  9 active torsions:
REMARK  status: ('A' for Active; 'I' for Inactive)
REMARK    1  A    between atoms: C_3  and  C_4 
REMARK    2  A    between atoms: C_4  and  O_5 
REMARK    3  A    between atoms: C_8  and  C_9 
REMARK    4  A    between atoms: C_9  and  O_10 
REMARK    5  A    between atoms: O_10  and  C_11 
REMARK    6  A    between atoms: C_11  and  C_12 
REMARK    7  A    between atoms: C_15  and  C_16 
REMARK    8  A    between atoms: C_16  and  N_17 
REMARK       I    between atoms: N_17  and  C_18 
REMARK       I    between atoms: C_18  and  N_19 
REMARK    9  A    between atoms: N_19  and  C_20 
ROOT
HETATM    1  C   UNL     1       4.704  -4.883   0.056  1.00  0.00     0.293 C 
HETATM    2  O   UNL     1       3.918  -5.774   0.329  1.00  0.00    -0.259 OA
ENDROOT
BRANCH   1   3
HETATM    3  O   UNL     1       4.422  -3.558   0.007  1.00  0.00    -0.311 OA
BRANCH   3   4
HETATM    4  C   UNL     1       3.269  -3.151   0.763  1.00  0.00     0.239 C 
BRANCH   4   5
HETATM    5  C   UNL     1       1.923  -3.438   0.139  1.00  0.00     0.076 A 
HETATM    6  C   UNL     1       1.539  -2.953  -1.108  1.00  0.00     0.073 A 
HETATM    7  C   UNL     1       0.229  -3.202  -1.574  1.00  0.00    -0.031 A 
HETATM    8  C   UNL     1      -0.251  -2.627  -2.884  1.00  0.00     0.050 C 
HETATM    9  C   UNL     1      -0.631  -4.018  -0.786  1.00  0.00    -0.000 A 
HETATM   10  C   UNL     1      -0.145  -4.469   0.460  1.00  0.00     0.068 A 
HETATM   11  C   UNL     1      -1.941  -4.401  -1.168  1.00  0.00     0.014 A 
HETATM   12  N   UNL     1       1.076  -4.165   0.917  1.00  0.00    -0.249 NA
HETATM   13  C   UNL     1      -0.956  -5.255   1.266  1.00  0.00     0.032 A 
HETATM   14  C   UNL     1      -2.246  -5.621   0.881  1.00  0.00     0.002 A 
HETATM   15  C   UNL     1      -2.740  -5.194  -0.341  1.00  0.00     0.001 A 
BRANCH   6  16
HETATM   16  C   UNL     1       2.497  -2.140  -1.877  1.00  0.00     0.295 C 
HETATM   17  O   UNL     1       2.990  -1.102  -1.472  1.00  0.00    -0.259 OA
BRANCH  16  18
HETATM   18  O   UNL     1       2.728  -2.746  -3.067  1.00  0.00    -0.322 OA
HETATM   19  C   UNL     1       3.619  -2.023  -3.917  1.00  0.00     0.213 C 
ENDBRANCH  16  18
ENDBRANCH   6  16
ENDBRANCH   4   5
ENDBRANCH   3   4
ENDBRANCH   1   3
BRANCH   1  20
HETATM   20  C   UNL     1       6.163  -5.119  -0.134  1.00  0.00     0.039 A 
HETATM   21  C   UNL     1       6.630  -6.438  -0.063  1.00  0.00     0.018 A 
HETATM   22  C   UNL     1       8.003  -6.704  -0.048  1.00  0.00     0.010 A 
HETATM   23  C   UNL     1       8.929  -5.653  -0.089  1.00  0.00    -0.040 A 
HETATM   24  C   UNL     1       8.459  -4.339  -0.231  1.00  0.00     0.010 A 
HETATM   25  C   UNL     1       7.086  -4.072  -0.251  1.00  0.00     0.018 A 
BRANCH  23  26
HETATM   26  C   UNL     1      10.401  -5.929   0.068  1.00  0.00     0.162 C 
BRANCH  26  27
HETATM   27  N   UNL     1      11.031  -6.275  -1.182  1.00  0.00    -0.339 N 
HETATM   28  C   UNL     1      12.365  -6.601  -1.158  1.00  0.00     0.316 C 
HETATM   29  N   UNL     1      12.855  -6.776  -2.426  1.00  0.00    -0.339 N 
HETATM   30  O   UNL     1      13.019  -6.708  -0.131  1.00  0.00    -0.247 OA
HETATM   31  H   UNL     1      12.164  -7.069  -3.100  1.00  0.00     0.164 HD
HETATM   32  H   UNL     1      10.738  -5.754  -1.994  1.00  0.00     0.164 HD
BRANCH  29  33
HETATM   33  C   UNL     1      14.236  -7.161  -2.705  1.00  0.00     0.078 C 
HETATM   34  C   UNL     1      15.246  -6.131  -2.199  1.00  0.00     0.032 C 
HETATM   35  C   UNL     1      14.561  -8.562  -2.191  1.00  0.00     0.032 C 
ENDBRANCH  29  33
ENDBRANCH  26  27
ENDBRANCH  23  26
ENDBRANCH   1  20
TORSDOF 9
