REMARK  8 active torsions:
REMARK  status: ('A' for Active; 'I' for Inactive)
REMARK    1  A    between atoms: O_2  and  C_3 
REMARK    2  A    between atoms: C_5  and  N_6 
REMARK       I    between atoms: N_6  and  C_7 
REMARK    3  A    between atoms: C_7  and  C_8 
REMARK    4  A    between atoms: C_8  and  N_9 
REMARK    5  A    between atoms: C_8  and  C_25 
REMARK    6  A    between atoms: N_9  and  C_12 
REMARK    7  A    between atoms: C_12  and  C_13 
REMARK    8  A    between atoms: C_16  and  N_17 
ROOT
HETATM    1  C   UNL     1       5.623   0.629  -2.866  1.00  0.00     0.310 C 
ENDROOT
BRANCH   1   2
HETATM    2  C   UNL     1       6.737   1.283  -2.024  1.00  0.00     0.257 C 
HETATM    3  N   UNL     1       7.779   0.623  -1.460  1.00  0.00    -0.325 N 
HETATM    4  H   UNL     1       8.429   1.277  -1.028  1.00  0.00     0.169 HD
HETATM    5  O   UNL     1       6.714   2.522  -1.922  1.00  0.00    -0.270 OA
BRANCH   3   6
HETATM    6  C   UNL     1       8.147  -0.730  -1.344  1.00  0.00     0.037 A 
HETATM    7  C   UNL     1       7.357  -1.824  -1.686  1.00  0.00     0.066 A 
HETATM    8  C   UNL     1       7.818  -3.139  -1.520  1.00  0.00     0.070 A 
HETATM    9  C   UNL     1       9.092  -3.367  -1.010  1.00  0.00     0.037 A 
HETATM   10  C   UNL     1       9.891  -2.284  -0.651  1.00  0.00     0.005 A 
HETATM   11  C   UNL     1       9.420  -0.979  -0.811  1.00  0.00     0.029 A 
BRANCH   8  12
HETATM   12  O   UNL     1       6.921  -4.100  -1.901  1.00  0.00    -0.356 OA
HETATM   13  C   UNL     1       7.253  -5.448  -1.585  1.00  0.00     0.210 C 
ENDBRANCH   8  12
ENDBRANCH   3   6
ENDBRANCH   1   2
BRANCH   1  14
HETATM   14  N   UNL     1       5.053   1.678  -3.805  1.00  0.00    -0.054 N 
HETATM   15  H   UNL     1       4.087   1.438  -4.056  1.00  0.00     0.278 HD
HETATM   16  H   UNL     1       4.987   2.544  -3.246  1.00  0.00     0.278 HD
BRANCH  14  17
HETATM   17  C   UNL     1       5.833   1.995  -5.025  1.00  0.00     0.272 C 
BRANCH  17  18
HETATM   18  C   UNL     1       5.042   2.963  -5.858  1.00  0.00    -0.033 A 
HETATM   19  C   UNL     1       5.103   4.334  -5.595  1.00  0.00     0.011 A 
HETATM   20  C   UNL     1       4.231   5.219  -6.241  1.00  0.00     0.030 A 
HETATM   21  C   UNL     1       3.271   4.767  -7.154  1.00  0.00     0.037 A 
HETATM   22  C   UNL     1       3.256   3.396  -7.449  1.00  0.00     0.030 A 
HETATM   23  C   UNL     1       4.124   2.503  -6.808  1.00  0.00     0.011 A 
BRANCH  21  24
HETATM   24  N   UNL     1       2.324   5.648  -7.744  1.00  0.00    -0.318 N 
HETATM   25  C   UNL     1       2.067   6.972  -7.345  1.00  0.00     0.224 C 
HETATM   26  O   UNL     1       2.622   7.637  -6.484  1.00  0.00    -0.273 OA
HETATM   27  C   UNL     1       0.866   7.465  -8.117  1.00  0.00     0.105 C 
HETATM   28  C   UNL     1       0.772   6.494  -9.277  1.00  0.00     0.029 C 
HETATM   29  C   UNL     1       1.340   5.211  -8.709  1.00  0.00     0.133 C 
ENDBRANCH  21  24
ENDBRANCH  17  18
ENDBRANCH  14  17
ENDBRANCH   1  14
BRANCH   1  30
HETATM   30  C   UNL     1       4.454   0.104  -2.050  1.00  0.00    -0.019 A 
HETATM   31  C   UNL     1       3.730  -1.008  -2.521  1.00  0.00     0.010 A 
HETATM   32  C   UNL     1       2.597  -1.459  -1.844  1.00  0.00     0.001 A 
HETATM   33  C   UNL     1       2.160  -0.798  -0.700  1.00  0.00     0.000 A 
HETATM   34  C   UNL     1       2.855   0.313  -0.230  1.00  0.00     0.001 A 
HETATM   35  C   UNL     1       3.991   0.768  -0.901  1.00  0.00     0.010 A 
ENDBRANCH   1  30
TORSDOF 8
