REMARK  5 active torsions:
REMARK  status: ('A' for Active; 'I' for Inactive)
REMARK    1  A    between atoms: C_9  and  C_10 
REMARK    2  A    between atoms: C_11  and  O_12 
REMARK    3  A    between atoms: O_12  and  C_13 
REMARK    4  A    between atoms: C_20  and  C_21 
REMARK       I    between atoms: C_21  and  N_22 
REMARK    5  A    between atoms: N_22  and  C_23 
ROOT
HETATM    1  C   UNL     1       0.772  -0.017  -1.142  1.00  0.00     0.070 C 
HETATM    2  C   UNL     1       2.160  -0.086  -0.557  1.00  0.00     0.037 C 
HETATM    3  N   UNL     1       2.733   1.141  -0.231  1.00  0.00    -0.192 N 
HETATM    4  C   UNL     1       4.053   1.288   0.003  1.00  0.00     0.725 A 
HETATM    5  N   UNL     1       4.842   0.177   0.128  1.00  0.00    -0.084 N 
HETATM    6  N   UNL     1       6.148   0.513   0.227  1.00  0.00    -0.149 NA
HETATM    7  C   UNL     1       6.057   1.848   0.228  1.00  0.00     0.275 A 
HETATM    8  N   UNL     1       4.793   2.363   0.091  1.00  0.00    -0.054 NA
HETATM    9  C   UNL     1       4.335  -1.199   0.078  1.00  0.00     0.205 C 
HETATM   10  C   UNL     1       2.884  -1.224  -0.406  1.00  0.00     0.063 C 
HETATM   11  H   UNL     1       2.202   1.979  -0.455  1.00  0.00     0.184 HD
ENDROOT
BRANCH   9  12
HETATM   12  C   UNL     1       4.533  -1.850   1.450  1.00  0.00     0.005 A 
HETATM   13  C   UNL     1       5.666  -2.651   1.703  1.00  0.00     0.083 A 
HETATM   14  C   UNL     1       5.846  -3.226   2.966  1.00  0.00     0.037 A 
HETATM   15  C   UNL     1       4.937  -2.977   3.994  1.00  0.00     0.003 A 
HETATM   16  C   UNL     1       3.839  -2.154   3.769  1.00  0.00     0.001 A 
HETATM   17  C   UNL     1       3.638  -1.592   2.509  1.00  0.00     0.012 A 
BRANCH  13  18
HETATM   18  O   UNL     1       6.525  -2.838   0.656  1.00  0.00    -0.290 OA
BRANCH  18  19
HETATM   19  C   UNL     1       7.898  -3.063   0.958  1.00  0.00     0.505 C 
HETATM   20  F   UNL     1       8.317  -2.245   1.953  1.00  0.00    -0.184 F 
HETATM   21  F   UNL     1       8.063  -4.344   1.370  1.00  0.00    -0.184 F 
ENDBRANCH  18  19
ENDBRANCH  13  18
ENDBRANCH   9  12
BRANCH  10  22
HETATM   22  C   UNL     1       2.408  -2.572  -0.820  1.00  0.00     0.256 C 
HETATM   23  N   UNL     1       1.208  -2.932  -0.245  1.00  0.00    -0.323 N 
HETATM   24  H   UNL     1       0.801  -2.285   0.417  1.00  0.00     0.169 HD
HETATM   25  O   UNL     1       3.098  -3.230  -1.587  1.00  0.00    -0.267 OA
BRANCH  23  26
HETATM   26  C   UNL     1       0.444  -4.087  -0.520  1.00  0.00     0.035 A 
HETATM   27  C   UNL     1       0.856  -5.110  -1.376  1.00  0.00     0.029 A 
HETATM   28  C   UNL     1       0.025  -6.209  -1.621  1.00  0.00     0.002 A 
HETATM   29  C   UNL     1      -1.227  -6.291  -1.016  1.00  0.00     0.000 A 
HETATM   30  C   UNL     1      -1.646  -5.278  -0.158  1.00  0.00     0.002 A 
HETATM   31  C   UNL     1      -0.813  -4.184   0.092  1.00  0.00     0.029 A 
ENDBRANCH  23  26
ENDBRANCH  10  22
TORSDOF 5
