REMARK  6 active torsions:
REMARK  status: ('A' for Active; 'I' for Inactive)
REMARK       I    between atoms: C_2  and  N_3 
REMARK    1  A    between atoms: N_3  and  C_4 
REMARK    2  A    between atoms: C_4  and  C_5 
REMARK    3  A    between atoms: C_4  and  C_11 
REMARK    4  A    between atoms: C_11  and  C_12 
REMARK       I    between atoms: C_12  and  N_13 
REMARK    5  A    between atoms: N_13  and  C_14 
REMARK    6  A    between atoms: C_16  and  C_17 
ROOT
HETATM    1  C   UNL     1       1.919  -5.205  -1.495  1.00  0.00     0.224 C 
HETATM    2  N   UNL     1       0.717  -4.907  -0.903  1.00  0.00    -0.327 N 
HETATM    3  O   UNL     1       2.101  -6.064  -2.359  1.00  0.00    -0.273 OA
HETATM    4  H   UNL     1       0.690  -4.085  -0.295  1.00  0.00     0.169 HD
ENDROOT
BRANCH   1   5
HETATM    5  C   UNL     1       3.113  -4.434  -0.955  1.00  0.00     0.133 C 
BRANCH   5   6
HETATM    6  C   UNL     1       3.090  -2.893  -0.977  1.00  0.00     0.126 C 
BRANCH   6   7
HETATM    7  N   UNL     1       3.040  -2.309   0.370  1.00  0.00    -0.352 N 
HETATM    8  C   UNL     1       2.031  -2.500   1.278  1.00  0.00     0.214 C 
HETATM    9  C   UNL     1       2.261  -1.868   2.623  1.00  0.00     0.117 C 
HETATM   10  O   UNL     1       1.012  -3.135   1.029  1.00  0.00    -0.274 OA
HETATM   11  H   UNL     1       3.811  -1.706   0.628  1.00  0.00     0.163 HD
ENDBRANCH   6   7
BRANCH   6  12
HETATM   12  C   UNL     1       2.216  -2.207  -2.016  1.00  0.00    -0.035 A 
HETATM   13  C   UNL     1       1.345  -1.151  -1.704  1.00  0.00     0.009 A 
HETATM   14  C   UNL     1       0.583  -0.524  -2.695  1.00  0.00     0.001 A 
HETATM   15  C   UNL     1       0.683  -0.937  -4.019  1.00  0.00     0.000 A 
HETATM   16  C   UNL     1       1.547  -1.974  -4.355  1.00  0.00     0.001 A 
HETATM   17  C   UNL     1       2.311  -2.598  -3.365  1.00  0.00     0.009 A 
ENDBRANCH   6  12
ENDBRANCH   5   6
ENDBRANCH   1   5
BRANCH   2  18
HETATM   18  C   UNL     1      -0.508  -5.587  -1.048  1.00  0.00     0.035 A 
HETATM   19  C   UNL     1      -0.623  -6.869  -1.594  1.00  0.00     0.042 A 
HETATM   20  C   UNL     1      -1.864  -7.528  -1.635  1.00  0.00    -0.021 A 
HETATM   21  C   UNL     1      -2.999  -6.862  -1.154  1.00  0.00     0.012 A 
HETATM   22  C   UNL     1      -2.894  -5.578  -0.619  1.00  0.00     0.003 A 
HETATM   23  C   UNL     1      -1.651  -4.952  -0.552  1.00  0.00     0.029 A 
BRANCH  20  24
HETATM   24  C   UNL     1      -1.974  -8.897  -2.117  1.00  0.00     0.010 A 
HETATM   25  C   UNL     1      -2.920  -9.908  -1.820  1.00  0.00     0.152 A 
HETATM   26  N   UNL     1      -2.673 -11.056  -2.456  1.00  0.00    -0.187 NA
HETATM   27  N   UNL     1      -1.562 -10.788  -3.160  1.00  0.00    -0.289 N 
HETATM   28  H   UNL     1      -1.164 -11.525  -3.733  1.00  0.00     0.188 HD
HETATM   29  C   UNL     1      -1.108  -9.512  -2.996  1.00  0.00     0.123 A 
ENDBRANCH  20  24
ENDBRANCH   2  18
TORSDOF 6
