REMARK  9 active torsions:
REMARK  status: ('A' for Active; 'I' for Inactive)
REMARK    1  A    between atoms: C_2  and  C_3 
REMARK    2  A    between atoms: C_3  and  O_4 
REMARK    3  A    between atoms: O_4  and  C_5 
REMARK    4  A    between atoms: C_8  and  C_9 
REMARK    5  A    between atoms: N_11  and  C_12 
REMARK    6  A    between atoms: C_19  and  C_20 
REMARK    7  A    between atoms: C_20  and  S_21 
REMARK    8  A    between atoms: S_21  and  C_22 
REMARK    9  A    between atoms: C_22  and  N_23 
ROOT
HETATM    1  C   UNL     1       3.775   7.755  -1.287  1.00  0.00     0.096 C 
HETATM    2  N   UNL     1       3.052   8.764  -0.787  1.00  0.00    -0.167 NA
HETATM    3  N   UNL     1       3.683   9.903  -1.149  1.00  0.00    -0.244 N 
HETATM    4  C   UNL     1       4.695   9.629  -2.041  1.00  0.00     0.129 C 
HETATM    5  C   UNL     1       4.770   8.256  -2.183  1.00  0.00     0.001 C 
ENDROOT
BRANCH   1   6
HETATM    6  C   UNL     1       3.388   6.369  -1.009  1.00  0.00    -0.005 A 
HETATM    7  C   UNL     1       2.032   6.035  -0.874  1.00  0.00     0.016 A 
HETATM    8  C   UNL     1       1.632   4.707  -0.684  1.00  0.00     0.037 A 
HETATM    9  C   UNL     1       2.584   3.693  -0.627  1.00  0.00     0.068 A 
HETATM   10  C   UNL     1       3.938   4.025  -0.709  1.00  0.00     0.037 A 
HETATM   11  C   UNL     1       4.341   5.353  -0.889  1.00  0.00     0.016 A 
BRANCH   9  12
HETATM   12  O   UNL     1       2.333   2.358  -0.490  1.00  0.00    -0.351 OA
BRANCH  12  13
HETATM   13  C   UNL     1       0.965   1.942  -0.502  1.00  0.00     0.179 C 
BRANCH  13  14
HETATM   14  C   UNL     1       0.914   0.408  -0.557  1.00  0.00     0.002 C 
HETATM   15  C   UNL     1       1.533  -0.117  -1.855  1.00  0.00     0.011 C 
HETATM   16  C   UNL     1      -0.527  -0.081  -0.422  1.00  0.00     0.011 C 
ENDBRANCH  13  14
ENDBRANCH  12  13
ENDBRANCH   9  12
ENDBRANCH   1   6
BRANCH   5  17
HETATM   17  C   UNL     1       5.685   7.523  -3.103  1.00  0.00     0.125 C 
BRANCH  17  18
HETATM   18  S   UNL     1       4.803   6.500  -4.322  1.00  0.00    -0.090 SA
BRANCH  18  19
HETATM   19  C   UNL     1       3.789   7.651  -5.086  1.00  0.00     0.131 C 
HETATM   20  N   UNL     1       4.153   8.114  -6.254  1.00  0.00    -0.380 N 
HETATM   21  H   UNL     1       5.013   7.765  -6.663  1.00  0.00     0.158 HD
HETATM   22  H   UNL     1       3.596   8.769  -6.783  1.00  0.00     0.158 HD
BRANCH  19  23
HETATM   23  N   UNL     1       2.663   8.003  -4.522  1.00  0.00    -0.380 N 
HETATM   24  H   UNL     1       2.416   7.593  -3.626  1.00  0.00     0.158 HD
HETATM   25  H   UNL     1       2.018   8.666  -4.928  1.00  0.00     0.158 HD
ENDBRANCH  19  23
ENDBRANCH  18  19
ENDBRANCH  17  18
ENDBRANCH   5  17
BRANCH   3  26
HETATM   26  C   UNL     1       3.225  11.171  -0.696  1.00  0.00     0.058 A 
HETATM   27  C   UNL     1       2.132  11.233   0.183  1.00  0.00     0.031 A 
HETATM   28  C   UNL     1       1.656  12.468   0.629  1.00  0.00     0.002 A 
HETATM   29  C   UNL     1       2.266  13.645   0.205  1.00  0.00     0.000 A 
HETATM   30  C   UNL     1       3.357  13.592  -0.662  1.00  0.00     0.002 A 
HETATM   31  C   UNL     1       3.840  12.360  -1.113  1.00  0.00     0.031 A 
ENDBRANCH   3  26
TORSDOF 9
