REMARK  7 active torsions:
REMARK  status: ('A' for Active; 'I' for Inactive)
REMARK    1  A    between atoms: C_2  and  C_3 
REMARK    2  A    between atoms: C_3  and  C_4 
REMARK    3  A    between atoms: C_8  and  C_9 
REMARK       I    between atoms: C_9  and  N_10 
REMARK    4  A    between atoms: N_10  and  C_11 
REMARK    5  A    between atoms: C_11  and  C_12 
REMARK    6  A    between atoms: C_12  and  N_13 
REMARK    7  A    between atoms: C_16  and  C_17 
ROOT
HETATM    1  C   UNL     1       9.338  -0.967   0.673  1.00  0.00     0.150 C 
ENDROOT
BRANCH   1   2
HETATM    2  N   UNL     1       8.606  -0.533  -0.509  1.00  0.00    -0.354 N 
HETATM    3  C   UNL     1       9.140  -0.577  -1.785  1.00  0.00     0.272 C 
HETATM    4  O   UNL     1      10.351  -0.618  -1.976  1.00  0.00    -0.266 OA
HETATM    5  H   UNL     1       7.586  -0.619  -0.518  1.00  0.00     0.162 HD
BRANCH   3   6
HETATM    6  C   UNL     1       8.136  -0.473  -2.848  1.00  0.00     0.146 A 
HETATM    7  N   UNL     1       6.832  -0.294  -2.555  1.00  0.00    -0.169 NA
HETATM    8  N   UNL     1       6.235  -0.229  -3.762  1.00  0.00    -0.282 N 
HETATM    9  C   UNL     1       7.104  -0.352  -4.810  1.00  0.00     0.030 A 
HETATM   10  H   UNL     1       5.228  -0.094  -3.800  1.00  0.00     0.189 HD
HETATM   11  C   UNL     1       8.348  -0.518  -4.245  1.00  0.00     0.065 A 
BRANCH   9  12
HETATM   12  C   UNL     1       6.658  -0.303  -6.231  1.00  0.00     0.058 C 
BRANCH  12  13
HETATM   13  C   UNL     1       6.692   1.125  -6.778  1.00  0.00     0.002 C 
HETATM   14  C   UNL     1       6.242   1.176  -8.229  1.00  0.00     0.005 C 
ENDBRANCH  12  13
ENDBRANCH   9  12
ENDBRANCH   3   6
ENDBRANCH   1   2
BRANCH   1  15
HETATM   15  C   UNL     1      10.712  -0.297   0.879  1.00  0.00     0.254 C 
BRANCH  15  16
HETATM   16  N   UNL     1      10.654   1.165   0.519  1.00  0.00    -0.069 N 
HETATM   17  H   UNL     1      10.180   1.180  -0.397  1.00  0.00     0.280 HD
HETATM   18  C   UNL     1       9.862   2.056   1.441  1.00  0.00     0.244 C 
HETATM   19  C   UNL     1      10.372   3.446   1.067  1.00  0.00     0.046 C 
HETATM   20  C   UNL     1      11.873   3.211   0.911  1.00  0.00     0.039 C 
HETATM   21  C   UNL     1      11.995   1.823   0.294  1.00  0.00     0.235 C 
BRANCH  19  22
HETATM   22  C   UNL     1      10.029   4.558   2.035  1.00  0.00    -0.046 A 
HETATM   23  C   UNL     1       9.518   5.797   1.583  1.00  0.00    -0.055 A 
HETATM   24  C   UNL     1       9.277   6.094   0.125  1.00  0.00     0.049 C 
HETATM   25  C   UNL     1       9.209   6.801   2.517  1.00  0.00     0.007 A 
HETATM   26  C   UNL     1       9.417   6.603   3.879  1.00  0.00     0.001 A 
HETATM   27  C   UNL     1       9.941   5.399   4.329  1.00  0.00     0.001 A 
HETATM   28  C   UNL     1      10.248   4.389   3.417  1.00  0.00     0.008 A 
ENDBRANCH  19  22
ENDBRANCH  15  16
ENDBRANCH   1  15
TORSDOF 7
