REMARK  7 active torsions:
REMARK  status: ('A' for Active; 'I' for Inactive)
REMARK    1  A    between atoms: C_3  and  C_4 
REMARK    2  A    between atoms: C_4  and  C_5 
REMARK    3  A    between atoms: C_5  and  C_6 
REMARK       I    between atoms: C_6  and  N_7 
REMARK    4  A    between atoms: N_7  and  C_8 
REMARK    5  A    between atoms: C_8  and  C_9 
REMARK    6  A    between atoms: C_9  and  C_10 
REMARK    7  A    between atoms: C_29  and  O_30 
ROOT
HETATM    1  C   UNL     1       3.125   3.821  -0.403  1.00  0.00     0.107 C 
ENDROOT
BRANCH   1   2
HETATM    2  C   UNL     1       2.484   2.529   0.120  1.00  0.00     0.055 C 
BRANCH   2   3
HETATM    3  C   UNL     1       3.266   1.220   0.107  1.00  0.00     0.025 A 
HETATM    4  C   UNL     1       2.638   0.018   0.112  1.00  0.00    -0.037 A 
HETATM    5  C   UNL     1       1.135  -0.136   0.201  1.00  0.00     0.050 C 
HETATM    6  C   UNL     1       3.426  -1.232   0.065  1.00  0.00     0.005 A 
HETATM    7  C   UNL     1       4.820  -1.163   0.081  1.00  0.00     0.099 A 
HETATM    8  C   UNL     1       2.847  -2.507   0.004  1.00  0.00     0.017 A 
HETATM    9  O   UNL     1       5.450   0.094   0.117  1.00  0.00    -0.274 OA
HETATM   10  C   UNL     1       5.652  -2.302   0.061  1.00  0.00     0.006 A 
HETATM   11  C   UNL     1       4.754   1.291   0.123  1.00  0.00     0.295 A 
HETATM   12  O   UNL     1       5.369   2.351   0.155  1.00  0.00    -0.259 OA
HETATM   13  C   UNL     1       7.148  -2.178   0.091  1.00  0.00     0.054 C 
HETATM   14  C   UNL     1       5.027  -3.551   0.010  1.00  0.00     0.074 A 
HETATM   15  C   UNL     1       3.641  -3.656  -0.021  1.00  0.00     0.038 A 
BRANCH  14  16
HETATM   16  O   UNL     1       5.713  -4.732  -0.016  1.00  0.00    -0.360 OA
HETATM   17  H   UNL     1       6.666  -4.559   0.009  1.00  0.00     0.217 HD
ENDBRANCH  14  16
ENDBRANCH   2   3
ENDBRANCH   1   2
BRANCH   1  18
HETATM   18  C   UNL     1       2.094   4.929  -0.510  1.00  0.00     0.217 C 
HETATM   19  N   UNL     1       2.617   6.121  -0.970  1.00  0.00    -0.361 N 
HETATM   20  H   UNL     1       3.623   6.233  -0.936  1.00  0.00     0.162 HD
HETATM   21  O   UNL     1       0.912   4.783  -0.217  1.00  0.00    -0.274 OA
BRANCH  19  22
HETATM   22  C   UNL     1       1.786   7.313  -0.996  1.00  0.00     0.127 C 
BRANCH  22  23
HETATM   23  C   UNL     1       2.371   8.420  -1.872  1.00  0.00     0.060 C 
BRANCH  23  24
HETATM   24  C   UNL     1       1.471   9.613  -1.938  1.00  0.00    -0.029 A 
HETATM   25  C   UNL     1       0.374   9.808  -2.838  1.00  0.00    -0.000 A 
HETATM   26  C   UNL     1      -0.206  11.040  -2.532  1.00  0.00     0.043 A 
HETATM   27  C   UNL     1      -0.184   9.041  -3.882  1.00  0.00     0.038 A 
HETATM   28  C   UNL     1      -1.318  11.548  -3.214  1.00  0.00     0.032 A 
HETATM   29  N   UNL     1       0.515  11.577  -1.491  1.00  0.00    -0.365 N 
HETATM   30  C   UNL     1      -1.854  10.771  -4.246  1.00  0.00     0.026 A 
HETATM   31  C   UNL     1      -1.293   9.539  -4.573  1.00  0.00     0.035 A 
HETATM   32 CL   UNL     1      -1.977   8.609  -5.852  1.00  0.00    -0.084 Cl
HETATM   33  H   UNL     1       0.316  12.468  -1.057  1.00  0.00     0.165 HD
HETATM   34  C   UNL     1       1.526  10.730  -1.127  1.00  0.00     0.096 A 
ENDBRANCH  23  24
ENDBRANCH  22  23
ENDBRANCH  19  22
ENDBRANCH   1  18
TORSDOF 7
