REMARK  7 active torsions:
REMARK  status: ('A' for Active; 'I' for Inactive)
REMARK    1  A    between atoms: C_3  and  C_4 
REMARK    2  A    between atoms: C_11  and  N_12 
REMARK       I    between atoms: N_12  and  C_13 
REMARK    3  A    between atoms: C_13  and  C_14 
REMARK    4  A    between atoms: C_21  and  C_22 
REMARK       I    between atoms: C_22  and  N_23 
REMARK    5  A    between atoms: N_23  and  C_24 
REMARK    6  A    between atoms: C_24  and  C_25 
REMARK    7  A    between atoms: C_25  and  C_26 
ROOT
HETATM    1  C   UNL     1       0.971  -0.138   0.454  1.00  0.00     0.158 C 
HETATM    2  N   UNL     1       2.379  -0.141   0.139  1.00  0.00    -0.335 N 
HETATM    3  C   UNL     1       3.159   0.981  -0.039  1.00  0.00     0.111 A 
HETATM    4  N   UNL     1       4.418   0.654  -0.218  1.00  0.00    -0.233 NA
HETATM    5  C   UNL     1       4.454  -0.713  -0.208  1.00  0.00     0.089 A 
HETATM    6  C   UNL     1       3.185  -1.261   0.006  1.00  0.00     0.091 A 
HETATM    7  C   UNL     1       2.977  -2.659   0.068  1.00  0.00     0.065 A 
HETATM    8  C   UNL     1       4.113  -3.463  -0.126  1.00  0.00     0.049 A 
HETATM    9  C   UNL     1       5.386  -2.920  -0.348  1.00  0.00     0.036 A 
HETATM   10  C   UNL     1       5.573  -1.538  -0.386  1.00  0.00     0.051 A 
ENDROOT
BRANCH   9  11
HETATM   11  C   UNL     1       6.511  -3.859  -0.593  1.00  0.00     0.251 C 
HETATM   12  N   UNL     1       7.754  -3.475  -0.124  1.00  0.00    -0.357 N 
HETATM   13  H   UNL     1       7.791  -2.726   0.555  1.00  0.00     0.162 HD
HETATM   14  O   UNL     1       6.300  -4.926  -1.157  1.00  0.00    -0.268 OA
BRANCH  12  15
HETATM   15  C   UNL     1       8.843  -4.438  -0.143  1.00  0.00     0.127 C 
BRANCH  15  16
HETATM   16  C   UNL     1      10.219  -3.784  -0.021  1.00  0.00     0.060 C 
BRANCH  16  17
HETATM   17  C   UNL     1      11.320  -4.797  -0.087  1.00  0.00    -0.029 A 
HETATM   18  C   UNL     1      11.881  -5.370  -1.274  1.00  0.00    -0.002 A 
HETATM   19  C   UNL     1      12.844  -6.299  -0.877  1.00  0.00     0.042 A 
HETATM   20  C   UNL     1      11.646  -5.195  -2.654  1.00  0.00     0.014 A 
HETATM   21  C   UNL     1      13.581  -7.063  -1.790  1.00  0.00     0.030 A 
HETATM   22  N   UNL     1      12.876  -6.283   0.497  1.00  0.00    -0.365 N 
HETATM   23  C   UNL     1      13.328  -6.870  -3.151  1.00  0.00     0.002 A 
HETATM   24  C   UNL     1      12.376  -5.949  -3.580  1.00  0.00     0.001 A 
HETATM   25  H   UNL     1      13.481  -6.865   1.060  1.00  0.00     0.165 HD
HETATM   26  C   UNL     1      11.966  -5.383   0.984  1.00  0.00     0.096 A 
ENDBRANCH  16  17
ENDBRANCH  15  16
ENDBRANCH  12  15
ENDBRANCH   9  11
BRANCH   7  27
HETATM   27  N   UNL     1       1.702  -3.206   0.302  1.00  0.00    -0.323 N 
HETATM   28  C   UNL     1       1.370  -4.526   0.578  1.00  0.00     0.251 C 
HETATM   29  O   UNL     1       2.143  -5.472   0.671  1.00  0.00    -0.270 OA
HETATM   30  H   UNL     1       0.897  -2.595   0.264  1.00  0.00     0.169 HD
BRANCH  28  31
HETATM   31  C   UNL     1      -0.129  -4.663   0.911  1.00  0.00     0.213 C 
HETATM   32  O   UNL     1      -0.914  -3.676   0.211  1.00  0.00    -0.376 OA
HETATM   33  C   UNL     1      -1.898  -4.369  -0.573  1.00  0.00     0.168 C 
HETATM   34  C   UNL     1      -1.386  -5.780  -0.752  1.00  0.00     0.029 C 
HETATM   35  C   UNL     1      -0.698  -6.031   0.567  1.00  0.00     0.044 C 
ENDBRANCH  28  31
ENDBRANCH   7  27
BRANCH   3  36
HETATM   36  C   UNL     1       2.685   2.434  -0.029  1.00  0.00     0.056 C 
HETATM   37  C   UNL     1       3.295   3.265   1.143  1.00  0.00     0.012 C 
HETATM   38  C   UNL     1       3.382   4.450   0.164  1.00  0.00     0.002 C 
HETATM   39  C   UNL     1       3.479   3.400  -0.958  1.00  0.00     0.012 C 
ENDBRANCH   3  36
TORSDOF 7
