REMARK  9 active torsions:
REMARK  status: ('A' for Active; 'I' for Inactive)
REMARK    1  A    between atoms: C_2  and  O_3 
REMARK    2  A    between atoms: O_3  and  C_4 
REMARK    3  A    between atoms: C_7  and  N_8 
REMARK       I    between atoms: N_8  and  C_9 
REMARK    4  A    between atoms: C_9  and  C_10 
REMARK    5  A    between atoms: C_11  and  N_12 
REMARK       I    between atoms: N_12  and  C_13 
REMARK    6  A    between atoms: C_13  and  C_14 
REMARK    7  A    between atoms: C_14  and  N_15 
REMARK    8  A    between atoms: N_15  and  C_18 
REMARK    9  A    between atoms: C_18  and  C_19 
ROOT
HETATM    1  C   UNL     1       8.782  -0.691   1.055  1.00  0.00     0.073 A 
HETATM    2  C   UNL     1       9.463  -1.845   0.676  1.00  0.00     0.093 A 
HETATM    3  S   UNL     1       8.436  -3.182   0.497  1.00  0.00    -0.075 SA
HETATM    4  C   UNL     1       7.092  -2.314   1.052  1.00  0.00    -0.008 A 
HETATM    5  C   UNL     1       7.395  -0.999   1.356  1.00  0.00    -0.026 A 
HETATM    6  C   UNL     1       6.349  -0.091   1.947  1.00  0.00     0.041 C 
HETATM    7  C   UNL     1       5.173  -0.878   2.546  1.00  0.00     0.009 C 
HETATM    8  C   UNL     1       4.662  -1.944   1.557  1.00  0.00    -0.014 C 
HETATM    9  C   UNL     1       3.411  -2.632   2.099  1.00  0.00     0.010 C 
HETATM   10  C   UNL     1       5.762  -2.982   1.250  1.00  0.00     0.051 C 
ENDROOT
BRANCH   2  11
HETATM   11  N   UNL     1      10.832  -1.944   0.454  1.00  0.00    -0.319 N 
HETATM   12  C   UNL     1      11.533  -3.079   0.114  1.00  0.00     0.248 C 
HETATM   13  O   UNL     1      11.105  -4.207  -0.126  1.00  0.00    -0.271 OA
HETATM   14  H   UNL     1      11.332  -1.075   0.660  1.00  0.00     0.169 HD
BRANCH  12  15
HETATM   15  C   UNL     1      13.047  -2.871   0.033  1.00  0.00     0.335 C 
BRANCH  15  16
HETATM   16  N   UNL     1      13.703  -4.077  -0.593  1.00  0.00    -0.063 N 
HETATM   17  H   UNL     1      14.676  -4.192  -0.289  1.00  0.00     0.278 HD
HETATM   18  H   UNL     1      13.184  -4.900  -0.241  1.00  0.00     0.278 HD
BRANCH  16  19
HETATM   19  C   UNL     1      13.619  -4.141  -2.078  1.00  0.00     0.271 C 
BRANCH  19  20
HETATM   20  C   UNL     1      14.163  -5.444  -2.586  1.00  0.00    -0.033 A 
HETATM   21  C   UNL     1      13.326  -6.567  -2.692  1.00  0.00     0.009 A 
HETATM   22  C   UNL     1      13.837  -7.788  -3.133  1.00  0.00     0.001 A 
HETATM   23  C   UNL     1      15.185  -7.903  -3.462  1.00  0.00     0.000 A 
HETATM   24  C   UNL     1      16.027  -6.799  -3.351  1.00  0.00     0.001 A 
HETATM   25  C   UNL     1      15.522  -5.574  -2.912  1.00  0.00     0.009 A 
ENDBRANCH  19  20
ENDBRANCH  16  19
ENDBRANCH  15  16
ENDBRANCH  12  15
ENDBRANCH   2  11
BRANCH   1  26
HETATM   26  C   UNL     1       9.481   0.603   1.173  1.00  0.00     0.259 C 
HETATM   27  N   UNL     1       8.668   1.694   0.964  1.00  0.00    -0.323 N 
HETATM   28  H   UNL     1       7.754   1.503   0.579  1.00  0.00     0.169 HD
HETATM   29  O   UNL     1      10.697   0.629   1.353  1.00  0.00    -0.267 OA
BRANCH  27  30
HETATM   30  C   UNL     1       8.954   3.055   1.178  1.00  0.00     0.035 A 
HETATM   31  C   UNL     1      10.130   3.529   1.753  1.00  0.00     0.032 A 
HETATM   32  C   UNL     1      10.294   4.901   1.986  1.00  0.00     0.039 A 
HETATM   33  C   UNL     1       9.289   5.813   1.654  1.00  0.00     0.068 A 
HETATM   34  C   UNL     1       8.121   5.343   1.061  1.00  0.00     0.039 A 
HETATM   35  C   UNL     1       7.955   3.973   0.828  1.00  0.00     0.032 A 
BRANCH  33  36
HETATM   36  O   UNL     1       9.566   7.116   1.961  1.00  0.00    -0.352 OA
BRANCH  36  37
HETATM   37  C   UNL     1       8.518   8.066   1.758  1.00  0.00     0.171 C 
HETATM   38  C   UNL     1       8.984   9.408   2.292  1.00  0.00     0.034 C 
ENDBRANCH  36  37
ENDBRANCH  33  36
ENDBRANCH  27  30
ENDBRANCH   1  26
TORSDOF 9
