REMARK  8 active torsions:
REMARK  status: ('A' for Active; 'I' for Inactive)
REMARK    1  A    between atoms: C_3  and  N_4 
REMARK       I    between atoms: N_4  and  C_5 
REMARK    2  A    between atoms: C_5  and  C_6 
REMARK    3  A    between atoms: C_6  and  C_7 
REMARK    4  A    between atoms: C_7  and  C_8 
REMARK    5  A    between atoms: C_8  and  O_9 
REMARK    6  A    between atoms: O_9  and  C_10 
REMARK    7  A    between atoms: C_18  and  C_19 
REMARK    8  A    between atoms: C_22  and  O_23 
ROOT
HETATM    1  N   UNL     1       2.636   2.420  -0.139  1.00  0.00    -0.327 N 
HETATM    2  C   UNL     1       3.445   3.529   0.063  1.00  0.00     0.222 C 
HETATM    3  O   UNL     1       4.668   3.535   0.125  1.00  0.00    -0.273 OA
HETATM    4  H   UNL     1       1.731   2.620  -0.544  1.00  0.00     0.169 HD
ENDROOT
BRANCH   1   5
HETATM    5  C   UNL     1       3.067   1.075  -0.236  1.00  0.00     0.041 A 
HETATM    6  C   UNL     1       4.115   0.503   0.496  1.00  0.00    -0.033 A 
HETATM    7  C   UNL     1       4.853   1.181   1.616  1.00  0.00     0.050 C 
HETATM    8  C   UNL     1       4.487  -0.820   0.205  1.00  0.00     0.046 A 
HETATM    9  C   UNL     1       3.796  -1.582  -0.737  1.00  0.00     0.072 A 
HETATM   10  C   UNL     1       2.673  -1.075  -1.402  1.00  0.00    -0.019 A 
HETATM   11  C   UNL     1       2.328   0.264  -1.126  1.00  0.00     0.040 A 
BRANCH   9  12
HETATM   12  O   UNL     1       4.287  -2.842  -0.934  1.00  0.00    -0.360 OA
HETATM   13  H   UNL     1       3.918  -3.210  -1.750  1.00  0.00     0.217 HD
ENDBRANCH   9  12
BRANCH  10  14
HETATM   14  C   UNL     1       1.859  -1.931  -2.367  1.00  0.00     0.013 C 
HETATM   15  C   UNL     1       1.097  -3.028  -1.611  1.00  0.00     0.015 C 
HETATM   16  C   UNL     1       0.868  -1.169  -3.260  1.00  0.00     0.015 C 
ENDBRANCH  10  14
ENDBRANCH   1   5
BRANCH   2  17
HETATM   17  C   UNL     1       2.631   4.813   0.119  1.00  0.00     0.105 C 
BRANCH  17  18
HETATM   18  C   UNL     1       3.442   6.035   0.546  1.00  0.00     0.036 C 
BRANCH  18  19
HETATM   19  C   UNL     1       4.398   6.542  -0.534  1.00  0.00     0.176 C 
BRANCH  19  20
HETATM   20  O   UNL     1       4.988   7.753  -0.049  1.00  0.00    -0.350 OA
BRANCH  20  21
HETATM   21  C   UNL     1       5.894   8.367  -0.863  1.00  0.00     0.086 A 
HETATM   22  C   UNL     1       6.289   7.968  -2.135  1.00  0.00     0.152 A 
HETATM   23  N   UNL     1       7.191   8.636  -2.898  1.00  0.00    -0.270 NA
HETATM   24  C   UNL     1       7.732   9.750  -2.361  1.00  0.00     0.116 A 
HETATM   25  C   UNL     1       7.411  10.229  -1.102  1.00  0.00     0.022 A 
HETATM   26  C   UNL     1       6.476   9.523  -0.348  1.00  0.00     0.039 A 
ENDBRANCH  20  21
ENDBRANCH  19  20
ENDBRANCH  18  19
ENDBRANCH  17  18
ENDBRANCH   2  17
TORSDOF 8
