REMARK  6 active torsions:
REMARK  status: ('A' for Active; 'I' for Inactive)
REMARK    1  A    between atoms: N_9  and  C_10 
REMARK    2  A    between atoms: C_10  and  C_11 
REMARK       I    between atoms: C_11  and  N_12 
REMARK    3  A    between atoms: N_12  and  C_13 
REMARK    4  A    between atoms: C_14  and  C_15 
REMARK       I    between atoms: C_15  and  N_16 
REMARK    5  A    between atoms: N_16  and  C_17 
REMARK    6  A    between atoms: C_17  and  C_18 
ROOT
HETATM    1  C   UNL     1      -4.088  -2.814   1.400  1.00  0.00     0.240 C 
HETATM    2  N   UNL     1      -5.315  -2.766   0.754  1.00  0.00    -0.325 N 
HETATM    3  O   UNL     1      -3.446  -3.821   1.668  1.00  0.00    -0.271 OA
HETATM    4  H   UNL     1      -5.781  -1.867   0.766  1.00  0.00     0.169 HD
ENDROOT
BRANCH   1   5
HETATM    5  C   UNL     1      -3.562  -1.417   1.746  1.00  0.00     0.240 C 
BRANCH   5   6
HETATM    6  N   UNL     1      -2.453  -1.039   0.903  1.00  0.00    -0.259 N 
HETATM    7  C   UNL     1      -2.520  -1.006  -0.455  1.00  0.00     0.326 C 
HETATM    8  N   UNL     1      -1.385  -0.412  -0.938  1.00  0.00    -0.320 N 
HETATM    9  O   UNL     1      -3.444  -1.393  -1.152  1.00  0.00    -0.247 OA
HETATM   10  C   UNL     1      -0.595   0.211   0.105  1.00  0.00     0.144 C 
HETATM   11  H   UNL     1      -1.227  -0.307  -1.930  1.00  0.00     0.165 HD
HETATM   12  C   UNL     1       0.846  -0.264   0.092  1.00  0.00    -0.014 A 
HETATM   13  C   UNL     1      -1.392  -0.286   1.338  1.00  0.00     0.261 C 
HETATM   14  C   UNL     1      -0.763   1.740  -0.015  1.00  0.00     0.047 C 
HETATM   15  C   UNL     1       1.919   0.651   0.153  1.00  0.00    -0.049 A 
HETATM   16  C   UNL     1       1.142  -1.639   0.045  1.00  0.00     0.011 A 
HETATM   17  C   UNL     1       3.241   0.181   0.113  1.00  0.00     0.007 A 
HETATM   18  C   UNL     1       1.689   2.141   0.216  1.00  0.00     0.039 C 
HETATM   19  C   UNL     1       3.510  -1.184   0.048  1.00  0.00     0.001 A 
HETATM   20  C   UNL     1       2.460  -2.094   0.019  1.00  0.00     0.001 A 
HETATM   21  C   UNL     1       0.310   2.495   0.758  1.00  0.00     0.008 C 
HETATM   22  O   UNL     1      -1.179   0.030   2.503  1.00  0.00    -0.270 OA
ENDBRANCH   5   6
ENDBRANCH   1   5
BRANCH   2  23
HETATM   23  C   UNL     1      -6.097  -3.827   0.242  1.00  0.00     0.050 A 
HETATM   24  C   UNL     1      -5.675  -5.103  -0.161  1.00  0.00     0.058 A 
HETATM   25  C   UNL     1      -6.635  -6.059  -0.559  1.00  0.00     0.019 A 
HETATM   26  C   UNL     1      -7.993  -5.750  -0.603  1.00  0.00     0.001 A 
HETATM   27  C   UNL     1      -8.411  -4.474  -0.261  1.00  0.00     0.002 A 
HETATM   28  C   UNL     1      -7.473  -3.524   0.150  1.00  0.00     0.030 A 
BRANCH  24  29
HETATM   29  C   UNL     1      -4.276  -5.559  -0.351  1.00  0.00     0.254 C 
HETATM   30  N   UNL     1      -3.453  -4.741  -1.099  1.00  0.00    -0.351 N 
HETATM   31  H   UNL     1      -3.728  -3.778  -1.262  1.00  0.00     0.163 HD
HETATM   32  O   UNL     1      -3.949  -6.675   0.043  1.00  0.00    -0.268 OA
BRANCH  30  33
HETATM   33  C   UNL     1      -2.052  -5.070  -1.196  1.00  0.00     0.187 C 
BRANCH  33  34
HETATM   34  C   UNL     1      -1.463  -4.418  -2.390  1.00  0.00     0.070 A 
HETATM   35  O   UNL     1      -0.661  -3.337  -2.169  1.00  0.00    -0.325 OA
HETATM   36  C   UNL     1      -0.187  -2.936  -3.376  1.00  0.00     0.142 A 
HETATM   37  C   UNL     1      -0.684  -3.737  -4.376  1.00  0.00     0.027 A 
HETATM   38  C   UNL     1      -1.510  -4.695  -3.741  1.00  0.00     0.036 A 
ENDBRANCH  33  34
ENDBRANCH  30  33
ENDBRANCH  24  29
ENDBRANCH   2  23
TORSDOF 6
