REMARK  10 active torsions:
REMARK  status: ('A' for Active; 'I' for Inactive)
REMARK    1  A    between atoms: C_6  and  C_7 
REMARK    2  A    between atoms: C_9  and  C_10 
REMARK    3  A    between atoms: C_10  and  C_11 
REMARK       I    between atoms: C_11  and  N_12 
REMARK    4  A    between atoms: N_12  and  C_13 
REMARK    5  A    between atoms: C_13  and  C_14 
REMARK    6  A    between atoms: C_14  and  N_15 
REMARK    7  A    between atoms: C_26  and  C_27 
REMARK    8  A    between atoms: C_27  and  O_28 
REMARK    9  A    between atoms: O_28  and  C_29 
REMARK   10  A    between atoms: C_29  and  C_30 
ROOT
HETATM    1  C   UNL     1       6.773  -4.983  -1.018  1.00  0.00     0.166 C 
HETATM    2  N   UNL     1       7.289  -3.765  -0.363  1.00  0.00    -0.318 N 
HETATM    3  C   UNL     1       8.390  -3.420   0.221  1.00  0.00     0.011 C 
HETATM    4  C   UNL     1       6.407  -2.512  -0.618  1.00  0.00     0.170 C 
HETATM    5  S   UNL     1       6.835  -1.207   0.442  1.00  0.00    -0.086 SA
HETATM    6  C   UNL     1       8.390  -2.047   0.864  1.00  0.00     0.135 C 
HETATM    7  N   UNL     1       5.539  -2.403  -1.560  1.00  0.00    -0.229 NA
HETATM    8  C   UNL     1       5.494  -3.416  -2.501  1.00  0.00     0.048 C 
HETATM    9  C   UNL     1       4.784  -3.025  -3.776  1.00  0.00     0.071 C 
HETATM   10  C   UNL     1       6.093  -4.611  -2.307  1.00  0.00     0.069 C 
ENDROOT
BRANCH   3  11
HETATM   11  C   UNL     1       9.638  -4.245   0.138  1.00  0.00     0.156 C 
BRANCH  11  12
HETATM   12  C   UNL     1       9.835  -5.308   1.187  1.00  0.00     0.223 C 
HETATM   13  N   UNL     1      11.147  -5.685   1.343  1.00  0.00    -0.359 N 
HETATM   14  H   UNL     1      11.832  -5.282   0.705  1.00  0.00     0.162 HD
HETATM   15  O   UNL     1       8.903  -5.807   1.807  1.00  0.00    -0.273 OA
BRANCH  13  16
HETATM   16  C   UNL     1      11.619  -6.884   2.039  1.00  0.00     0.150 C 
BRANCH  16  17
HETATM   17  C   UNL     1      11.181  -7.068   3.505  1.00  0.00     0.253 C 
BRANCH  17  18
HETATM   18  N   UNL     1       9.743  -7.523   3.643  1.00  0.00    -0.077 N 
HETATM   19  H   UNL     1       9.172  -6.894   3.045  1.00  0.00     0.279 HD
HETATM   20  C   UNL     1       9.493  -8.926   3.161  1.00  0.00     0.269 C 
HETATM   21  C   UNL     1       9.245  -7.347   5.052  1.00  0.00     0.269 C 
ENDBRANCH  17  18
ENDBRANCH  16  17
ENDBRANCH  13  16
ENDBRANCH  11  12
ENDBRANCH   3  11
BRANCH   1  22
HETATM   22  C   UNL     1       5.869  -5.880  -0.133  1.00  0.00    -0.024 C 
HETATM   23  C   UNL     1       4.778  -5.478   0.679  1.00  0.00    -0.053 C 
HETATM   24  C   UNL     1       3.819  -6.440   1.078  1.00  0.00     0.014 C 
HETATM   25  C   UNL     1       4.478  -4.083   1.149  1.00  0.00     0.049 C 
HETATM   26  C   UNL     1       3.935  -7.790   0.752  1.00  0.00    -0.061 C 
HETATM   27  C   UNL     1       2.823  -8.753   1.054  1.00  0.00     0.048 C 
HETATM   28  C   UNL     1       5.078  -8.210   0.087  1.00  0.00     0.007 C 
HETATM   29  C   UNL     1       6.031  -7.276  -0.331  1.00  0.00     0.011 C 
ENDBRANCH   1  22
BRANCH  10  30
HETATM   30  C   UNL     1       6.377  -5.471  -3.477  1.00  0.00     0.294 C 
HETATM   31  O   UNL     1       6.935  -5.035  -4.469  1.00  0.00    -0.259 OA
BRANCH  30  32
HETATM   32  O   UNL     1       6.077  -6.756  -3.213  1.00  0.00    -0.313 OA
BRANCH  32  33
HETATM   33  C   UNL     1       6.431  -7.704  -4.236  1.00  0.00     0.217 C 
BRANCH  33  34
HETATM   34  C   UNL     1       7.810  -8.254  -3.961  1.00  0.00    -0.034 A 
HETATM   35  C   UNL     1       7.988  -9.355  -3.110  1.00  0.00     0.009 A 
HETATM   36  C   UNL     1       9.265  -9.876  -2.881  1.00  0.00     0.001 A 
HETATM   37  C   UNL     1      10.375  -9.299  -3.495  1.00  0.00     0.000 A 
HETATM   38  C   UNL     1      10.212  -8.198  -4.333  1.00  0.00     0.001 A 
HETATM   39  C   UNL     1       8.938  -7.675  -4.562  1.00  0.00     0.009 A 
ENDBRANCH  33  34
ENDBRANCH  32  33
ENDBRANCH  30  32
ENDBRANCH  10  30
TORSDOF 10
