REMARK  6 active torsions:
REMARK  status: ('A' for Active; 'I' for Inactive)
REMARK    1  A    between atoms: C_2  and  C_3 
REMARK    2  A    between atoms: C_3  and  C_4 
REMARK    3  A    between atoms: C_4  and  C_5 
REMARK    4  A    between atoms: C_8  and  N_9 
REMARK       I    between atoms: N_9  and  C_10 
REMARK    5  A    between atoms: C_10  and  C_11 
REMARK    6  A    between atoms: N_16  and  C_17 
ROOT
HETATM    1  C   UNL     1       4.843  -7.584  -1.651  1.00  0.00     0.098 A 
HETATM    2  C   UNL     1       4.412  -6.337  -0.930  1.00  0.00     0.205 A 
HETATM    3  O   UNL     1       4.315  -5.254  -1.500  1.00  0.00    -0.286 OA
HETATM    4  C   UNL     1       4.077  -6.541   0.466  1.00  0.00     0.087 A 
HETATM    5  C   UNL     1       4.167  -7.779   1.060  1.00  0.00     0.145 A 
HETATM    6  N   UNL     1       3.751  -7.642   2.376  1.00  0.00    -0.216 N 
HETATM    7  N   UNL     1       3.325  -6.361   2.602  1.00  0.00    -0.170 NA
HETATM    8  C   UNL     1       3.573  -5.693   1.467  1.00  0.00     0.069 A 
HETATM    9  C   UNL     1       3.278  -4.242   1.371  1.00  0.00     0.073 C 
HETATM   10  N   UNL     1       4.541  -8.886   0.374  1.00  0.00    -0.349 N 
HETATM   11  C   UNL     1       4.863  -8.749  -0.964  1.00  0.00     0.111 A 
HETATM   12  H   UNL     1       4.380  -9.837   0.701  1.00  0.00     0.167 HD
ENDROOT
BRANCH   1  13
HETATM   13  C   UNL     1       5.191  -7.633  -3.103  1.00  0.00     0.261 C 
HETATM   14  N   UNL     1       4.875  -6.492  -3.812  1.00  0.00    -0.323 N 
HETATM   15  H   UNL     1       4.480  -5.713  -3.285  1.00  0.00     0.169 HD
HETATM   16  O   UNL     1       5.680  -8.657  -3.572  1.00  0.00    -0.267 OA
BRANCH  14  17
HETATM   17  C   UNL     1       4.952  -6.305  -5.209  1.00  0.00     0.035 A 
HETATM   18  C   UNL     1       5.517  -7.227  -6.089  1.00  0.00     0.030 A 
HETATM   19  C   UNL     1       5.498  -6.997  -7.468  1.00  0.00     0.009 A 
HETATM   20  C   UNL     1       4.900  -5.847  -7.995  1.00  0.00    -0.058 A 
HETATM   21  C   UNL     1       4.362  -4.906  -7.111  1.00  0.00     0.009 A 
HETATM   22  C   UNL     1       4.397  -5.131  -5.730  1.00  0.00     0.030 A 
BRANCH  20  23
HETATM   23  C   UNL     1       4.821  -5.644  -9.489  1.00  0.00     0.038 C 
BRANCH  23  24
HETATM   24  C   UNL     1       3.882  -6.661 -10.149  1.00  0.00     0.004 C 
BRANCH  24  25
HETATM   25  C   UNL     1       3.780  -6.439 -11.657  1.00  0.00    -0.004 C 
HETATM   26  C   UNL     1       2.895  -7.489 -12.311  1.00  0.00     0.005 C 
ENDBRANCH  24  25
ENDBRANCH  23  24
ENDBRANCH  20  23
ENDBRANCH  14  17
ENDBRANCH   1  13
BRANCH   6  27
HETATM   27  C   UNL     1       3.711  -8.601   3.430  1.00  0.00     0.060 A 
HETATM   28  C   UNL     1       4.458  -9.785   3.385  1.00  0.00     0.031 A 
HETATM   29  C   UNL     1       4.367 -10.714   4.427  1.00  0.00     0.002 A 
HETATM   30  C   UNL     1       3.545 -10.462   5.523  1.00  0.00     0.000 A 
HETATM   31  C   UNL     1       2.826  -9.271   5.593  1.00  0.00     0.002 A 
HETATM   32  C   UNL     1       2.913  -8.340   4.556  1.00  0.00     0.031 A 
ENDBRANCH   6  27
TORSDOF 6
