REMARK  5 active torsions:
REMARK  status: ('A' for Active; 'I' for Inactive)
REMARK    1  A    between atoms: C_5  and  S_6 
REMARK    2  A    between atoms: S_6  and  C_7 
REMARK    3  A    between atoms: C_7  and  C_8 
REMARK       I    between atoms: C_8  and  N_9 
REMARK    4  A    between atoms: N_9  and  C_10 
REMARK    5  A    between atoms: C_12  and  C_13 
ROOT
HETATM    1  C   UNL     1       9.015  -1.492  -0.562  1.00  0.00     0.231 C 
HETATM    2  N   UNL     1       9.476  -0.368  -1.223  1.00  0.00    -0.327 N 
HETATM    3  O   UNL     1       9.696  -2.465  -0.241  1.00  0.00    -0.272 OA
HETATM    4  H   UNL     1       8.762   0.312  -1.469  1.00  0.00     0.169 HD
ENDROOT
BRANCH   2   5
HETATM    5  C   UNL     1      10.783  -0.106  -1.683  1.00  0.00     0.035 A 
HETATM    6  C   UNL     1      11.876  -0.947  -1.450  1.00  0.00     0.042 A 
HETATM    7  C   UNL     1      13.155  -0.638  -1.943  1.00  0.00    -0.021 A 
HETATM    8  C   UNL     1      13.324   0.543  -2.676  1.00  0.00     0.012 A 
HETATM    9  C   UNL     1      12.243   1.395  -2.908  1.00  0.00     0.003 A 
HETATM   10  C   UNL     1      10.979   1.071  -2.413  1.00  0.00     0.029 A 
BRANCH   7  11
HETATM   11  C   UNL     1      14.268  -1.546  -1.696  1.00  0.00     0.010 A 
HETATM   12  C   UNL     1      14.280  -2.914  -1.323  1.00  0.00     0.152 A 
HETATM   13  N   UNL     1      15.515  -3.404  -1.181  1.00  0.00    -0.187 NA
HETATM   14  N   UNL     1      16.301  -2.353  -1.453  1.00  0.00    -0.289 N 
HETATM   15  H   UNL     1      17.306  -2.481  -1.404  1.00  0.00     0.188 HD
HETATM   16  C   UNL     1      15.607  -1.219  -1.766  1.00  0.00     0.123 A 
ENDBRANCH   7  11
ENDBRANCH   2   5
BRANCH   1  17
HETATM   17  C   UNL     1       7.552  -1.435  -0.143  1.00  0.00     0.182 C 
BRANCH  17  18
HETATM   18  S   UNL     1       6.511  -0.460  -1.283  1.00  0.00    -0.121 SA
BRANCH  18  19
HETATM   19  C   UNL     1       4.916  -0.825  -0.574  1.00  0.00     0.001 A 
HETATM   20  C   UNL     1       4.187   0.184   0.058  1.00  0.00     0.019 A 
HETATM   21  C   UNL     1       2.944  -0.098   0.632  1.00  0.00     0.008 A 
HETATM   22  C   UNL     1       2.408  -1.389   0.568  1.00  0.00    -0.062 A 
HETATM   23  C   UNL     1       1.089  -1.711   1.206  1.00  0.00     0.048 C 
HETATM   24  C   UNL     1       3.137  -2.395  -0.076  1.00  0.00     0.008 A 
HETATM   25  C   UNL     1       4.379  -2.114  -0.650  1.00  0.00     0.019 A 
ENDBRANCH  18  19
ENDBRANCH  17  18
ENDBRANCH   1  17
TORSDOF 5
