REMARK  4 active torsions:
REMARK  status: ('A' for Active; 'I' for Inactive)
REMARK    1  A    between atoms: C_5  and  C_6 
REMARK    2  A    between atoms: C_6  and  N_7 
REMARK    3  A    between atoms: N_10  and  C_12 
REMARK    4  A    between atoms: C_12  and  C_13 
ROOT
HETATM    1  N   UNL     1      -2.225  -2.679  -0.119  1.00  0.00    -0.406 N 
HETATM    2  C   UNL     1      -2.785  -2.626  -1.471  1.00  0.00     0.150 C 
HETATM    3  C   UNL     1      -2.833  -3.908  -2.343  1.00  0.00     0.206 C 
HETATM    4  N   UNL     1      -4.007  -4.821  -2.003  1.00  0.00    -0.061 N 
HETATM    5  H   UNL     1      -3.927  -5.585  -2.684  1.00  0.00     0.280 HD
HETATM    6  C   UNL     1      -3.926  -5.467  -0.648  1.00  0.00     0.242 C 
HETATM    7  C   UNL     1      -2.581  -5.232   0.032  1.00  0.00     0.029 C 
HETATM    8  C   UNL     1      -2.532  -3.845   0.701  1.00  0.00     0.123 C 
HETATM    9  C   UNL     1      -1.557  -4.752  -2.257  1.00  0.00     0.035 C 
HETATM   10  C   UNL     1      -1.417  -5.496  -0.927  1.00  0.00     0.010 C 
ENDROOT
BRANCH   4  11
HETATM   11  C   UNL     1      -5.389  -4.252  -2.267  1.00  0.00     0.274 C 
BRANCH  11  12
HETATM   12  C   UNL     1      -5.611  -3.811  -3.687  1.00  0.00    -0.032 A 
HETATM   13  C   UNL     1      -5.671  -4.764  -4.723  1.00  0.00     0.022 A 
HETATM   14  C   UNL     1      -5.879  -4.342  -6.050  1.00  0.00    -0.008 A 
HETATM   15  C   UNL     1      -6.027  -2.980  -6.307  1.00  0.00     0.042 A 
HETATM   16  C   UNL     1      -5.993  -5.019  -7.295  1.00  0.00     0.030 A 
HETATM   17  N   UNL     1      -6.233  -2.843  -7.663  1.00  0.00    -0.365 N 
HETATM   18  C   UNL     1      -5.975  -2.012  -5.301  1.00  0.00     0.031 A 
HETATM   19  H   UNL     1      -6.388  -1.963  -8.138  1.00  0.00     0.165 HD
HETATM   20  C   UNL     1      -6.210  -4.071  -8.268  1.00  0.00     0.089 A 
HETATM   21  C   UNL     1      -5.764  -2.451  -3.989  1.00  0.00     0.011 A 
ENDBRANCH  11  12
ENDBRANCH   4  11
BRANCH   1  22
HETATM   22  C   UNL     1      -0.827  -2.230   0.013  1.00  0.00     0.157 C 
BRANCH  22  23
HETATM   23  C   UNL     1      -0.578  -0.817  -0.446  1.00  0.00    -0.023 A 
HETATM   24  C   UNL     1      -1.383   0.238  -0.023  1.00  0.00     0.125 A 
HETATM   25  N   UNL     1      -1.206   1.526  -0.394  1.00  0.00    -0.273 NA
HETATM   26  C   UNL     1      -0.155   1.789  -1.200  1.00  0.00     0.116 A 
HETATM   27  C   UNL     1       0.721   0.819  -1.658  1.00  0.00     0.020 A 
HETATM   28  C   UNL     1       0.504  -0.501  -1.274  1.00  0.00     0.011 A 
ENDBRANCH  22  23
ENDBRANCH   1  22
TORSDOF 4
