REMARK  5 active torsions:
REMARK  status: ('A' for Active; 'I' for Inactive)
REMARK    1  A    between atoms: C_3  and  N_4 
REMARK       I    between atoms: N_4  and  C_5 
REMARK       I    between atoms: C_5  and  N_6 
REMARK    2  A    between atoms: N_6  and  C_7 
REMARK    3  A    between atoms: C_7  and  C_8 
REMARK    4  A    between atoms: C_8  and  O_9 
REMARK    5  A    between atoms: O_9  and  C_10 
ROOT
HETATM    1  N   UNL     1       3.546   5.637  -1.535  1.00  0.00    -0.307 N 
HETATM    2  C   UNL     1       4.547   4.718  -1.769  1.00  0.00     0.320 C 
HETATM    3  N   UNL     1       4.650   3.836  -0.718  1.00  0.00    -0.340 N 
HETATM    4  O   UNL     1       5.235   4.643  -2.776  1.00  0.00    -0.247 OA
HETATM    5  H   UNL     1       2.728   5.203  -1.128  1.00  0.00     0.170 HD
HETATM    6  H   UNL     1       4.302   4.157   0.174  1.00  0.00     0.164 HD
ENDROOT
BRANCH   3   7
HETATM    7  C   UNL     1       5.598   2.734  -0.726  1.00  0.00     0.156 C 
BRANCH   7   8
HETATM    8  C   UNL     1       7.031   3.121  -0.308  1.00  0.00     0.142 C 
HETATM    9  C   UNL     1       7.892   3.548  -1.496  1.00  0.00     0.042 C 
BRANCH   8  10
HETATM   10  O   UNL     1       7.679   1.963   0.247  1.00  0.00    -0.345 OA
BRANCH  10  11
HETATM   11  C   UNL     1       7.701   1.796   1.602  1.00  0.00     0.070 A 
HETATM   12  C   UNL     1       6.939   2.498   2.534  1.00  0.00     0.060 A 
HETATM   13  C   UNL     1       7.078   2.216   3.896  1.00  0.00     0.036 A 
HETATM   14 CL   UNL     1       6.144   3.096   5.044  1.00  0.00    -0.084 Cl
HETATM   15  C   UNL     1       7.960   1.231   4.337  1.00  0.00     0.024 A 
HETATM   16  C   UNL     1       8.708   0.514   3.406  1.00  0.00     0.004 A 
HETATM   17  C   UNL     1       8.575   0.797   2.046  1.00  0.00     0.037 A 
ENDBRANCH  10  11
ENDBRANCH   8  10
ENDBRANCH   7   8
ENDBRANCH   3   7
BRANCH   1  18
HETATM   18  C   UNL     1       3.303   6.756  -2.366  1.00  0.00     0.059 A 
HETATM   19  C   UNL     1       4.296   7.631  -2.831  1.00  0.00    -0.032 A 
HETATM   20  C   UNL     1       5.748   7.528  -2.459  1.00  0.00     0.050 C 
HETATM   21  C   UNL     1       3.910   8.683  -3.676  1.00  0.00     0.028 A 
HETATM   22  C   UNL     1       2.568   8.861  -3.975  1.00  0.00     0.117 A 
HETATM   23  N   UNL     1       1.586   8.076  -3.492  1.00  0.00    -0.271 NA
HETATM   24  C   UNL     1       1.978   7.050  -2.702  1.00  0.00     0.146 A 
ENDBRANCH   1  18
TORSDOF 5
