REMARK  8 active torsions:
REMARK  status: ('A' for Active; 'I' for Inactive)
REMARK    1  A    between atoms: C_2  and  O_3 
REMARK    2  A    between atoms: O_3  and  C_4 
REMARK    3  A    between atoms: C_4  and  C_5 
REMARK    4  A    between atoms: C_10  and  N_11 
REMARK       I    between atoms: N_11  and  C_12 
REMARK    5  A    between atoms: C_12  and  C_13 
REMARK    6  A    between atoms: C_13  and  N_14 
REMARK    7  A    between atoms: N_18  and  C_19 
REMARK    8  A    between atoms: C_21  and  C_22 
ROOT
HETATM    1  N   UNL     1       8.218   4.097  -0.242  1.00  0.00    -0.323 N 
HETATM    2  C   UNL     1       7.537   2.950   0.109  1.00  0.00     0.248 C 
HETATM    3  O   UNL     1       8.049   1.845   0.266  1.00  0.00    -0.271 OA
HETATM    4  H   UNL     1       7.877   5.000   0.087  1.00  0.00     0.169 HD
ENDROOT
BRANCH   1   5
HETATM    5  C   UNL     1       9.546   4.103  -0.669  1.00  0.00     0.080 A 
HETATM    6  C   UNL     1      10.375   5.195  -0.465  1.00  0.00     0.137 A 
HETATM    7  N   UNL     1      11.609   4.870  -0.976  1.00  0.00    -0.349 N 
HETATM    8  H   UNL     1      12.418   5.478  -0.942  1.00  0.00     0.166 HD
HETATM    9  C   UNL     1      11.597   3.613  -1.533  1.00  0.00     0.048 A 
HETATM   10  C   UNL     1      10.299   3.104  -1.374  1.00  0.00     0.023 A 
HETATM   11  C   UNL     1      12.637   2.908  -2.162  1.00  0.00     0.070 A 
HETATM   12  C   UNL     1      10.008   1.831  -1.922  1.00  0.00     0.055 A 
HETATM   13  C   UNL     1      11.038   1.142  -2.534  1.00  0.00     0.106 A 
HETATM   14  C   UNL     1      12.302   1.658  -2.644  1.00  0.00     0.107 A 
HETATM   15  O   UNL     1      10.928  -0.096  -3.089  1.00  0.00    -0.323 OA
HETATM   16  O   UNL     1      13.154   0.807  -3.279  1.00  0.00    -0.323 OA
HETATM   17  C   UNL     1      12.284  -0.316  -3.529  1.00  0.00     0.352 A 
BRANCH   6  18
HETATM   18  C   UNL     1      10.071   6.434   0.208  1.00  0.00     0.312 C 
HETATM   19  O   UNL     1       8.959   6.724   0.635  1.00  0.00    -0.258 OA
BRANCH  18  20
HETATM   20  O   UNL     1      11.197   7.187   0.318  1.00  0.00    -0.317 OA
BRANCH  20  21
HETATM   21  C   UNL     1      11.071   8.414   1.053  1.00  0.00     0.175 C 
HETATM   22  C   UNL     1      10.693   9.544   0.117  1.00  0.00     0.034 C 
ENDBRANCH  20  21
ENDBRANCH  18  20
ENDBRANCH   6  18
ENDBRANCH   1   5
BRANCH   2  23
HETATM   23  C   UNL     1       6.031   3.158   0.330  1.00  0.00     0.337 C 
BRANCH  23  24
HETATM   24  N   UNL     1       5.238   1.904   0.739  1.00  0.00    -0.060 N 
HETATM   25  H   UNL     1       4.253   2.177   0.816  1.00  0.00     0.280 HD
HETATM   26  C   UNL     1       5.299   0.791  -0.320  1.00  0.00     0.255 C 
HETATM   27  C   UNL     1       4.497  -0.450   0.128  1.00  0.00     0.150 C 
HETATM   28  N   UNL     1       4.950  -0.883   1.462  1.00  0.00    -0.378 N 
HETATM   29  C   UNL     1       4.837   0.135   2.516  1.00  0.00     0.150 C 
HETATM   30  C   UNL     1       5.656   1.382   2.119  1.00  0.00     0.255 C 
BRANCH  28  31
HETATM   31  C   UNL     1       4.796  -2.230   1.780  1.00  0.00     0.030 A 
HETATM   32  C   UNL     1       5.384  -3.209   0.961  1.00  0.00     0.045 A 
HETATM   33  C   UNL     1       5.307  -4.583   1.256  1.00  0.00     0.050 A 
HETATM   34  C   UNL     1       4.633  -4.987   2.412  1.00  0.00     0.016 A 
HETATM   35  C   UNL     1       4.045  -4.038   3.242  1.00  0.00     0.003 A 
HETATM   36  C   UNL     1       4.130  -2.677   2.928  1.00  0.00     0.029 A 
BRANCH  33  37
HETATM   37  C   UNL     1       5.986  -5.599   0.371  1.00  0.00     0.417 C 
HETATM   38  F   UNL     1       6.251  -5.124  -0.879  1.00  0.00    -0.166 F 
HETATM   39  F   UNL     1       7.180  -6.011   0.877  1.00  0.00    -0.166 F 
HETATM   40  F   UNL     1       5.242  -6.724   0.191  1.00  0.00    -0.166 F 
ENDBRANCH  33  37
ENDBRANCH  28  31
ENDBRANCH  23  24
ENDBRANCH   2  23
TORSDOF 8
