REMARK  6 active torsions:
REMARK  status: ('A' for Active; 'I' for Inactive)
REMARK    1  A    between atoms: C_2  and  N_3 
REMARK    2  A    between atoms: C_2  and  C_12 
REMARK       I    between atoms: N_3  and  C_4 
REMARK    3  A    between atoms: C_4  and  C_5 
REMARK    4  A    between atoms: C_12  and  C_13 
REMARK       I    between atoms: C_13  and  N_14 
REMARK    5  A    between atoms: N_14  and  C_15 
REMARK    6  A    between atoms: C_17  and  C_18 
ROOT
HETATM    1  C   UNL     1       4.498   1.703   0.231  1.00  0.00     0.224 C 
HETATM    2  N   UNL     1       5.136   1.555   1.444  1.00  0.00    -0.327 N 
HETATM    3  O   UNL     1       5.028   1.873  -0.863  1.00  0.00    -0.273 OA
HETATM    4  H   UNL     1       4.526   1.347   2.240  1.00  0.00     0.169 HD
ENDROOT
BRANCH   1   5
HETATM    5  C   UNL     1       2.985   1.602   0.349  1.00  0.00     0.128 C 
BRANCH   5   6
HETATM    6  C   UNL     1       2.546   0.128   0.308  1.00  0.00     0.089 C 
HETATM    7  C   UNL     1       1.607  -0.100  -0.881  1.00  0.00     0.032 C 
BRANCH   6   8
HETATM    8  N   UNL     1       1.880  -0.345   1.530  1.00  0.00    -0.352 N 
HETATM    9  C   UNL     1       2.450  -0.274   2.785  1.00  0.00     0.252 C 
HETATM   10  O   UNL     1       3.381   0.471   3.072  1.00  0.00    -0.268 OA
HETATM   11  H   UNL     1       1.105  -0.983   1.406  1.00  0.00     0.163 HD
BRANCH   9  12
HETATM   12  C   UNL     1       1.876  -1.160   3.831  1.00  0.00     0.032 A 
HETATM   13  C   UNL     1       1.417  -2.449   3.531  1.00  0.00     0.017 A 
HETATM   14  C   UNL     1       0.943  -3.274   4.554  1.00  0.00     0.001 A 
HETATM   15  C   UNL     1       0.932  -2.818   5.872  1.00  0.00     0.000 A 
HETATM   16  C   UNL     1       1.400  -1.539   6.175  1.00  0.00     0.001 A 
HETATM   17  C   UNL     1       1.878  -0.713   5.157  1.00  0.00     0.017 A 
ENDBRANCH   9  12
ENDBRANCH   6   8
ENDBRANCH   5   6
ENDBRANCH   1   5
BRANCH   2  18
HETATM   18  C   UNL     1       6.513   1.580   1.731  1.00  0.00     0.035 A 
HETATM   19  C   UNL     1       7.517   1.727   0.770  1.00  0.00     0.042 A 
HETATM   20  C   UNL     1       8.874   1.733   1.140  1.00  0.00    -0.021 A 
HETATM   21  C   UNL     1       9.207   1.602   2.496  1.00  0.00     0.012 A 
HETATM   22  C   UNL     1       8.212   1.456   3.460  1.00  0.00     0.003 A 
HETATM   23  C   UNL     1       6.873   1.439   3.076  1.00  0.00     0.029 A 
BRANCH  20  24
HETATM   24  C   UNL     1       9.931   1.855   0.146  1.00  0.00     0.010 A 
HETATM   25  C   UNL     1      11.297   1.482   0.197  1.00  0.00     0.152 A 
HETATM   26  N   UNL     1      11.958   1.768  -0.929  1.00  0.00    -0.187 NA
HETATM   27  N   UNL     1      11.016   2.322  -1.709  1.00  0.00    -0.289 N 
HETATM   28  H   UNL     1      11.281   2.627  -2.639  1.00  0.00     0.188 HD
HETATM   29  C   UNL     1       9.792   2.400  -1.113  1.00  0.00     0.123 A 
ENDBRANCH  20  24
ENDBRANCH   2  18
TORSDOF 6
