REMARK  9 active torsions:
REMARK  status: ('A' for Active; 'I' for Inactive)
REMARK    1  A    between atoms: C_3  and  C_4 
REMARK    2  A    between atoms: C_4  and  C_5 
REMARK       I    between atoms: C_5  and  N_6 
REMARK    3  A    between atoms: N_6  and  C_7 
REMARK    4  A    between atoms: C_16  and  N_17 
REMARK       I    between atoms: N_17  and  C_18 
REMARK    5  A    between atoms: C_18  and  C_19 
REMARK    6  A    between atoms: C_19  and  S_20 
REMARK    7  A    between atoms: C_26  and  C_27 
REMARK    8  A    between atoms: C_27  and  O_28 
REMARK    9  A    between atoms: C_30  and  O_31 
ROOT
HETATM    1  C   UNL     1      -1.530   2.257   0.740  1.00  0.00     0.016 C 
HETATM    2  C   UNL     1      -0.040   1.935   0.371  1.00  0.00    -0.030 C 
HETATM    3  C   UNL     1       0.172   0.398   0.823  1.00  0.00     0.056 C 
HETATM    4  C   UNL     1      -0.047  -0.548  -0.343  1.00  0.00     0.056 A 
HETATM    5  C   UNL     1      -0.444  -0.158  -1.603  1.00  0.00     0.012 A 
HETATM    6  S   UNL     1      -0.632  -1.509  -2.620  1.00  0.00    -0.055 SA
HETATM    7  C   UNL     1      -0.150  -2.522  -1.341  1.00  0.00     0.173 A 
HETATM    8  N   UNL     1       0.147  -1.915  -0.213  1.00  0.00    -0.227 NA
HETATM    9  C   UNL     1      -0.688   1.231  -2.056  1.00  0.00     0.055 C 
HETATM   10  C   UNL     1       0.120   2.232  -1.193  1.00  0.00     0.012 C 
HETATM   11  C   UNL     1       1.593   2.507  -1.717  1.00  0.00     0.008 C 
HETATM   12  C   UNL     1       1.528   3.122  -3.145  1.00  0.00     0.020 C 
HETATM   13  C   UNL     1       2.286   3.547  -0.788  1.00  0.00     0.128 C 
HETATM   14  C   UNL     1       2.233   3.148   0.683  1.00  0.00     0.033 C 
HETATM   15  C   UNL     1       0.797   2.966   1.173  1.00  0.00     0.013 C 
ENDROOT
BRANCH   3  16
HETATM   16  C   UNL     1       1.455   0.065   1.609  1.00  0.00     0.114 C 
BRANCH  16  17
HETATM   17  C   UNL     1       1.275  -1.074   2.600  1.00  0.00     0.218 C 
HETATM   18  N   UNL     1       1.563  -2.313   2.081  1.00  0.00    -0.356 N 
HETATM   19  H   UNL     1       1.375  -2.397   1.083  1.00  0.00     0.162 HD
HETATM   20  O   UNL     1       0.946  -0.877   3.766  1.00  0.00    -0.274 OA
BRANCH  18  21
HETATM   21  C   UNL     1       1.493  -3.511   2.883  1.00  0.00     0.084 C 
HETATM   22  C   UNL     1       0.079  -4.056   3.046  1.00  0.00     0.025 C 
HETATM   23  C   UNL     1       0.312  -5.486   3.518  1.00  0.00     0.002 C 
HETATM   24  C   UNL     1       1.631  -5.924   2.881  1.00  0.00     0.002 C 
HETATM   25  C   UNL     1       2.228  -4.678   2.233  1.00  0.00     0.025 C 
ENDBRANCH  18  21
ENDBRANCH  16  17
ENDBRANCH   3  16
BRANCH  11  26
HETATM   26  C   UNL     1       2.461   1.230  -1.820  1.00  0.00     0.176 C 
BRANCH  26  27
HETATM   27  O   UNL     1       3.788   1.528  -2.246  1.00  0.00    -0.400 OA
HETATM   28  H   UNL     1       3.791   1.535  -3.219  1.00  0.00     0.209 HD
ENDBRANCH  26  27
ENDBRANCH  11  26
BRANCH   7  29
HETATM   29  N   UNL     1      -0.036  -3.880  -1.465  1.00  0.00    -0.305 N 
HETATM   30  C   UNL     1      -0.360  -4.656  -2.555  1.00  0.00     0.232 C 
HETATM   31  O   UNL     1      -0.832  -4.271  -3.621  1.00  0.00    -0.272 OA
HETATM   32  H   UNL     1       0.249  -4.355  -0.616  1.00  0.00     0.171 HD
BRANCH  30  33
HETATM   33  C   UNL     1       0.011  -6.123  -2.373  1.00  0.00     0.176 C 
BRANCH  33  34
HETATM   34  S   UNL     1      -0.450  -6.765  -0.729  1.00  0.00    -0.164 SA
HETATM   35  C   UNL     1      -2.246  -6.846  -0.955  1.00  0.00     0.090 C 
ENDBRANCH  33  34
ENDBRANCH  30  33
ENDBRANCH   7  29
BRANCH  13  36
HETATM   36  O   UNL     1       1.646   4.823  -0.904  1.00  0.00    -0.395 OA
HETATM   37  H   UNL     1       2.060   5.287  -1.652  1.00  0.00     0.210 HD
ENDBRANCH  13  36
TORSDOF 9
