REMARK  7 active torsions:
REMARK  status: ('A' for Active; 'I' for Inactive)
REMARK    1  A    between atoms: C_3  and  C_4 
REMARK    2  A    between atoms: C_11  and  N_12 
REMARK       I    between atoms: N_12  and  C_13 
REMARK    3  A    between atoms: C_13  and  C_14 
REMARK    4  A    between atoms: C_21  and  C_22 
REMARK       I    between atoms: C_22  and  N_23 
REMARK    5  A    between atoms: N_23  and  C_24 
REMARK    6  A    between atoms: C_24  and  C_25 
REMARK    7  A    between atoms: C_25  and  C_26 
ROOT
HETATM    1  C   UNL     1       5.616  -7.678  -4.473  1.00  0.00     0.158 C 
HETATM    2  N   UNL     1       4.869  -8.691  -3.768  1.00  0.00    -0.335 N 
HETATM    3  C   UNL     1       4.901 -10.027  -4.108  1.00  0.00     0.111 A 
HETATM    4  N   UNL     1       4.399 -10.772  -3.150  1.00  0.00    -0.233 NA
HETATM    5  C   UNL     1       3.989  -9.894  -2.185  1.00  0.00     0.089 A 
HETATM    6  C   UNL     1       4.197  -8.563  -2.567  1.00  0.00     0.091 A 
HETATM    7  C   UNL     1       3.822  -7.497  -1.728  1.00  0.00     0.065 A 
HETATM    8  C   UNL     1       3.329  -7.839  -0.455  1.00  0.00     0.049 A 
HETATM    9  C   UNL     1       3.116  -9.165  -0.062  1.00  0.00     0.036 A 
HETATM   10  C   UNL     1       3.438 -10.207  -0.932  1.00  0.00     0.051 A 
ENDROOT
BRANCH   9  11
HETATM   11  C   UNL     1       2.555  -9.406   1.297  1.00  0.00     0.251 C 
HETATM   12  N   UNL     1       1.940 -10.620   1.523  1.00  0.00    -0.357 N 
HETATM   13  H   UNL     1       1.749 -11.245   0.752  1.00  0.00     0.162 HD
HETATM   14  O   UNL     1       2.627  -8.524   2.147  1.00  0.00    -0.268 OA
BRANCH  12  15
HETATM   15  C   UNL     1       1.319 -10.910   2.805  1.00  0.00     0.127 C 
BRANCH  15  16
HETATM   16  C   UNL     1      -0.083 -10.305   2.923  1.00  0.00     0.060 C 
BRANCH  16  17
HETATM   17  C   UNL     1      -0.649 -10.448   4.299  1.00  0.00    -0.029 A 
HETATM   18  C   UNL     1      -0.383  -9.587   5.413  1.00  0.00    -0.002 A 
HETATM   19  C   UNL     1      -1.111 -10.070   6.500  1.00  0.00     0.042 A 
HETATM   20  C   UNL     1       0.416  -8.440   5.593  1.00  0.00     0.014 A 
HETATM   21  C   UNL     1      -1.085  -9.460   7.760  1.00  0.00     0.030 A 
HETATM   22  N   UNL     1      -1.793 -11.183   6.065  1.00  0.00    -0.365 N 
HETATM   23  C   UNL     1      -0.288  -8.321   7.912  1.00  0.00     0.002 A 
HETATM   24  C   UNL     1       0.454  -7.817   6.846  1.00  0.00     0.001 A 
HETATM   25  H   UNL     1      -2.404 -11.740   6.645  1.00  0.00     0.165 HD
HETATM   26  C   UNL     1      -1.522 -11.421   4.744  1.00  0.00     0.096 A 
ENDBRANCH  16  17
ENDBRANCH  15  16
ENDBRANCH  12  15
ENDBRANCH   9  11
BRANCH   7  27
HETATM   27  N   UNL     1       3.891  -6.123  -2.011  1.00  0.00    -0.323 N 
HETATM   28  C   UNL     1       3.533  -5.518  -3.206  1.00  0.00     0.251 C 
HETATM   29  O   UNL     1       3.250  -6.088  -4.254  1.00  0.00    -0.270 OA
HETATM   30  H   UNL     1       3.782  -5.486  -1.221  1.00  0.00     0.169 HD
BRANCH  28  31
HETATM   31  C   UNL     1       3.540  -3.982  -3.069  1.00  0.00     0.213 C 
HETATM   32  O   UNL     1       3.301  -3.616  -1.691  1.00  0.00    -0.376 OA
HETATM   33  C   UNL     1       1.984  -3.061  -1.616  1.00  0.00     0.168 C 
HETATM   34  C   UNL     1       1.769  -2.379  -2.943  1.00  0.00     0.029 C 
HETATM   35  C   UNL     1       2.462  -3.310  -3.911  1.00  0.00     0.044 C 
ENDBRANCH  28  31
ENDBRANCH   7  27
BRANCH   3  36
HETATM   36  C   UNL     1       5.505 -10.604  -5.384  1.00  0.00     0.056 C 
HETATM   37  C   UNL     1       6.732 -11.528  -5.109  1.00  0.00     0.012 C 
HETATM   38  C   UNL     1       6.223 -12.427  -6.249  1.00  0.00     0.002 C 
HETATM   39  C   UNL     1       4.816 -11.891  -5.925  1.00  0.00     0.012 C 
ENDBRANCH   3  36
TORSDOF 7
