REMARK  9 active torsions:
REMARK  status: ('A' for Active; 'I' for Inactive)
REMARK    1  A    between atoms: C_2  and  N_3 
REMARK       I    between atoms: N_3  and  C_4 
REMARK    2  A    between atoms: C_4  and  C_5 
REMARK    3  A    between atoms: N_6  and  C_8 
REMARK    4  A    between atoms: C_8  and  C_9 
REMARK    5  A    between atoms: C_12  and  O_13 
REMARK    6  A    between atoms: O_13  and  C_14 
REMARK    7  A    between atoms: C_14  and  C_15 
REMARK    8  A    between atoms: C_24  and  S_25 
REMARK    9  A    between atoms: S_25  and  C_26 
ROOT
HETATM    1  C   UNL     1       1.860  -1.289  -2.696  1.00  0.00     0.280 C 
HETATM    2  N   UNL     1       1.202  -1.350  -4.084  1.00  0.00    -0.053 N 
HETATM    3  H   UNL     1       0.500  -0.600  -4.139  1.00  0.00     0.281 HD
HETATM    4  C   UNL     1       0.531  -2.708  -4.072  1.00  0.00     0.252 C 
HETATM    5  C   UNL     1       1.474  -3.616  -3.264  1.00  0.00     0.083 C 
HETATM    6  C   UNL     1       2.464  -2.678  -2.559  1.00  0.00     0.060 C 
ENDROOT
BRANCH   2   7
HETATM    7  C   UNL     1       2.131  -1.124  -5.263  1.00  0.00     0.274 C 
BRANCH   7   8
HETATM    8  C   UNL     1       1.408  -1.053  -6.582  1.00  0.00    -0.032 A 
HETATM    9  C   UNL     1       0.746   0.122  -6.975  1.00  0.00     0.011 A 
HETATM   10  C   UNL     1       0.067   0.183  -8.198  1.00  0.00     0.037 A 
HETATM   11  C   UNL     1       0.043  -0.929  -9.036  1.00  0.00     0.069 A 
HETATM   12  C   UNL     1       0.674  -2.107  -8.640  1.00  0.00     0.037 A 
HETATM   13  C   UNL     1       1.366  -2.168  -7.431  1.00  0.00     0.011 A 
BRANCH  11  14
HETATM   14  O   UNL     1      -0.597  -0.996 -10.239  1.00  0.00    -0.347 OA
BRANCH  14  15
HETATM   15  C   UNL     1      -0.637   0.214 -10.997  1.00  0.00     0.214 C 
BRANCH  15  16
HETATM   16  C   UNL     1      -0.848  -0.168 -12.440  1.00  0.00    -0.034 A 
HETATM   17  C   UNL     1      -2.112  -0.576 -12.889  1.00  0.00     0.009 A 
HETATM   18  C   UNL     1      -2.301  -0.967 -14.216  1.00  0.00     0.001 A 
HETATM   19  C   UNL     1      -1.228  -0.958 -15.105  1.00  0.00     0.000 A 
HETATM   20  C   UNL     1       0.035  -0.562 -14.669  1.00  0.00     0.001 A 
HETATM   21  C   UNL     1       0.226  -0.172 -13.342  1.00  0.00     0.009 A 
ENDBRANCH  15  16
ENDBRANCH  14  15
ENDBRANCH  11  14
ENDBRANCH   7   8
ENDBRANCH   2   7
BRANCH   1  22
HETATM   22  C   UNL     1       2.798  -0.089  -2.494  1.00  0.00     0.249 C 
HETATM   23  N   UNL     1       3.860  -0.271  -1.639  1.00  0.00    -0.355 N 
HETATM   24  H   UNL     1       3.883  -1.066  -1.011  1.00  0.00     0.162 HD
HETATM   25  O   UNL     1       2.569   0.972  -3.073  1.00  0.00    -0.271 OA
BRANCH  23  26
HETATM   26  C   UNL     1       4.787   0.815  -1.322  1.00  0.00     0.076 C 
HETATM   27  C   UNL     1       6.156   0.241  -0.971  1.00  0.00     0.032 C 
HETATM   28  C   UNL     1       4.243   1.665  -0.176  1.00  0.00     0.032 C 
ENDBRANCH  23  26
ENDBRANCH   1  22
BRANCH   5  29
HETATM   29  S   UNL     1       2.394  -4.821  -4.288  1.00  0.00    -0.085 SA
BRANCH  29  30
HETATM   30  C   UNL     1       1.086  -5.800  -4.835  1.00  0.00     0.168 A 
HETATM   31  N   UNL     1      -0.187  -5.521  -4.708  1.00  0.00    -0.223 NA
HETATM   32  C   UNL     1      -0.829  -6.580  -5.313  1.00  0.00     0.086 A 
HETATM   33  C   UNL     1       0.089  -7.502  -5.813  1.00  0.00     0.063 A 
HETATM   34  C   UNL     1      -2.200  -6.824  -5.477  1.00  0.00     0.034 A 
HETATM   35  N   UNL     1       1.312  -6.973  -5.490  1.00  0.00    -0.333 N 
HETATM   36  C   UNL     1      -0.282  -8.672  -6.478  1.00  0.00     0.032 A 
HETATM   37  H   UNL     1       2.214  -7.376  -5.695  1.00  0.00     0.168 HD
HETATM   38  C   UNL     1      -1.655  -8.897  -6.631  1.00  0.00     0.002 A 
HETATM   39  C   UNL     1      -2.599  -7.991  -6.140  1.00  0.00     0.002 A 
ENDBRANCH  29  30
ENDBRANCH   5  29
TORSDOF 9
