REMARK  6 active torsions:
REMARK  status: ('A' for Active; 'I' for Inactive)
REMARK    1  A    between atoms: C_2  and  N_3 
REMARK    2  A    between atoms: C_2  and  C_25 
REMARK    3  A    between atoms: C_7  and  N_8 
REMARK       I    between atoms: N_8  and  C_9 
REMARK       I    between atoms: C_9  and  N_10 
REMARK    4  A    between atoms: N_10  and  C_11 
REMARK    5  A    between atoms: C_11  and  C_12 
REMARK    6  A    between atoms: C_20  and  O_21 
ROOT
HETATM    1  N   UNL     1       2.529  -1.839  -2.066  1.00  0.00    -0.293 N 
HETATM    2  C   UNL     1       1.928  -2.759  -1.172  1.00  0.00     0.322 C 
HETATM    3  N   UNL     1       1.087  -2.184  -0.272  1.00  0.00    -0.337 N 
HETATM    4  O   UNL     1       2.102  -3.962  -1.234  1.00  0.00    -0.247 OA
HETATM    5  H   UNL     1       2.182  -0.893  -2.071  1.00  0.00     0.172 HD
HETATM    6  H   UNL     1       0.733  -2.883   0.370  1.00  0.00     0.164 HD
ENDROOT
BRANCH   3   7
HETATM    7  C   UNL     1       1.184  -0.845   0.257  1.00  0.00     0.181 C 
BRANCH   7   8
HETATM    8  C   UNL     1       0.503   0.115  -0.648  1.00  0.00     0.028 A 
HETATM    9  N   UNL     1      -0.640  -0.196  -1.350  1.00  0.00    -0.357 N 
HETATM   10  H   UNL     1      -1.116  -1.088  -1.325  1.00  0.00     0.166 HD
HETATM   11  C   UNL     1      -1.056   0.883  -2.094  1.00  0.00     0.043 A 
HETATM   12  C   UNL     1      -0.178   1.931  -1.828  1.00  0.00    -0.005 A 
HETATM   13  C   UNL     1      -2.144   1.017  -2.961  1.00  0.00     0.033 A 
HETATM   14  C   UNL     1       0.798   1.437  -0.921  1.00  0.00     0.040 A 
HETATM   15  C   UNL     1      -0.406   3.177  -2.439  1.00  0.00     0.050 A 
HETATM   16  C   UNL     1      -1.509   3.346  -3.288  1.00  0.00     0.069 A 
HETATM   17  C   UNL     1      -2.354   2.269  -3.554  1.00  0.00     0.039 A 
BRANCH  16  18
HETATM   18  O   UNL     1      -1.640   4.608  -3.801  1.00  0.00    -0.356 OA
HETATM   19  C   UNL     1      -2.893   4.926  -4.397  1.00  0.00     0.210 C 
ENDBRANCH  16  18
ENDBRANCH   7   8
ENDBRANCH   3   7
BRANCH   1  20
HETATM   20  C   UNL     1       3.513  -2.182  -2.987  1.00  0.00     0.129 A 
HETATM   21  N   UNL     1       4.054  -1.367  -3.963  1.00  0.00    -0.249 N 
HETATM   22  N   UNL     1       5.012  -1.980  -4.691  1.00  0.00    -0.183 NA
HETATM   23  C   UNL     1       5.078  -3.205  -4.173  1.00  0.00     0.142 A 
HETATM   24  C   UNL     1       4.173  -3.385  -3.114  1.00  0.00     0.071 A 
BRANCH  21  25
HETATM   25  C   UNL     1       3.711   0.015  -4.312  1.00  0.00     0.111 C 
HETATM   26  C   UNL     1       2.268   0.085  -4.823  1.00  0.00     0.035 C 
BRANCH  25  27
HETATM   27  C   UNL     1       4.028   1.025  -3.175  1.00  0.00     0.002 C 
HETATM   28  C   UNL     1       5.495   0.943  -2.733  1.00  0.00     0.011 C 
HETATM   29  C   UNL     1       3.718   2.468  -3.591  1.00  0.00     0.011 C 
ENDBRANCH  25  27
ENDBRANCH  21  25
ENDBRANCH   1  20
TORSDOF 6
