REMARK  6 active torsions:
REMARK  status: ('A' for Active; 'I' for Inactive)
REMARK    1  A    between atoms: O_2  and  C_3 
REMARK    2  A    between atoms: C_3  and  C_4 
REMARK    3  A    between atoms: C_4  and  N_5 
REMARK       I    between atoms: N_5  and  C_6 
REMARK    4  A    between atoms: C_6  and  C_7 
REMARK    5  A    between atoms: C_12  and  C_13 
REMARK    6  A    between atoms: C_22  and  C_23 
ROOT
HETATM    1  C   UNL     1       7.421  -0.074  -2.081  1.00  0.00     0.148 A 
HETATM    2  N   UNL     1       7.922  -1.166  -1.458  1.00  0.00    -0.165 NA
HETATM    3  N   UNL     1       8.649  -0.650  -0.452  1.00  0.00    -0.240 N 
HETATM    4  C   UNL     1       8.696   0.716  -0.444  1.00  0.00     0.123 A 
HETATM    5  N   UNL     1       9.438   1.399   0.452  1.00  0.00    -0.366 N 
HETATM    6  C   UNL     1      10.178   0.742   1.522  1.00  0.00     0.118 C 
HETATM    7  C   UNL     1      10.518  -0.712   1.139  1.00  0.00     0.066 C 
HETATM    8  C   UNL     1       9.365  -1.494   0.482  1.00  0.00     0.221 C 
HETATM    9  C   UNL     1       7.889   1.124  -1.472  1.00  0.00     0.088 A 
HETATM   10  H   UNL     1       9.405   2.417   0.494  1.00  0.00     0.161 HD
ENDROOT
BRANCH   1  11
HETATM   11  C   UNL     1       6.514  -0.169  -3.235  1.00  0.00     0.272 C 
HETATM   12  N   UNL     1       6.252  -1.462  -3.624  1.00  0.00    -0.354 N 
HETATM   13  H   UNL     1       6.586  -2.188  -2.993  1.00  0.00     0.162 HD
HETATM   14  O   UNL     1       6.035   0.818  -3.785  1.00  0.00    -0.266 OA
BRANCH  12  15
HETATM   15  C   UNL     1       5.214  -1.795  -4.577  1.00  0.00     0.149 C 
BRANCH  15  16
HETATM   16  C   UNL     1       5.521  -3.099  -5.309  1.00  0.00     0.186 C 
BRANCH  16  17
HETATM   17  O   UNL     1       5.537  -4.176  -4.366  1.00  0.00    -0.394 OA
HETATM   18  C   UNL     1       5.838  -5.415  -4.996  1.00  0.00     0.201 C 
ENDBRANCH  16  17
ENDBRANCH  15  16
ENDBRANCH  12  15
ENDBRANCH   1  11
BRANCH   8  19
HETATM   19  C   UNL     1       8.406  -2.113   1.474  1.00  0.00     0.409 C 
HETATM   20  F   UNL     1       7.585  -3.018   0.894  1.00  0.00    -0.169 F 
HETATM   21  F   UNL     1       9.100  -2.788   2.427  1.00  0.00    -0.169 F 
HETATM   22  F   UNL     1       7.632  -1.217   2.114  1.00  0.00    -0.169 F 
ENDBRANCH   8  19
BRANCH   6  23
HETATM   23  C   UNL     1       9.519   0.917   2.881  1.00  0.00    -0.034 A 
HETATM   24  C   UNL     1       8.198   1.377   3.037  1.00  0.00     0.034 A 
HETATM   25  C   UNL     1       7.631   1.546   4.307  1.00  0.00     0.056 A 
HETATM   26 CL   UNL     1       5.999   2.106   4.391  1.00  0.00    -0.083 Cl
HETATM   27  C   UNL     1       8.386   1.266   5.448  1.00  0.00     0.055 A 
HETATM   28 CL   UNL     1       7.763   1.460   7.047  1.00  0.00    -0.083 Cl
HETATM   29  C   UNL     1       9.701   0.817   5.312  1.00  0.00     0.026 A 
HETATM   30  C   UNL     1      10.261   0.644   4.042  1.00  0.00     0.011 A 
ENDBRANCH   6  23
TORSDOF 6
