REMARK  4 active torsions:
REMARK  status: ('A' for Active; 'I' for Inactive)
REMARK    1  A    between atoms: N_7  and  N_8 
REMARK       I    between atoms: N_8  and  C_9 
REMARK    2  A    between atoms: C_9  and  C_10 
REMARK    3  A    between atoms: C_15  and  C_16 
REMARK    4  A    between atoms: C_24  and  C_25 
ROOT
HETATM    1  C   UNL     1      -4.118   4.481   0.090  1.00  0.00     0.150 A 
HETATM    2  N   UNL     1      -2.767   4.550   0.108  1.00  0.00    -0.165 NA
HETATM    3  N   UNL     1      -2.521   5.870   0.097  1.00  0.00    -0.240 N 
HETATM    4  C   UNL     1      -3.639   6.646  -0.018  1.00  0.00     0.123 A 
HETATM    5  N   UNL     1      -3.552   7.983  -0.173  1.00  0.00    -0.366 N 
HETATM    6  C   UNL     1      -2.270   8.676  -0.280  1.00  0.00     0.118 C 
HETATM    7  C   UNL     1      -1.151   7.708  -0.717  1.00  0.00     0.066 C 
HETATM    8  C   UNL     1      -1.174   6.403   0.096  1.00  0.00     0.221 C 
HETATM    9  C   UNL     1      -4.699   5.781   0.035  1.00  0.00     0.089 A 
HETATM   10  H   UNL     1      -4.381   8.577  -0.150  1.00  0.00     0.161 HD
ENDROOT
BRANCH   1  11
HETATM   11  C   UNL     1      -4.840   3.199   0.091  1.00  0.00     0.292 C 
HETATM   12  N   UNL     1      -3.982   2.110   0.057  1.00  0.00    -0.241 N 
HETATM   13  H   UNL     1      -2.975   2.300   0.036  1.00  0.00     0.192 HD
HETATM   14  O   UNL     1      -6.067   3.140   0.102  1.00  0.00    -0.264 OA
BRANCH  12  15
HETATM   15  N   UNL     1      -4.461   0.833   0.020  1.00  0.00    -0.165 NA
HETATM   16  C   UNL     1      -3.585  -0.116  -0.055  1.00  0.00     0.157 A 
HETATM   17  C   UNL     1      -3.890  -1.541  -0.098  1.00  0.00     0.027 A 
HETATM   18  C   UNL     1      -2.056  -0.016  -0.121  1.00  0.00     0.277 A 
HETATM   19  C   UNL     1      -5.100  -2.204  -0.074  1.00  0.00     0.016 A 
HETATM   20  C   UNL     1      -2.670  -2.210  -0.174  1.00  0.00     0.048 A 
HETATM   21  C   UNL     1      -5.058  -3.599  -0.129  1.00  0.00     0.001 A 
HETATM   22  C   UNL     1      -3.826  -4.282  -0.204  1.00  0.00     0.002 A 
HETATM   23  C   UNL     1      -2.611  -3.586  -0.228  1.00  0.00     0.030 A 
HETATM   24  N   UNL     1      -1.603  -1.316  -0.186  1.00  0.00    -0.321 N 
HETATM   25  H   UNL     1      -0.625  -1.559  -0.238  1.00  0.00     0.169 HD
HETATM   26  O   UNL     1      -1.420   1.016  -0.118  1.00  0.00    -0.266 OA
ENDBRANCH  12  15
ENDBRANCH   1  11
BRANCH   8  27
HETATM   27  C   UNL     1      -0.694   6.594   1.517  1.00  0.00     0.409 C 
HETATM   28  F   UNL     1      -0.614   5.434   2.202  1.00  0.00    -0.169 F 
HETATM   29  F   UNL     1       0.557   7.125   1.509  1.00  0.00    -0.169 F 
HETATM   30  F   UNL     1      -1.463   7.443   2.233  1.00  0.00    -0.169 F 
ENDBRANCH   8  27
BRANCH   6  31
HETATM   31  C   UNL     1      -2.393   9.823  -1.272  1.00  0.00    -0.035 A 
HETATM   32  C   UNL     1      -1.855  11.083  -0.964  1.00  0.00     0.012 A 
HETATM   33  C   UNL     1      -1.947  12.135  -1.880  1.00  0.00     0.043 A 
HETATM   34  C   UNL     1      -2.573  11.930  -3.104  1.00  0.00     0.116 A 
HETATM   35  F   UNL     1      -2.659  12.940  -3.978  1.00  0.00    -0.206 F 
HETATM   36  C   UNL     1      -3.109  10.692  -3.433  1.00  0.00     0.043 A 
HETATM   37  C   UNL     1      -3.017   9.640  -2.522  1.00  0.00     0.012 A 
ENDBRANCH   6  31
TORSDOF 4
