REMARK  3 active torsions:
REMARK  status: ('A' for Active; 'I' for Inactive)
REMARK    1  A    between atoms: C_2  and  N_3 
REMARK    2  A    between atoms: C_2  and  C_14 
REMARK       I    between atoms: N_3  and  C_4 
REMARK    3  A    between atoms: C_4  and  C_5 
ROOT
HETATM    1  N   UNL     1       3.117   0.960  -0.739  1.00  0.00    -0.347 N 
HETATM    2  C   UNL     1       2.307   2.051  -0.936  1.00  0.00     0.268 C 
HETATM    3  O   UNL     1       1.146   2.105  -0.548  1.00  0.00    -0.266 OA
HETATM    4  H   UNL     1       4.091   1.016  -0.994  1.00  0.00     0.163 HD
ENDROOT
BRANCH   1   5
HETATM    5  C   UNL     1       2.686  -0.210   0.010  1.00  0.00     0.114 C 
HETATM    6  C   UNL     1       3.232  -1.460  -0.686  1.00  0.00     0.037 C 
BRANCH   5   7
HETATM    7  C   UNL     1       3.102  -0.168   1.473  1.00  0.00    -0.033 A 
HETATM    8  C   UNL     1       3.927   0.829   2.010  1.00  0.00     0.028 A 
HETATM    9  C   UNL     1       4.253   0.783   3.358  1.00  0.00     0.116 A 
HETATM   10  N   UNL     1       3.827  -0.177   4.205  1.00  0.00    -0.273 NA
HETATM   11  C   UNL     1       3.025  -1.125   3.682  1.00  0.00     0.116 A 
HETATM   12  C   UNL     1       2.638  -1.160   2.350  1.00  0.00     0.028 A 
ENDBRANCH   5   7
ENDBRANCH   1   5
BRANCH   2  13
HETATM   13  C   UNL     1       2.926   3.156  -1.636  1.00  0.00     0.103 A 
HETATM   14  N   UNL     1       2.244   4.342  -1.839  1.00  0.00    -0.341 N 
HETATM   15  H   UNL     1       1.298   4.518  -1.522  1.00  0.00     0.167 HD
HETATM   16  C   UNL     1       3.034   5.214  -2.518  1.00  0.00     0.126 A 
HETATM   17 CL   UNL     1       2.395   6.746  -2.875  1.00  0.00    -0.063 Cl
HETATM   18  C   UNL     1       4.237   4.623  -2.782  1.00  0.00     0.074 A 
HETATM   19 CL   UNL     1       5.574   5.263  -3.605  1.00  0.00    -0.081 Cl
HETATM   20  C   UNL     1       4.175   3.318  -2.226  1.00  0.00     0.062 A 
ENDBRANCH   2  13
TORSDOF 3
