REMARK  4 active torsions:
REMARK  status: ('A' for Active; 'I' for Inactive)
REMARK    1  A    between atoms: C_9  and  C_10 
REMARK    2  A    between atoms: C_20  and  C_21 
REMARK       I    between atoms: C_21  and  N_22 
REMARK    3  A    between atoms: N_22  and  C_23 
REMARK    4  A    between atoms: C_26  and  O_27 
ROOT
HETATM    1  C   UNL     1       0.238   0.161  -0.762  1.00  0.00     0.070 C 
HETATM    2  C   UNL     1       1.742   0.082  -0.678  1.00  0.00     0.037 A 
HETATM    3  N   UNL     1       2.400   1.301  -0.586  1.00  0.00    -0.192 N 
HETATM    4  C   UNL     1       3.731   1.417  -0.428  1.00  0.00     0.725 A 
HETATM    5  N   UNL     1       4.502   0.288  -0.332  1.00  0.00    -0.084 N 
HETATM    6  N   UNL     1       5.790   0.606  -0.078  1.00  0.00    -0.149 NA
HETATM    7  C   UNL     1       5.732   1.941  -0.116  1.00  0.00     0.275 A 
HETATM    8  N   UNL     1       4.488   2.478  -0.317  1.00  0.00    -0.054 NA
HETATM    9  C   UNL     1       3.966  -1.079  -0.367  1.00  0.00     0.203 A 
HETATM   10  C   UNL     1       2.456  -1.070  -0.638  1.00  0.00     0.062 A 
HETATM   11  H   UNL     1       1.839   2.149  -0.593  1.00  0.00     0.184 HD
ENDROOT
BRANCH  10  12
HETATM   12  C   UNL     1       1.853  -2.423  -0.799  1.00  0.00     0.256 C 
HETATM   13  N   UNL     1       1.143  -2.540  -1.978  1.00  0.00    -0.323 N 
HETATM   14  H   UNL     1       1.007  -1.699  -2.521  1.00  0.00     0.169 HD
HETATM   15  O   UNL     1       2.068  -3.283   0.040  1.00  0.00    -0.267 OA
BRANCH  13  16
HETATM   16  C   UNL     1       0.625  -3.715  -2.555  1.00  0.00     0.035 A 
HETATM   17  C   UNL     1       0.912  -4.998  -2.099  1.00  0.00     0.032 A 
HETATM   18  C   UNL     1       0.404  -6.113  -2.776  1.00  0.00     0.039 A 
HETATM   19  C   UNL     1      -0.407  -5.962  -3.904  1.00  0.00     0.068 A 
HETATM   20  C   UNL     1      -0.710  -4.679  -4.351  1.00  0.00     0.039 A 
HETATM   21  C   UNL     1      -0.189  -3.563  -3.685  1.00  0.00     0.032 A 
BRANCH  19  22
HETATM   22  O   UNL     1      -0.827  -7.132  -4.473  1.00  0.00    -0.356 OA
HETATM   23  C   UNL     1      -1.635  -7.027  -5.639  1.00  0.00     0.210 C 
ENDBRANCH  19  22
ENDBRANCH  13  16
ENDBRANCH  10  12
BRANCH   9  24
HETATM   24  C   UNL     1       4.792  -1.949  -1.325  1.00  0.00    -0.017 A 
HETATM   25  C   UNL     1       5.840  -2.804  -0.849  1.00  0.00    -0.017 A 
HETATM   26  C   UNL     1       6.509  -3.642  -1.779  1.00  0.00    -0.025 A 
HETATM   27  C   UNL     1       6.278  -2.872   0.499  1.00  0.00     0.013 A 
HETATM   28  C   UNL     1       7.530  -4.509  -1.350  1.00  0.00     0.012 A 
HETATM   29  C   UNL     1       6.162  -3.604  -3.135  1.00  0.00     0.012 A 
HETATM   30  C   UNL     1       7.923  -4.556  -0.016  1.00  0.00     0.001 A 
HETATM   31  C   UNL     1       7.301  -3.732   0.908  1.00  0.00     0.001 A 
HETATM   32  C   UNL     1       5.183  -2.734  -3.600  1.00  0.00     0.002 A 
HETATM   33  C   UNL     1       4.514  -1.904  -2.708  1.00  0.00     0.010 A 
ENDBRANCH   9  24
TORSDOF 4
