REMARK  10 active torsions:
REMARK  status: ('A' for Active; 'I' for Inactive)
REMARK    1  A    between atoms: C_2  and  C_3 
REMARK    2  A    between atoms: C_3  and  C_4 
REMARK    3  A    between atoms: N_7  and  C_9 
REMARK    4  A    between atoms: C_9  and  C_10 
REMARK    5  A    between atoms: C_11  and  O_12 
REMARK    6  A    between atoms: C_13  and  O_14 
REMARK    7  A    between atoms: O_14  and  C_15 
REMARK    8  A    between atoms: N_25  and  C_26 
REMARK    9  A    between atoms: C_26  and  C_27 
REMARK   10  A    between atoms: C_27  and  C_28 
ROOT
HETATM    1  C   UNL     1       4.280   0.798   1.252  1.00  0.00     0.026 C 
HETATM    2  C   UNL     1       5.017   2.026   1.827  1.00  0.00     0.035 C 
HETATM    3  C   UNL     1       4.997   3.250   0.926  1.00  0.00     0.235 C 
HETATM    4  N   UNL     1       5.462   2.918  -0.463  1.00  0.00    -0.067 N 
HETATM    5  H   UNL     1       6.492   2.817  -0.426  1.00  0.00     0.280 HD
HETATM    6  C   UNL     1       4.911   1.667  -1.081  1.00  0.00     0.235 C 
HETATM    7  C   UNL     1       4.924   0.493  -0.111  1.00  0.00     0.035 C 
ENDROOT
BRANCH   1   8
HETATM    8  C   UNL     1       2.710   0.870   1.248  1.00  0.00     0.119 A 
HETATM    9  N   UNL     1       2.195   1.907   0.385  1.00  0.00    -0.324 N 
HETATM   10  C   UNL     1       1.468   2.852   1.079  1.00  0.00     0.326 A 
HETATM   11  H   UNL     1       1.937   1.780  -0.587  1.00  0.00     0.165 HD
HETATM   12  O   UNL     1       0.919   3.774   0.506  1.00  0.00    -0.247 OA
HETATM   13  N   UNL     1       1.531   2.574   2.406  1.00  0.00    -0.268 N 
HETATM   14  C   UNL     1       2.215   1.403   2.609  1.00  0.00     0.256 A 
HETATM   15  O   UNL     1       2.448   0.876   3.687  1.00  0.00    -0.270 OA
BRANCH   8  16
HETATM   16  C   UNL     1       2.062  -0.496   0.934  1.00  0.00     0.037 C 
HETATM   17  C   UNL     1       0.534  -0.507   0.928  1.00  0.00     0.008 C 
ENDBRANCH   8  16
BRANCH  13  18
HETATM   18  C   UNL     1       1.014   3.368   3.514  1.00  0.00     0.142 C 
BRANCH  18  19
HETATM   19  C   UNL     1       0.131   4.563   3.150  1.00  0.00     0.068 C 
BRANCH  19  20
HETATM   20  C   UNL     1      -0.288   5.321   4.373  1.00  0.00     0.010 A 
HETATM   21  S   UNL     1       0.653   6.640   4.947  1.00  0.00    -0.085 SA
HETATM   22  C   UNL     1      -0.459   6.857   6.229  1.00  0.00     0.166 A 
HETATM   23  N   UNL     1      -1.470   6.019   6.260  1.00  0.00    -0.258 NA
HETATM   24  C   UNL     1      -1.388   5.138   5.195  1.00  0.00     0.044 A 
HETATM   25  C   UNL     1      -2.456   4.112   5.050  1.00  0.00     0.071 C 
ENDBRANCH  19  20
ENDBRANCH  18  19
ENDBRANCH  13  18
ENDBRANCH   1   8
BRANCH   4  26
HETATM   26  C   UNL     1       5.252   4.096  -1.400  1.00  0.00     0.276 C 
BRANCH  26  27
HETATM   27  C   UNL     1       6.146   5.270  -1.134  1.00  0.00     0.004 A 
HETATM   28  C   UNL     1       7.531   5.110  -1.067  1.00  0.00     0.107 A 
HETATM   29  C   UNL     1       8.378   6.214  -0.973  1.00  0.00     0.102 A 
HETATM   30  C   UNL     1       7.852   7.494  -0.847  1.00  0.00     0.039 A 
HETATM   31  C   UNL     1       6.468   7.669  -0.870  1.00  0.00     0.003 A 
HETATM   32  C   UNL     1       5.620   6.568  -1.031  1.00  0.00     0.012 A 
BRANCH  28  33
HETATM   33  O   UNL     1       8.056   3.842  -1.081  1.00  0.00    -0.357 OA
HETATM   34  H   UNL     1       9.024   3.971  -0.962  1.00  0.00     0.218 HD
ENDBRANCH  28  33
BRANCH  29  35
HETATM   35  O   UNL     1       9.732   6.021  -0.982  1.00  0.00    -0.349 OA
BRANCH  35  36
HETATM   36  C   UNL     1      10.237   6.028  -2.329  1.00  0.00     0.171 C 
HETATM   37  C   UNL     1      11.165   7.210  -2.523  1.00  0.00     0.034 C 
ENDBRANCH  35  36
ENDBRANCH  29  35
ENDBRANCH  26  27
ENDBRANCH   4  26
TORSDOF 10
