REMARK  3 active torsions:
REMARK  status: ('A' for Active; 'I' for Inactive)
REMARK    1  A    between atoms: C_3  and  N_4 
REMARK       I    between atoms: N_4  and  C_5 
REMARK       I    between atoms: C_5  and  N_6 
REMARK    2  A    between atoms: N_6  and  C_7 
REMARK    3  A    between atoms: C_7  and  C_8 
ROOT
HETATM    1  C   UNL     1       6.214   2.176   0.766  1.00  0.00    -0.036 A 
HETATM    2  C   UNL     1       5.433   2.093   1.927  1.00  0.00     0.011 A 
HETATM    3  C   UNL     1       5.981   1.630   3.130  1.00  0.00     0.023 A 
HETATM    4  C   UNL     1       7.320   1.237   3.191  1.00  0.00     0.044 A 
HETATM    5  C   UNL     1       7.880   0.763   4.422  1.00  0.00     0.099 C 
HETATM    6  N   UNL     1       8.338   0.378   5.417  1.00  0.00    -0.191 NA
HETATM    7  C   UNL     1       8.109   1.307   2.043  1.00  0.00     0.023 A 
HETATM    8  C   UNL     1       7.560   1.771   0.843  1.00  0.00     0.011 A 
ENDROOT
BRANCH   1   9
HETATM    9  C   UNL     1       5.671   2.653  -0.571  1.00  0.00     0.115 C 
HETATM   10  C   UNL     1       5.418   1.491  -1.534  1.00  0.00     0.037 C 
BRANCH   9  11
HETATM   11  N   UNL     1       4.594   3.637  -0.477  1.00  0.00    -0.335 N 
HETATM   12  C   UNL     1       3.252   3.588  -0.273  1.00  0.00     0.321 C 
HETATM   13  N   UNL     1       2.674   2.356  -0.261  1.00  0.00    -0.307 N 
HETATM   14  O   UNL     1       2.672   4.659  -0.135  1.00  0.00    -0.247 OA
HETATM   15  H   UNL     1       3.137   1.696  -0.860  1.00  0.00     0.170 HD
HETATM   16  H   UNL     1       4.906   4.599  -0.404  1.00  0.00     0.165 HD
BRANCH  13  17
HETATM   17  C   UNL     1       1.317   2.050   0.011  1.00  0.00     0.059 A 
HETATM   18  C   UNL     1       0.471   2.708   0.915  1.00  0.00    -0.032 A 
HETATM   19  C   UNL     1       0.887   3.823   1.832  1.00  0.00     0.050 C 
HETATM   20  C   UNL     1      -0.869   2.287   0.998  1.00  0.00     0.028 A 
HETATM   21  C   UNL     1      -1.300   1.205   0.247  1.00  0.00     0.117 A 
HETATM   22  N   UNL     1      -0.496   0.508  -0.574  1.00  0.00    -0.271 NA
HETATM   23  C   UNL     1       0.781   0.946  -0.668  1.00  0.00     0.146 A 
ENDBRANCH  13  17
ENDBRANCH   9  11
ENDBRANCH   1   9
TORSDOF 3
