REMARK  9 active torsions:
REMARK  status: ('A' for Active; 'I' for Inactive)
REMARK    1  A    between atoms: C_2  and  C_3 
REMARK    2  A    between atoms: C_3  and  C_4 
REMARK    3  A    between atoms: C_3  and  C_39 
REMARK    4  A    between atoms: C_6  and  C_7 
REMARK    5  A    between atoms: C_14  and  C_15 
REMARK    6  A    between atoms: C_18  and  C_19 
REMARK    7  A    between atoms: C_19  and  N_20 
REMARK       I    between atoms: N_20  and  C_21 
REMARK       I    between atoms: C_21  and  N_22 
REMARK    8  A    between atoms: N_22  and  C_23 
REMARK    9  A    between atoms: C_25  and  C_26 
ROOT
HETATM    1  C   UNL     1       1.815   3.127   5.651  1.00  0.00     0.068 C 
HETATM    2  C   UNL     1       1.333   4.592   5.454  1.00  0.00     0.001 C 
HETATM    3  C   UNL     1       0.550   5.062   6.703  1.00  0.00     0.040 C 
HETATM    4  C   UNL     1      -0.740   4.238   6.878  1.00  0.00     0.206 C 
HETATM    5  N   UNL     1      -0.655   3.087   5.881  1.00  0.00    -0.065 N 
HETATM    6  H   UNL     1      -1.446   2.438   6.084  1.00  0.00     0.280 HD
HETATM    7  C   UNL     1       0.608   2.251   6.034  1.00  0.00     0.246 C 
HETATM    8  C   UNL     1       0.361   4.604   4.251  1.00  0.00     0.033 C 
HETATM    9  C   UNL     1      -0.780   3.604   4.472  1.00  0.00     0.236 C 
ENDROOT
BRANCH   1  10
HETATM   10  C   UNL     1       2.971   3.018   6.622  1.00  0.00     0.045 A 
HETATM   11  N   UNL     1       2.690   2.798   7.924  1.00  0.00    -0.233 NA
HETATM   12  C   UNL     1       3.739   2.741   8.776  1.00  0.00     0.160 A 
HETATM   13  N   UNL     1       5.019   2.926   8.410  1.00  0.00    -0.233 NA
HETATM   14  C   UNL     1       5.275   3.151   7.107  1.00  0.00     0.043 A 
HETATM   15  C   UNL     1       4.265   3.204   6.167  1.00  0.00     0.055 A 
BRANCH  12  16
HETATM   16  C   UNL     1       3.473   2.472  10.201  1.00  0.00     0.014 A 
HETATM   17  C   UNL     1       4.491   2.567  11.163  1.00  0.00     0.034 A 
HETATM   18  C   UNL     1       4.200   2.313  12.494  1.00  0.00     0.117 A 
HETATM   19  N   UNL     1       2.974   1.974  12.938  1.00  0.00    -0.273 NA
HETATM   20  C   UNL     1       2.003   1.868  12.012  1.00  0.00     0.117 A 
HETATM   21  C   UNL     1       2.200   2.102  10.660  1.00  0.00     0.034 A 
ENDBRANCH  12  16
BRANCH  14  22
HETATM   22  C   UNL     1       6.719   3.392   6.700  1.00  0.00     0.037 C 
BRANCH  22  23
HETATM   23  C   UNL     1       7.647   2.257   7.186  1.00  0.00     0.006 C 
HETATM   24  C   UNL     1       7.324   0.906   6.560  1.00  0.00     0.006 C 
ENDBRANCH  22  23
BRANCH  22  25
HETATM   25  C   UNL     1       7.222   4.747   7.243  1.00  0.00     0.006 C 
HETATM   26  C   UNL     1       6.471   5.944   6.671  1.00  0.00     0.006 C 
ENDBRANCH  22  25
ENDBRANCH  14  22
ENDBRANCH   1  10
BRANCH   4  27
HETATM   27  C   UNL     1      -0.992   3.787   8.342  1.00  0.00     0.157 C 
BRANCH  27  28
HETATM   28  N   UNL     1      -2.336   3.281   8.640  1.00  0.00    -0.341 N 
HETATM   29  C   UNL     1      -2.822   2.130   8.066  1.00  0.00     0.320 C 
HETATM   30  N   UNL     1      -3.984   1.697   8.648  1.00  0.00    -0.309 N 
HETATM   31  O   UNL     1      -2.248   1.617   7.112  1.00  0.00    -0.247 OA
HETATM   32  H   UNL     1      -4.477   2.353   9.237  1.00  0.00     0.170 HD
HETATM   33  H   UNL     1      -2.647   3.428   9.593  1.00  0.00     0.164 HD
BRANCH  30  34
HETATM   34  C   UNL     1      -4.650   0.480   8.374  1.00  0.00     0.037 A 
HETATM   35  C   UNL     1      -4.095  -0.547   7.605  1.00  0.00     0.044 A 
HETATM   36  C   UNL     1      -4.798  -1.739   7.368  1.00  0.00     0.011 A 
HETATM   37  C   UNL     1      -6.073  -1.906   7.915  1.00  0.00     0.015 A 
HETATM   38  C   UNL     1      -6.629  -0.891   8.696  1.00  0.00     0.003 A 
HETATM   39  C   UNL     1      -5.921   0.293   8.927  1.00  0.00     0.029 A 
BRANCH  36  40
HETATM   40  C   UNL     1      -4.142  -2.783   6.526  1.00  0.00     0.155 C 
HETATM   41  C   UNL     1      -4.774  -4.146   6.424  1.00  0.00     0.096 C 
HETATM   42  O   UNL     1      -3.105  -2.514   5.921  1.00  0.00    -0.293 OA
ENDBRANCH  36  40
ENDBRANCH  30  34
ENDBRANCH  27  28
ENDBRANCH   4  27
TORSDOF 9
