REMARK  9 active torsions:
REMARK  status: ('A' for Active; 'I' for Inactive)
REMARK    1  A    between atoms: C_2  and  O_3 
REMARK    2  A    between atoms: O_3  and  C_4 
REMARK    3  A    between atoms: C_7  and  C_8 
REMARK       I    between atoms: C_8  and  N_9 
REMARK    4  A    between atoms: N_9  and  C_10 
REMARK    5  A    between atoms: C_10  and  N_11 
REMARK    6  A    between atoms: N_11  and  C_12 
REMARK    7  A    between atoms: C_15  and  N_16 
REMARK    8  A    between atoms: N_19  and  C_21 
REMARK    9  A    between atoms: C_21  and  C_22 
ROOT
HETATM    1  C   UNL     1       1.814   1.092  -4.401  1.00  0.00     0.034 C 
HETATM    2  C   UNL     1       0.690   1.818  -4.018  1.00  0.00     0.032 C 
HETATM    3  C   UNL     1       0.756   2.729  -2.959  1.00  0.00     0.031 C 
HETATM    4  C   UNL     1       1.957   2.980  -2.284  1.00  0.00     0.030 C 
HETATM    5  C   UNL     1       3.033   2.127  -2.594  1.00  0.00     0.031 C 
HETATM    6  C   UNL     1       2.965   1.184  -3.631  1.00  0.00     0.032 C 
ENDROOT
BRANCH   1   7
HETATM    7  N   UNL     1       1.806   0.254  -5.532  1.00  0.00    -0.333 N 
HETATM    8  H   UNL     1       2.415  -0.558  -5.510  1.00  0.00     0.168 HD
BRANCH   7   9
HETATM    9  C   UNL     1       1.022   0.375  -6.641  1.00  0.00     0.179 C 
HETATM   10  S   UNL     1       0.576  -0.978  -7.507  1.00  0.00    -0.040 SA
BRANCH   9  11
HETATM   11  N   UNL     1       0.619   1.612  -7.071  1.00  0.00    -0.299 N 
HETATM   12  C   UNL     1       1.374   2.774  -7.010  1.00  0.00     0.257 C 
HETATM   13  O   UNL     1       2.552   2.878  -6.688  1.00  0.00    -0.267 OA
HETATM   14  H   UNL     1      -0.096   1.591  -7.788  1.00  0.00     0.171 HD
BRANCH  12  15
HETATM   15  C   UNL     1       0.680   4.004  -7.430  1.00  0.00     0.032 A 
HETATM   16  C   UNL     1      -0.433   4.458  -6.720  1.00  0.00     0.020 A 
HETATM   17  C   UNL     1      -0.946   5.727  -6.997  1.00  0.00     0.038 A 
HETATM   18  C   UNL     1      -0.361   6.539  -7.977  1.00  0.00     0.069 A 
HETATM   19  C   UNL     1       0.710   6.048  -8.723  1.00  0.00     0.038 A 
HETATM   20  C   UNL     1       1.246   4.789  -8.437  1.00  0.00     0.020 A 
BRANCH  18  21
HETATM   21  O   UNL     1      -0.906   7.788  -8.070  1.00  0.00    -0.347 OA
BRANCH  21  22
HETATM   22  C   UNL     1      -0.341   8.737  -8.985  1.00  0.00     0.120 C 
HETATM   23  C   UNL     1       0.934   9.354  -8.410  1.00  0.00     0.040 C 
HETATM   24  C   UNL     1      -1.389   9.832  -9.179  1.00  0.00     0.040 C 
ENDBRANCH  21  22
ENDBRANCH  18  21
ENDBRANCH  12  15
ENDBRANCH   9  11
ENDBRANCH   7   9
ENDBRANCH   1   7
BRANCH   4  25
HETATM   25  N   UNL     1       2.113   4.016  -1.347  1.00  0.00    -0.378 N 
HETATM   26  C   UNL     1       0.939   4.823  -0.951  1.00  0.00     0.150 C 
HETATM   27  C   UNL     1       0.610   5.915  -1.997  1.00  0.00     0.255 C 
HETATM   28  N   UNL     1       1.839   6.763  -2.339  1.00  0.00    -0.064 N 
HETATM   29  H   UNL     1       2.066   7.307  -1.499  1.00  0.00     0.280 HD
HETATM   30  C   UNL     1       3.058   5.895  -2.672  1.00  0.00     0.255 C 
HETATM   31  C   UNL     1       3.315   4.862  -1.553  1.00  0.00     0.150 C 
BRANCH  28  32
HETATM   32  C   UNL     1       1.566   7.749  -3.454  1.00  0.00     0.273 C 
BRANCH  32  33
HETATM   33  C   UNL     1       0.530   8.777  -3.092  1.00  0.00    -0.033 A 
HETATM   34  C   UNL     1       0.844   9.828  -2.216  1.00  0.00     0.009 A 
HETATM   35  C   UNL     1      -0.130  10.761  -1.855  1.00  0.00     0.001 A 
HETATM   36  C   UNL     1      -1.424  10.652  -2.360  1.00  0.00     0.000 A 
HETATM   37  C   UNL     1      -1.747   9.616  -3.233  1.00  0.00     0.001 A 
HETATM   38  C   UNL     1      -0.775   8.684  -3.602  1.00  0.00     0.009 A 
ENDBRANCH  32  33
ENDBRANCH  28  32
ENDBRANCH   4  25
TORSDOF 9
