REMARK  8 active torsions:
REMARK  status: ('A' for Active; 'I' for Inactive)
REMARK    1  A    between atoms: C_4  and  N_5 
REMARK       I    between atoms: N_5  and  C_6 
REMARK    2  A    between atoms: C_6  and  C_7 
REMARK    3  A    between atoms: C_7  and  N_8 
REMARK       I    between atoms: N_8  and  C_9 
REMARK    4  A    between atoms: C_9  and  C_10 
REMARK    5  A    between atoms: C_10  and  S_11 
REMARK    6  A    between atoms: S_11  and  C_12 
REMARK    7  A    between atoms: C_14  and  C_15 
REMARK    8  A    between atoms: C_27  and  O_28 
ROOT
HETATM    1  N   UNL     1       2.097   3.200  -0.482  1.00  0.00    -0.352 N 
HETATM    2  C   UNL     1       1.863   2.677  -1.740  1.00  0.00     0.227 C 
HETATM    3  O   UNL     1       2.654   2.858  -2.662  1.00  0.00    -0.273 OA
HETATM    4  H   UNL     1       1.569   2.848   0.309  1.00  0.00     0.162 HD
ENDROOT
BRANCH   2   5
HETATM    5  C   UNL     1       0.556   1.903  -1.832  1.00  0.00     0.185 C 
BRANCH   5   6
HETATM    6  S   UNL     1       0.333   1.129  -3.458  1.00  0.00    -0.081 SA
BRANCH   6   7
HETATM    7  C   UNL     1      -1.263   0.522  -3.277  1.00  0.00     0.185 A 
HETATM    8  N   UNL     1      -2.043   0.588  -2.231  1.00  0.00    -0.201 NA
HETATM    9  C   UNL     1      -3.200  -0.038  -2.652  1.00  0.00     0.185 A 
HETATM   10  N   UNL     1      -3.140  -0.480  -3.924  1.00  0.00    -0.152 NA
HETATM   11  N   UNL     1      -1.900  -0.112  -4.290  1.00  0.00    -0.253 N 
HETATM   12  H   UNL     1      -1.563  -0.313  -5.223  1.00  0.00     0.191 HD
BRANCH   9  13
HETATM   13  C   UNL     1      -4.375  -0.192  -1.801  1.00  0.00     0.052 A 
HETATM   14  C   UNL     1      -4.373   0.219  -0.463  1.00  0.00     0.130 A 
HETATM   15  F   UNL     1      -3.286   0.770   0.098  1.00  0.00    -0.205 F 
HETATM   16  C   UNL     1      -5.504   0.069   0.342  1.00  0.00     0.043 A 
HETATM   17  C   UNL     1      -6.664  -0.499  -0.181  1.00  0.00     0.003 A 
HETATM   18  C   UNL     1      -6.688  -0.916  -1.510  1.00  0.00     0.001 A 
HETATM   19  C   UNL     1      -5.553  -0.764  -2.313  1.00  0.00     0.018 A 
ENDBRANCH   9  13
ENDBRANCH   6   7
ENDBRANCH   5   6
ENDBRANCH   2   5
BRANCH   1  20
HETATM   20  C   UNL     1       3.305   3.954  -0.202  1.00  0.00     0.225 C 
BRANCH  20  21
HETATM   21  C   UNL     1       4.452   3.018   0.184  1.00  0.00     0.239 C 
HETATM   22  N   UNL     1       5.052   2.435  -0.913  1.00  0.00    -0.323 N 
HETATM   23  H   UNL     1       4.609   2.583  -1.824  1.00  0.00     0.169 HD
HETATM   24  O   UNL     1       4.716   2.810   1.365  1.00  0.00    -0.271 OA
BRANCH  22  25
HETATM   25  C   UNL     1       6.169   1.570  -0.947  1.00  0.00     0.069 A 
HETATM   26  C   UNL     1       6.915   1.232   0.186  1.00  0.00     0.039 A 
HETATM   27  C   UNL     1       8.018   0.371   0.087  1.00  0.00    -0.060 A 
HETATM   28  C   UNL     1       8.834   0.047   1.304  1.00  0.00     0.048 C 
HETATM   29  C   UNL     1       8.383  -0.129  -1.165  1.00  0.00     0.009 A 
HETATM   30  C   UNL     1       7.648   0.205  -2.306  1.00  0.00     0.039 A 
HETATM   31  C   UNL     1       6.544   1.054  -2.205  1.00  0.00     0.095 A 
BRANCH  31  32
HETATM   32  O   UNL     1       5.761   1.454  -3.262  1.00  0.00    -0.354 OA
HETATM   33  C   UNL     1       6.123   0.988  -4.555  1.00  0.00     0.210 C 
ENDBRANCH  31  32
ENDBRANCH  22  25
ENDBRANCH  20  21
ENDBRANCH   1  20
TORSDOF 8
