REMARK  3 active torsions:
REMARK  status: ('A' for Active; 'I' for Inactive)
REMARK    1  A    between atoms: C_5  and  C_6 
REMARK    2  A    between atoms: C_10  and  N_11 
REMARK    3  A    between atoms: C_18  and  C_19 
ROOT
HETATM    1  C   UNL     1       6.866   0.333  -0.615  1.00  0.00     0.106 A 
HETATM    2  C   UNL     1       7.316   1.468  -1.540  1.00  0.00     0.081 A 
HETATM    3  C   UNL     1       7.115   2.796  -1.062  1.00  0.00     0.100 C 
HETATM    4  N   UNL     1       6.951   3.878  -0.677  1.00  0.00    -0.191 NA
HETATM    5  C   UNL     1       7.842   1.250  -2.777  1.00  0.00     0.140 A 
HETATM    6  O   UNL     1       8.011  -0.045  -3.296  1.00  0.00    -0.279 OA
HETATM    7  C   UNL     1       7.553  -1.043  -2.551  1.00  0.00     0.175 A 
HETATM    8  C   UNL     1       6.992  -0.984  -1.301  1.00  0.00     0.040 A 
HETATM    9  N   UNL     1       7.559  -2.346  -2.920  1.00  0.00    -0.256 N 
HETATM   10  H   UNL     1       7.901  -2.754  -3.782  1.00  0.00     0.191 HD
HETATM   11  N   UNL     1       7.025  -3.154  -1.987  1.00  0.00    -0.172 NA
HETATM   12  C   UNL     1       6.642  -2.328  -0.991  1.00  0.00     0.099 A 
ENDROOT
BRANCH   1  13
HETATM   13  C   UNL     1       7.705   0.253   0.654  1.00  0.00    -0.044 A 
HETATM   14  C   UNL     1       7.115   0.569   1.889  1.00  0.00     0.009 A 
HETATM   15  C   UNL     1       7.868   0.561   3.067  1.00  0.00     0.007 A 
HETATM   16  C   UNL     1       9.231   0.252   3.037  1.00  0.00    -0.062 A 
HETATM   17  C   UNL     1      10.032   0.218   4.305  1.00  0.00     0.048 C 
HETATM   18  C   UNL     1       9.824  -0.077   1.815  1.00  0.00     0.007 A 
HETATM   19  C   UNL     1       9.075  -0.065   0.636  1.00  0.00     0.009 A 
ENDBRANCH   1  13
BRANCH   5  20
HETATM   20  N   UNL     1       8.260   2.229  -3.651  1.00  0.00    -0.282 NA
HETATM   21  H   UNL     1       8.522   3.115  -3.223  1.00  0.00     0.126 HD
HETATM   22  H   UNL     1       8.954   1.884  -4.308  1.00  0.00     0.126 HD
ENDBRANCH   5  20
BRANCH  12  23
HETATM   23  C   UNL     1       5.977  -2.857   0.198  1.00  0.00    -0.005 A 
HETATM   24  C   UNL     1       6.441  -4.041   0.789  1.00  0.00     0.014 A 
HETATM   25  C   UNL     1       5.813  -4.564   1.922  1.00  0.00     0.001 A 
HETATM   26  C   UNL     1       4.711  -3.911   2.471  1.00  0.00     0.000 A 
HETATM   27  C   UNL     1       4.234  -2.739   1.885  1.00  0.00     0.001 A 
HETATM   28  C   UNL     1       4.861  -2.217   0.751  1.00  0.00     0.014 A 
ENDBRANCH  12  23
TORSDOF 3
