REMARK  8 active torsions:
REMARK  status: ('A' for Active; 'I' for Inactive)
REMARK    1  A    between atoms: C_2  and  O_3 
REMARK    2  A    between atoms: C_2  and  C_14 
REMARK    3  A    between atoms: O_3  and  C_4 
REMARK       I    between atoms: C_14  and  N_15 
REMARK    4  A    between atoms: N_15  and  N_16 
REMARK       I    between atoms: N_16  and  C_17 
REMARK    5  A    between atoms: C_17  and  C_18 
REMARK    6  A    between atoms: C_18  and  C_19 
REMARK    7  A    between atoms: C_19  and  C_20 
REMARK    8  A    between atoms: C_20  and  C_21 
ROOT
HETATM    1  N   UNL     1       0.612  -1.448  -1.462  1.00  0.00    -0.267 N 
HETATM    2  C   UNL     1      -0.326  -1.759  -0.490  1.00  0.00     0.236 C 
HETATM    3  O   UNL     1      -0.080  -2.455   0.490  1.00  0.00    -0.272 OA
HETATM    4  H   UNL     1       0.468  -0.608  -2.023  1.00  0.00     0.190 HD
ENDROOT
BRANCH   1   5
HETATM    5  N   UNL     1       1.962  -1.717  -1.174  1.00  0.00    -0.265 N 
HETATM    6  C   UNL     1       2.772  -0.624  -0.900  1.00  0.00     0.265 C 
HETATM    7  O   UNL     1       2.362   0.532  -1.016  1.00  0.00    -0.269 OA
HETATM    8  H   UNL     1       2.161  -2.630  -0.770  1.00  0.00     0.190 HD
BRANCH   6   9
HETATM    9  C   UNL     1       4.211  -0.994  -0.520  1.00  0.00     0.218 C 
HETATM   10  C   UNL     1       4.868   0.159   0.228  1.00  0.00     0.050 C 
BRANCH   9  11
HETATM   11  O   UNL     1       4.852  -1.205  -1.782  1.00  0.00    -0.337 OA
BRANCH  11  12
HETATM   12  C   UNL     1       5.874  -2.102  -1.878  1.00  0.00     0.070 A 
HETATM   13  C   UNL     1       6.197  -2.465  -3.190  1.00  0.00     0.049 A 
HETATM   14  C   UNL     1       7.233  -3.371  -3.465  1.00  0.00    -0.023 A 
HETATM   15  C   UNL     1       7.973  -3.914  -2.393  1.00  0.00    -0.026 A 
HETATM   16  C   UNL     1       7.549  -3.748  -4.781  1.00  0.00     0.012 A 
HETATM   17  C   UNL     1       7.650  -3.534  -1.080  1.00  0.00     0.015 A 
HETATM   18  C   UNL     1       9.015  -4.816  -2.666  1.00  0.00     0.012 A 
HETATM   19  C   UNL     1       6.607  -2.636  -0.823  1.00  0.00     0.037 A 
HETATM   20  C   UNL     1       9.316  -5.182  -3.980  1.00  0.00     0.001 A 
HETATM   21  C   UNL     1       8.583  -4.650  -5.036  1.00  0.00     0.001 A 
ENDBRANCH  11  12
ENDBRANCH   9  11
ENDBRANCH   6   9
ENDBRANCH   1   5
BRANCH   2  22
HETATM   22  C   UNL     1      -1.691  -1.180  -0.815  1.00  0.00     0.105 C 
BRANCH  22  23
HETATM   23  C   UNL     1      -2.739  -1.416   0.269  1.00  0.00     0.014 C 
BRANCH  23  24
HETATM   24  C   UNL     1      -2.564  -0.473   1.463  1.00  0.00     0.039 C 
BRANCH  24  25
HETATM   25  C   UNL     1      -3.637  -0.706   2.502  1.00  0.00    -0.056 A 
HETATM   26  C   UNL     1      -3.409  -1.618   3.547  1.00  0.00     0.039 A 
HETATM   27  C   UNL     1      -4.435  -1.813   4.441  1.00  0.00     0.063 A 
HETATM   28  C   UNL     1      -5.655  -1.150   4.331  1.00  0.00     0.063 A 
HETATM   29  N   UNL     1      -4.498  -2.643   5.555  1.00  0.00    -0.306 N 
HETATM   30  N   UNL     1      -6.469  -1.572   5.376  1.00  0.00    -0.307 N 
HETATM   31  C   UNL     1      -5.914  -0.255   3.322  1.00  0.00     0.032 A 
HETATM   32  C   UNL     1      -5.761  -2.505   6.148  1.00  0.00     0.325 A 
HETATM   33  H   UNL     1      -7.412  -1.283   5.572  1.00  0.00     0.170 HD
HETATM   34  O   UNL     1      -6.166  -3.083   7.141  1.00  0.00    -0.247 OA
HETATM   35  C   UNL     1      -4.885  -0.036   2.397  1.00  0.00     0.009 A 
HETATM   36  H   UNL     1      -3.778  -3.254   5.900  1.00  0.00     0.170 HD
ENDBRANCH  24  25
ENDBRANCH  23  24
ENDBRANCH  22  23
ENDBRANCH   2  22
TORSDOF 8
