REMARK  5 active torsions:
REMARK  status: ('A' for Active; 'I' for Inactive)
REMARK    1  A    between atoms: C_4  and  O_5 
REMARK    2  A    between atoms: O_5  and  C_6 
REMARK    3  A    between atoms: C_6  and  C_7 
REMARK    4  A    between atoms: C_11  and  N_12 
REMARK       I    between atoms: N_12  and  C_13 
REMARK       I    between atoms: C_13  and  N_14 
REMARK    5  A    between atoms: N_14  and  C_15 
ROOT
HETATM    1  N   UNL     1       6.668  -0.165  -0.318  1.00  0.00    -0.306 N 
HETATM    2  C   UNL     1       7.368  -1.232   0.172  1.00  0.00     0.325 C 
HETATM    3  N   UNL     1       6.642  -2.269   0.677  1.00  0.00    -0.305 N 
HETATM    4  O   UNL     1       8.592  -1.128   0.189  1.00  0.00    -0.247 OA
HETATM    5  H   UNL     1       7.245   0.668  -0.298  1.00  0.00     0.171 HD
HETATM    6  H   UNL     1       5.642  -2.202   0.617  1.00  0.00     0.171 HD
ENDROOT
BRANCH   1   7
HETATM    7  C   UNL     1       5.316   0.035  -0.649  1.00  0.00     0.069 A 
HETATM    8  C   UNL     1       4.826   1.349  -0.604  1.00  0.00     0.096 A 
HETATM    9  C   UNL     1       3.475   1.625  -0.819  1.00  0.00     0.046 A 
HETATM   10  C   UNL     1       2.601   0.591  -1.170  1.00  0.00    -0.059 A 
HETATM   11  C   UNL     1       1.135   0.858  -1.344  1.00  0.00     0.048 C 
HETATM   12  C   UNL     1       3.105  -0.708  -1.304  1.00  0.00     0.009 A 
HETATM   13  C   UNL     1       4.456  -0.984  -1.059  1.00  0.00     0.033 A 
BRANCH   8  14
HETATM   14  O   UNL     1       5.656   2.381  -0.242  1.00  0.00    -0.340 OA
BRANCH  14  15
HETATM   15  C   UNL     1       6.249   2.996  -1.402  1.00  0.00     0.293 C 
BRANCH  15  16
HETATM   16  C   UNL     1       5.949   4.485  -1.452  1.00  0.00     0.408 C 
HETATM   17  F   UNL     1       6.368   5.121  -0.336  1.00  0.00    -0.169 F 
HETATM   18  F   UNL     1       6.579   5.057  -2.505  1.00  0.00    -0.169 F 
HETATM   19  F   UNL     1       4.626   4.720  -1.597  1.00  0.00    -0.169 F 
ENDBRANCH  15  16
ENDBRANCH  14  15
ENDBRANCH   8  14
ENDBRANCH   1   7
BRANCH   3  20
HETATM   20  C   UNL     1       7.113  -3.365   1.380  1.00  0.00     0.086 A 
HETATM   21  C   UNL     1       8.376  -3.708   1.948  1.00  0.00     0.079 A 
HETATM   22  C   UNL     1       9.646  -2.942   2.016  1.00  0.00     0.075 C 
HETATM   23  N   UNL     1       8.329  -4.904   2.555  1.00  0.00    -0.177 NA
HETATM   24  N   UNL     1       7.068  -5.310   2.390  1.00  0.00    -0.280 N 
HETATM   25  H   UNL     1       6.805  -6.210   2.779  1.00  0.00     0.189 HD
HETATM   26  C   UNL     1       6.286  -4.424   1.708  1.00  0.00     0.052 A 
HETATM   27  C   UNL     1       4.861  -4.711   1.422  1.00  0.00     0.072 C 
ENDBRANCH   3  20
TORSDOF 5
