REMARK  7 active torsions:
REMARK  status: ('A' for Active; 'I' for Inactive)
REMARK    1  A    between atoms: C_2  and  N_3 
REMARK    2  A    between atoms: C_2  and  C_17 
REMARK       I    between atoms: N_3  and  C_4 
REMARK    3  A    between atoms: C_4  and  C_5 
REMARK    4  A    between atoms: C_6  and  N_7 
REMARK    5  A    between atoms: C_17  and  O_18 
REMARK    6  A    between atoms: C_17  and  C_19 
REMARK    7  A    between atoms: C_22  and  O_23 
ROOT
HETATM    1  N   UNL     1       2.730  -1.831   2.421  1.00  0.00    -0.350 N 
HETATM    2  C   UNL     1       2.640  -0.682   3.181  1.00  0.00     0.255 C 
HETATM    3  O   UNL     1       1.946   0.292   2.931  1.00  0.00    -0.268 OA
HETATM    4  H   UNL     1       3.335  -2.578   2.739  1.00  0.00     0.163 HD
ENDROOT
BRANCH   1   5
HETATM    5  C   UNL     1       2.065  -2.018   1.118  1.00  0.00     0.114 C 
HETATM    6  C   UNL     1       0.564  -1.725   1.206  1.00  0.00     0.035 C 
BRANCH   5   7
HETATM    7  C   UNL     1       2.804  -1.283  -0.046  1.00  0.00     0.173 C 
BRANCH   7   8
HETATM    8  O   UNL     1       2.806   0.133   0.117  1.00  0.00    -0.389 OA
HETATM    9  H   UNL     1       3.055   0.531  -0.733  1.00  0.00     0.210 HD
ENDBRANCH   7   8
BRANCH   7  10
HETATM   10  C   UNL     1       2.269  -1.642  -1.422  1.00  0.00    -0.028 A 
HETATM   11  C   UNL     1       2.839  -2.689  -2.156  1.00  0.00     0.012 A 
HETATM   12  C   UNL     1       2.328  -3.033  -3.411  1.00  0.00     0.037 A 
HETATM   13  C   UNL     1       1.239  -2.347  -3.954  1.00  0.00     0.068 A 
HETATM   14  C   UNL     1       0.669  -1.300  -3.234  1.00  0.00     0.037 A 
HETATM   15  C   UNL     1       1.180  -0.951  -1.980  1.00  0.00     0.012 A 
BRANCH  13  16
HETATM   16  O   UNL     1       0.835  -2.791  -5.183  1.00  0.00    -0.356 OA
HETATM   17  C   UNL     1      -0.330  -2.186  -5.730  1.00  0.00     0.210 C 
ENDBRANCH  13  16
ENDBRANCH   7  10
ENDBRANCH   5   7
ENDBRANCH   1   5
BRANCH   2  18
HETATM   18  C   UNL     1       3.453  -0.678   4.409  1.00  0.00     0.079 A 
HETATM   19  C   UNL     1       2.965  -0.355   5.678  1.00  0.00     0.165 A 
HETATM   20  N   UNL     1       3.820  -0.203   6.742  1.00  0.00    -0.241 NA
HETATM   21  C   UNL     1       5.142  -0.383   6.550  1.00  0.00     0.119 A 
HETATM   22  C   UNL     1       5.695  -0.716   5.331  1.00  0.00     0.020 A 
HETATM   23  C   UNL     1       4.839  -0.855   4.245  1.00  0.00     0.022 A 
BRANCH  19  24
HETATM   24  N   UNL     1       1.563  -0.215   5.977  1.00  0.00    -0.226 N 
HETATM   25  N   UNL     1       1.172   0.359   7.158  1.00  0.00    -0.179 NA
HETATM   26  C   UNL     1      -0.159   0.357   7.122  1.00  0.00     0.141 A 
HETATM   27  C   UNL     1      -0.664  -0.280   5.984  1.00  0.00     0.040 A 
HETATM   28  C   UNL     1       0.454  -0.675   5.289  1.00  0.00     0.122 A 
ENDBRANCH  19  24
ENDBRANCH   2  18
TORSDOF 7
