REMARK  4 active torsions:
REMARK  status: ('A' for Active; 'I' for Inactive)
REMARK    1  A    between atoms: C_8  and  C_9 
REMARK    2  A    between atoms: C_12  and  N_13 
REMARK       I    between atoms: N_13  and  C_14 
REMARK    3  A    between atoms: C_14  and  C_15 
REMARK    4  A    between atoms: C_18  and  N_19 
ROOT
HETATM    1  C   UNL     1       7.995   2.439  -0.143  1.00  0.00     0.010 A 
HETATM    2  C   UNL     1       8.088   3.833  -0.227  1.00  0.00     0.017 A 
HETATM    3  C   UNL     1       9.331   4.464  -0.390  1.00  0.00     0.030 A 
HETATM    4  C   UNL     1      10.504   3.714  -0.477  1.00  0.00     0.035 A 
HETATM    5  C   UNL     1      10.423   2.326  -0.340  1.00  0.00     0.030 A 
HETATM    6  C   UNL     1       9.183   1.697  -0.173  1.00  0.00     0.017 A 
ENDROOT
BRANCH   4   7
HETATM    7  N   UNL     1      11.776   4.261  -0.751  1.00  0.00    -0.323 N 
HETATM    8  C   UNL     1      12.078   5.588  -1.005  1.00  0.00     0.256 C 
HETATM    9  O   UNL     1      11.314   6.542  -0.918  1.00  0.00    -0.267 OA
HETATM   10  H   UNL     1      12.509   3.581  -0.898  1.00  0.00     0.169 HD
BRANCH   8  11
HETATM   11  C   UNL     1      13.462   5.838  -1.503  1.00  0.00     0.032 A 
HETATM   12  C   UNL     1      14.562   5.079  -1.107  1.00  0.00     0.019 A 
HETATM   13  C   UNL     1      15.826   5.321  -1.671  1.00  0.00     0.031 A 
HETATM   14  C   UNL     1      16.033   6.325  -2.635  1.00  0.00     0.045 A 
HETATM   15  C   UNL     1      14.917   7.103  -2.984  1.00  0.00     0.031 A 
HETATM   16  C   UNL     1      13.652   6.867  -2.426  1.00  0.00     0.019 A 
BRANCH  14  17
HETATM   17  N   UNL     1      17.315   6.536  -3.241  1.00  0.00    -0.252 N 
HETATM   18  C   UNL     1      18.378   5.661  -3.149  1.00  0.00     0.231 C 
HETATM   19  O   UNL     1      18.435   4.556  -2.628  1.00  0.00    -0.273 OA
HETATM   20  C   UNL     1      19.575   6.270  -3.814  1.00  0.00     0.113 C 
HETATM   21  C   UNL     1      19.006   7.410  -4.613  1.00  0.00     0.113 C 
HETATM   22  C   UNL     1      17.647   7.625  -4.020  1.00  0.00     0.231 C 
HETATM   23  O   UNL     1      17.004   8.638  -4.262  1.00  0.00    -0.273 OA
ENDBRANCH  14  17
ENDBRANCH   8  11
ENDBRANCH   4   7
BRANCH   1  24
HETATM   24  C   UNL     1       6.713   1.728  -0.073  1.00  0.00     0.139 A 
HETATM   25  N   UNL     1       5.480   2.323  -0.232  1.00  0.00    -0.338 N 
HETATM   26  C   UNL     1       4.512   1.353  -0.228  1.00  0.00     0.063 A 
HETATM   27  H   UNL     1       5.317   3.306  -0.385  1.00  0.00     0.167 HD
HETATM   28  C   UNL     1       5.215   0.175  -0.024  1.00  0.00     0.086 A 
HETATM   29  C   UNL     1       3.128   1.401  -0.394  1.00  0.00     0.032 A 
HETATM   30  C   UNL     1       4.519  -1.041   0.026  1.00  0.00     0.040 A 
HETATM   31  N   UNL     1       6.561   0.423   0.082  1.00  0.00    -0.228 NA
HETATM   32  C   UNL     1       3.122  -1.036  -0.137  1.00  0.00    -0.060 A 
HETATM   33  C   UNL     1       2.354  -2.326  -0.131  1.00  0.00     0.048 C 
HETATM   34  C   UNL     1       2.448   0.177  -0.350  1.00  0.00     0.009 A 
ENDBRANCH   1  24
TORSDOF 4
