REMARK  9 active torsions:
REMARK  status: ('A' for Active; 'I' for Inactive)
REMARK    1  A    between atoms: C_2  and  O_3 
REMARK    2  A    between atoms: O_3  and  C_4 
REMARK    3  A    between atoms: C_4  and  C_5 
REMARK    4  A    between atoms: C_8  and  N_9 
REMARK       I    between atoms: N_9  and  C_10 
REMARK    5  A    between atoms: C_10  and  C_11 
REMARK    6  A    between atoms: C_13  and  N_14 
REMARK    7  A    between atoms: N_17  and  C_19 
REMARK    8  A    between atoms: C_19  and  C_20 
REMARK    9  A    between atoms: C_19  and  C_26 
ROOT
HETATM    1  C   UNL     1       9.994   0.768   1.545  1.00  0.00     0.164 C 
HETATM    2  N   UNL     1       9.188  -0.417   1.886  1.00  0.00    -0.249 NA
HETATM    3  C   UNL     1       9.253  -1.542   1.130  1.00  0.00     0.181 C 
HETATM    4  N   UNL     1      10.176  -1.788   0.261  1.00  0.00    -0.185 NA
HETATM    5  C   UNL     1      11.119  -0.803   0.093  1.00  0.00     0.247 C 
HETATM    6  O   UNL     1      12.291  -1.042  -0.174  1.00  0.00    -0.271 OA
HETATM    7  C   UNL     1      10.615   0.611   0.177  1.00  0.00     0.134 C 
HETATM    8  H   UNL     1       8.223  -0.119   2.066  1.00  0.00     0.131 HD
ENDROOT
BRANCH   3   9
HETATM    9  N   UNL     1       8.203  -2.405   1.354  1.00  0.00    -0.353 N 
HETATM   10  C   UNL     1       7.646  -2.616   2.706  1.00  0.00     0.153 C 
HETATM   11  C   UNL     1       8.241  -3.892   3.334  1.00  0.00     0.256 C 
HETATM   12  N   UNL     1       7.937  -5.081   2.422  1.00  0.00    -0.056 N 
HETATM   13  H   UNL     1       6.935  -5.074   2.220  1.00  0.00     0.281 HD
HETATM   14  C   UNL     1       8.609  -4.844   1.062  1.00  0.00     0.256 C 
HETATM   15  C   UNL     1       8.024  -3.557   0.443  1.00  0.00     0.153 C 
BRANCH  12  16
HETATM   16  C   UNL     1       8.194  -6.458   3.024  1.00  0.00     0.254 C 
BRANCH  16  17
HETATM   17  C   UNL     1       9.654  -6.666   3.415  1.00  0.00    -0.023 A 
HETATM   18  C   UNL     1      10.163  -6.229   4.651  1.00  0.00     0.009 A 
HETATM   19  C   UNL     1      11.504  -6.429   4.981  1.00  0.00     0.001 A 
HETATM   20  C   UNL     1      12.356  -7.069   4.085  1.00  0.00     0.000 A 
HETATM   21  C   UNL     1      11.870  -7.513   2.858  1.00  0.00     0.001 A 
HETATM   22  C   UNL     1      10.530  -7.315   2.524  1.00  0.00     0.009 A 
ENDBRANCH  16  17
BRANCH  16  23
HETATM   23  C   UNL     1       7.173  -6.894   4.093  1.00  0.00    -0.023 A 
HETATM   24  C   UNL     1       5.992  -6.182   4.383  1.00  0.00     0.009 A 
HETATM   25  C   UNL     1       5.085  -6.642   5.344  1.00  0.00     0.001 A 
HETATM   26  C   UNL     1       5.325  -7.831   6.023  1.00  0.00     0.000 A 
HETATM   27  C   UNL     1       6.466  -8.570   5.735  1.00  0.00     0.001 A 
HETATM   28  C   UNL     1       7.373  -8.113   4.774  1.00  0.00     0.009 A 
ENDBRANCH  16  23
ENDBRANCH  12  16
ENDBRANCH   3   9
BRANCH   1  29
HETATM   29  C   UNL     1       9.043   1.985   1.606  1.00  0.00     0.240 C 
HETATM   30  N   UNL     1       9.642   3.215   1.416  1.00  0.00    -0.326 N 
HETATM   31  H   UNL     1      10.633   3.238   1.206  1.00  0.00     0.169 HD
HETATM   32  O   UNL     1       7.849   1.786   1.846  1.00  0.00    -0.271 OA
BRANCH  30  33
HETATM   33  C   UNL     1       9.013   4.480   1.506  1.00  0.00     0.034 A 
HETATM   34  C   UNL     1       7.670   4.660   1.848  1.00  0.00     0.030 A 
HETATM   35  C   UNL     1       7.122   5.944   1.942  1.00  0.00     0.020 A 
HETATM   36  C   UNL     1       7.906   7.074   1.692  1.00  0.00     0.039 A 
HETATM   37  C   UNL     1       9.249   6.901   1.341  1.00  0.00     0.020 A 
HETATM   38  C   UNL     1       9.796   5.613   1.251  1.00  0.00     0.030 A 
BRANCH  36  39
HETATM   39  C   UNL     1       7.264   8.410   1.826  1.00  0.00     0.293 C 
HETATM   40  O   UNL     1       6.102   8.561   2.165  1.00  0.00    -0.259 OA
BRANCH  39  41
HETATM   41  O   UNL     1       8.144   9.396   1.523  1.00  0.00    -0.318 OA
BRANCH  41  42
HETATM   42  C   UNL     1       7.634  10.734   1.640  1.00  0.00     0.174 C 
HETATM   43  C   UNL     1       6.928  11.143   0.362  1.00  0.00     0.034 C 
ENDBRANCH  41  42
ENDBRANCH  39  41
ENDBRANCH  36  39
ENDBRANCH  30  33
ENDBRANCH   1  29
TORSDOF 9
