REMARK  6 active torsions:
REMARK  status: ('A' for Active; 'I' for Inactive)
REMARK    1  A    between atoms: C_2  and  N_3 
REMARK    2  A    between atoms: C_5  and  C_6 
REMARK    3  A    between atoms: C_6  and  N_7 
REMARK       I    between atoms: N_7  and  C_8 
REMARK    4  A    between atoms: C_8  and  C_9 
REMARK    5  A    between atoms: C_9  and  C_10 
REMARK    6  A    between atoms: C_11  and  C_12 
ROOT
HETATM    1  C   UNL     1       7.377   2.144  -1.489  1.00  0.00     0.006 A 
HETATM    2  C   UNL     1       7.585   3.317  -2.293  1.00  0.00     0.096 A 
HETATM    3  N   UNL     1       7.944   2.989  -3.540  1.00  0.00    -0.173 NA
HETATM    4  N   UNL     1       7.978   1.657  -3.549  1.00  0.00    -0.282 N 
HETATM    5  H   UNL     1       8.232   1.197  -4.417  1.00  0.00     0.189 HD
HETATM    6  C   UNL     1       7.619   1.088  -2.359  1.00  0.00     0.033 A 
HETATM    7  C   UNL     1       7.542  -0.384  -2.217  1.00  0.00     0.070 C 
ENDROOT
BRANCH   1   8
HETATM    8  C   UNL     1       6.896   2.116  -0.071  1.00  0.00     0.146 C 
BRANCH   8   9
HETATM    9  C   UNL     1       7.371   0.905   0.721  1.00  0.00     0.222 C 
HETATM   10  N   UNL     1       6.369   0.031   1.096  1.00  0.00    -0.359 N 
HETATM   11  H   UNL     1       5.412   0.323   0.915  1.00  0.00     0.162 HD
HETATM   12  O   UNL     1       8.554   0.693   0.991  1.00  0.00    -0.273 OA
BRANCH  10  13
HETATM   13  C   UNL     1       6.537  -1.168   1.915  1.00  0.00     0.155 C 
BRANCH  13  14
HETATM   14  C   UNL     1       7.792  -2.014   1.630  1.00  0.00     0.206 C 
HETATM   15  N   UNL     1       9.103  -1.483   2.196  1.00  0.00    -0.066 N 
HETATM   16  H   UNL     1       9.329  -0.652   1.605  1.00  0.00     0.280 HD
HETATM   17  C   UNL     1      10.064  -2.619   1.944  1.00  0.00     0.235 C 
HETATM   18  C   UNL     1       9.217  -3.886   2.062  1.00  0.00     0.030 C 
HETATM   19  C   UNL     1       7.765  -3.431   2.172  1.00  0.00     0.036 C 
BRANCH  15  20
HETATM   20  C   UNL     1       9.102  -0.977   3.618  1.00  0.00     0.231 C 
HETATM   21  C   UNL     1      10.396  -0.243   3.932  1.00  0.00     0.034 C 
ENDBRANCH  15  20
ENDBRANCH  13  14
ENDBRANCH  10  13
ENDBRANCH   8   9
ENDBRANCH   1   8
BRANCH   2  22
HETATM   22  C   UNL     1       7.402   4.724  -1.942  1.00  0.00    -0.005 A 
HETATM   23  C   UNL     1       8.078   5.295  -0.855  1.00  0.00     0.017 A 
HETATM   24  C   UNL     1       7.890   6.644  -0.542  1.00  0.00     0.043 A 
HETATM   25  C   UNL     1       7.037   7.419  -1.321  1.00  0.00     0.116 A 
HETATM   26  F   UNL     1       6.861   8.711  -1.018  1.00  0.00    -0.206 F 
HETATM   27  C   UNL     1       6.371   6.875  -2.411  1.00  0.00     0.043 A 
HETATM   28  C   UNL     1       6.556   5.527  -2.724  1.00  0.00     0.017 A 
ENDBRANCH   2  22
TORSDOF 6
