REMARK  3 active torsions:
REMARK  status: ('A' for Active; 'I' for Inactive)
REMARK    1  A    between atoms: C_7  and  C_8 
REMARK       I    between atoms: C_8  and  N_9 
REMARK    2  A    between atoms: N_9  and  C_10 
REMARK    3  A    between atoms: C_17  and  C_18 
REMARK       I    between atoms: C_18  and  N_19 
ROOT
HETATM    1  C   UNL     1       2.616  -2.611  -0.169  1.00  0.00     0.258 C 
HETATM    2  N   UNL     1       3.537  -3.590  -0.507  1.00  0.00    -0.323 N 
HETATM    3  O   UNL     1       1.431  -2.802   0.072  1.00  0.00    -0.267 OA
HETATM    4  H   UNL     1       4.512  -3.332  -0.559  1.00  0.00     0.169 HD
ENDROOT
BRANCH   2   5
HETATM    5  C   UNL     1       3.264  -4.940  -0.822  1.00  0.00     0.036 A 
HETATM    6  C   UNL     1       1.984  -5.412  -1.146  1.00  0.00     0.046 A 
HETATM    7  C   UNL     1       1.821  -6.759  -1.536  1.00  0.00     0.030 A 
HETATM    8  C   UNL     1       2.930  -7.596  -1.540  1.00  0.00     0.063 A 
HETATM    9  C   UNL     1       0.742  -7.575  -1.999  1.00  0.00     0.156 A 
HETATM   10  N   UNL     1       2.462  -8.818  -1.934  1.00  0.00    -0.277 N 
HETATM   11  C   UNL     1       4.213  -7.164  -1.203  1.00  0.00     0.034 A 
HETATM   12  H   UNL     1       2.993  -9.675  -2.037  1.00  0.00     0.189 HD
HETATM   13  N   UNL     1       1.153  -8.842  -2.234  1.00  0.00    -0.168 NA
HETATM   14  C   UNL     1       4.359  -5.813  -0.866  1.00  0.00     0.032 A 
BRANCH   9  15
HETATM   15  C   UNL     1      -0.646  -7.166  -2.250  1.00  0.00     0.270 C 
HETATM   16  N   UNL     1      -1.444  -8.171  -2.728  1.00  0.00    -0.365 N 
HETATM   17  H   UNL     1      -1.029  -9.079  -2.897  1.00  0.00     0.159 HD
HETATM   18  H   UNL     1      -2.399  -7.971  -2.980  1.00  0.00     0.159 HD
HETATM   19  O   UNL     1      -1.084  -6.034  -2.083  1.00  0.00    -0.266 OA
ENDBRANCH   9  15
ENDBRANCH   2   5
BRANCH   1  20
HETATM   20  C   UNL     1       3.159  -1.221  -0.097  1.00  0.00     0.057 A 
HETATM   21  C   UNL     1       2.395  -0.120  -0.492  1.00  0.00     0.047 A 
HETATM   22  C   UNL     1       0.968  -0.236  -0.948  1.00  0.00     0.071 C 
HETATM   23  N   UNL     1       2.894   1.149  -0.499  1.00  0.00    -0.252 NA
HETATM   24  C   UNL     1       4.160   1.364  -0.111  1.00  0.00     0.070 A 
HETATM   25  C   UNL     1       4.994   0.317   0.332  1.00  0.00    -0.006 A 
HETATM   26  C   UNL     1       4.673   2.650  -0.149  1.00  0.00     0.074 A 
HETATM   27  C   UNL     1       4.466  -0.981   0.349  1.00  0.00     0.033 A 
HETATM   28  C   UNL     1       6.318   0.584   0.729  1.00  0.00     0.017 A 
HETATM   29  C   UNL     1       6.813   1.884   0.675  1.00  0.00     0.043 A 
HETATM   30  C   UNL     1       5.984   2.906   0.236  1.00  0.00     0.118 A 
HETATM   31  F   UNL     1       6.457   4.157   0.179  1.00  0.00    -0.206 F 
ENDBRANCH   1  20
TORSDOF 3
