REMARK  6 active torsions:
REMARK  status: ('A' for Active; 'I' for Inactive)
REMARK    1  A    between atoms: O_2  and  C_3 
REMARK    2  A    between atoms: C_3  and  C_4 
REMARK    3  A    between atoms: C_7  and  N_8 
REMARK       I    between atoms: N_8  and  C_9 
REMARK    4  A    between atoms: C_9  and  C_10 
REMARK    5  A    between atoms: C_10  and  O_11 
REMARK    6  A    between atoms: O_11  and  C_12 
ROOT
HETATM    1  C   UNL     1       2.282   7.820   0.679  1.00  0.00     0.278 C 
ENDROOT
BRANCH   1   2
HETATM    2  C   UNL     1       0.773   7.602   0.820  1.00  0.00     0.246 C 
HETATM    3  N   UNL     1       0.460   6.706   1.829  1.00  0.00    -0.325 N 
HETATM    4  H   UNL     1       1.255   6.213   2.226  1.00  0.00     0.169 HD
HETATM    5  O   UNL     1      -0.020   8.253   0.144  1.00  0.00    -0.271 OA
BRANCH   3   6
HETATM    6  C   UNL     1      -0.808   6.423   2.370  1.00  0.00     0.034 A 
HETATM    7  C   UNL     1      -1.992   7.020   1.933  1.00  0.00     0.030 A 
HETATM    8  C   UNL     1      -3.212   6.735   2.561  1.00  0.00     0.020 A 
HETATM    9  C   UNL     1      -3.261   5.845   3.639  1.00  0.00     0.039 A 
HETATM   10  C   UNL     1      -2.080   5.226   4.065  1.00  0.00     0.020 A 
HETATM   11  C   UNL     1      -0.864   5.513   3.433  1.00  0.00     0.030 A 
BRANCH   9  12
HETATM   12  C   UNL     1      -4.523   5.540   4.367  1.00  0.00     0.292 C 
HETATM   13  O   UNL     1      -4.612   4.683   5.231  1.00  0.00    -0.259 OA
BRANCH  12  14
HETATM   14  O   UNL     1      -5.521   6.363   3.957  1.00  0.00    -0.323 OA
HETATM   15  C   UNL     1      -6.754   6.175   4.653  1.00  0.00     0.213 C 
ENDBRANCH  12  14
ENDBRANCH   9  12
ENDBRANCH   3   6
ENDBRANCH   1   2
BRANCH   1  16
HETATM   16  O   UNL     1       2.998   6.629   1.009  1.00  0.00    -0.342 OA
BRANCH  16  17
HETATM   17  C   UNL     1       4.362   6.744   0.910  1.00  0.00     0.071 A 
HETATM   18  C   UNL     1       5.025   5.636   0.370  1.00  0.00     0.067 A 
HETATM   19  C   UNL     1       6.425   5.676   0.307  1.00  0.00     0.046 A 
HETATM   20  C   UNL     1       7.169   6.758   0.773  1.00  0.00     0.003 A 
HETATM   21  N   UNL     1       7.323   4.750  -0.173  1.00  0.00    -0.355 N 
HETATM   22  C   UNL     1       6.481   7.860   1.319  1.00  0.00     0.017 A 
HETATM   23  C   UNL     1       8.552   6.445   0.585  1.00  0.00     0.003 A 
HETATM   24  C   UNL     1       5.081   7.839   1.388  1.00  0.00     0.038 A 
HETATM   25  C   UNL     1       8.617   5.185  -0.007  1.00  0.00     0.043 A 
HETATM   26  C   UNL     1       9.757   7.118   0.874  1.00  0.00     0.014 A 
HETATM   27  C   UNL     1       9.830   4.562  -0.329  1.00  0.00     0.030 A 
HETATM   28  C   UNL     1      11.011   5.249  -0.029  1.00  0.00     0.002 A 
HETATM   29  C   UNL     1      10.978   6.508   0.565  1.00  0.00     0.001 A 
HETATM   30  H   UNL     1       7.068   3.862  -0.580  1.00  0.00     0.166 HD
ENDBRANCH  16  17
ENDBRANCH   1  16
TORSDOF 6
