REMARK  5 active torsions:
REMARK  status: ('A' for Active; 'I' for Inactive)
REMARK    1  A    between atoms: C_3  and  N_4 
REMARK       I    between atoms: N_4  and  C_5 
REMARK    2  A    between atoms: C_9  and  N_10 
REMARK       I    between atoms: N_10  and  C_11 
REMARK    3  A    between atoms: C_11  and  C_12 
REMARK    4  A    between atoms: C_17  and  C_18 
REMARK    5  A    between atoms: C_24  and  C_25 
ROOT
HETATM    1  C   UNL     1       6.852   2.496  -0.062  1.00  0.00     0.148 C 
HETATM    2  N   UNL     1       7.502   3.529  -0.652  1.00  0.00    -0.165 NA
HETATM    3  N   UNL     1       6.829   4.604  -0.206  1.00  0.00    -0.240 N 
HETATM    4  C   UNL     1       5.706   4.304   0.510  1.00  0.00     0.123 C 
HETATM    5  N   UNL     1       4.836   5.266   0.873  1.00  0.00    -0.364 N 
HETATM    6  C   UNL     1       4.863   6.620   0.304  1.00  0.00     0.143 C 
HETATM    7  C   UNL     1       5.878   6.731  -0.858  1.00  0.00     0.068 C 
HETATM    8  C   UNL     1       7.174   5.958  -0.589  1.00  0.00     0.221 C 
HETATM    9  C   UNL     1       5.740   2.950   0.702  1.00  0.00     0.089 C 
HETATM   10  H   UNL     1       4.012   5.051   1.432  1.00  0.00     0.162 HD
ENDROOT
BRANCH   1  11
HETATM   11  C   UNL     1       7.256   1.094  -0.274  1.00  0.00     0.276 C 
HETATM   12  N   UNL     1       8.220   0.981  -1.258  1.00  0.00    -0.322 N 
HETATM   13  H   UNL     1       8.493   1.876  -1.658  1.00  0.00     0.169 HD
HETATM   14  O   UNL     1       6.733   0.177   0.349  1.00  0.00    -0.266 OA
BRANCH  12  15
HETATM   15  C   UNL     1       8.785  -0.187  -1.796  1.00  0.00     0.037 A 
HETATM   16  C   UNL     1       8.526  -1.471  -1.314  1.00  0.00     0.059 A 
HETATM   17  C   UNL     1       9.090  -2.621  -1.907  1.00  0.00     0.042 A 
HETATM   18  C   UNL     1       9.992  -2.463  -2.973  1.00  0.00    -0.035 A 
HETATM   19  C   UNL     1      10.768  -3.577  -3.617  1.00  0.00     0.050 C 
HETATM   20  C   UNL     1      10.232  -1.165  -3.465  1.00  0.00     0.011 A 
HETATM   21  C   UNL     1       9.642  -0.042  -2.883  1.00  0.00     0.030 A 
BRANCH  17  22
HETATM   22  N   UNL     1       8.707  -3.840  -1.299  1.00  0.00    -0.327 N 
HETATM   23  C   UNL     1       8.609  -5.093  -1.870  1.00  0.00     0.218 C 
HETATM   24  C   UNL     1       8.268  -6.162  -0.860  1.00  0.00     0.117 C 
HETATM   25  O   UNL     1       8.756  -5.384  -3.051  1.00  0.00    -0.274 OA
HETATM   26  H   UNL     1       8.230  -3.739  -0.411  1.00  0.00     0.169 HD
ENDBRANCH  17  22
ENDBRANCH  12  15
ENDBRANCH   1  11
BRANCH   8  27
HETATM   27  C   UNL     1       8.030   6.598   0.480  1.00  0.00     0.409 C 
HETATM   28  F   UNL     1       9.196   5.940   0.664  1.00  0.00    -0.169 F 
HETATM   29  F   UNL     1       8.357   7.863   0.107  1.00  0.00    -0.169 F 
HETATM   30  F   UNL     1       7.420   6.696   1.679  1.00  0.00    -0.169 F 
ENDBRANCH   8  27
BRANCH   6  31
HETATM   31  C   UNL     1       3.517   7.060  -0.189  1.00  0.00     0.075 A 
HETATM   32  O   UNL     1       3.216   8.384  -0.063  1.00  0.00    -0.325 OA
HETATM   33  C   UNL     1       1.974   8.558  -0.586  1.00  0.00     0.142 A 
HETATM   34  C   UNL     1       1.474   7.365  -1.052  1.00  0.00     0.027 A 
HETATM   35  C   UNL     1       2.470   6.394  -0.796  1.00  0.00     0.037 A 
ENDBRANCH   6  31
TORSDOF 5
