REMARK  3 active torsions:
REMARK  status: ('A' for Active; 'I' for Inactive)
REMARK    1  A    between atoms: C_2  and  N_3 
REMARK    2  A    between atoms: C_2  and  C_10 
REMARK    3  A    between atoms: C_13  and  C_14 
ROOT
HETATM    1  C   UNL     1       2.596   0.691   1.297  1.00  0.00    -0.028 A 
HETATM    2  C   UNL     1       3.776   0.333   1.969  1.00  0.00     0.010 A 
HETATM    3  C   UNL     1       4.109   0.921   3.195  1.00  0.00     0.014 A 
HETATM    4  C   UNL     1       3.286   1.887   3.796  1.00  0.00    -0.006 A 
HETATM    5  C   UNL     1       2.130   2.268   3.098  1.00  0.00     0.014 A 
HETATM    6  C   UNL     1       1.786   1.678   1.875  1.00  0.00     0.010 A 
ENDROOT
BRANCH   4   7
HETATM    7  C   UNL     1       3.650   2.472   5.091  1.00  0.00     0.082 A 
HETATM    8  N   UNL     1       4.963   2.759   5.300  1.00  0.00    -0.240 NA
HETATM    9  C   UNL     1       5.318   3.297   6.484  1.00  0.00     0.236 A 
HETATM   10  N   UNL     1       4.526   3.594   7.526  1.00  0.00    -0.224 NA
HETATM   11  C   UNL     1       3.248   3.275   7.283  1.00  0.00     0.141 A 
HETATM   12  C   UNL     1       2.728   2.718   6.123  1.00  0.00     0.041 A 
HETATM   13  N   UNL     1       2.225   3.452   8.174  1.00  0.00    -0.350 N 
HETATM   14  C   UNL     1       1.333   2.534   6.359  1.00  0.00     0.034 A 
HETATM   15  C   UNL     1       1.052   3.004   7.625  1.00  0.00     0.091 A 
HETATM   16  H   UNL     1       2.346   3.844   9.098  1.00  0.00     0.166 HD
ENDBRANCH   4   7
BRANCH   1  17
HETATM   17  C   UNL     1       2.260   0.020  -0.023  1.00  0.00     0.217 C 
HETATM   18  C   UNL     1       0.761  -0.177  -0.276  1.00  0.00     0.045 C 
BRANCH  17  19
HETATM   19  N   UNL     1       2.948   0.706  -1.206  1.00  0.00    -0.063 N 
HETATM   20  H   UNL     1       3.911   0.858  -0.874  1.00  0.00     0.280 HD
HETATM   21  C   UNL     1       3.052  -0.187  -2.422  1.00  0.00     0.235 C 
HETATM   22  C   UNL     1       3.959   0.460  -3.460  1.00  0.00     0.028 C 
HETATM   23  C   UNL     1       3.478   1.857  -3.831  1.00  0.00     0.003 C 
HETATM   24  C   UNL     1       3.325   2.729  -2.591  1.00  0.00     0.028 C 
HETATM   25  C   UNL     1       2.418   2.079  -1.553  1.00  0.00     0.235 C 
ENDBRANCH  17  19
ENDBRANCH   1  17
TORSDOF 3
