REMARK  8 active torsions:
REMARK  status: ('A' for Active; 'I' for Inactive)
REMARK    1  A    between atoms: C_2  and  O_3 
REMARK    2  A    between atoms: O_3  and  C_4 
REMARK    3  A    between atoms: C_5  and  N_6 
REMARK       I    between atoms: N_6  and  C_7 
REMARK    4  A    between atoms: C_7  and  C_8 
REMARK    5  A    between atoms: C_8  and  C_9 
REMARK    6  A    between atoms: C_9  and  S_10 
REMARK    7  A    between atoms: S_10  and  C_11 
REMARK    8  A    between atoms: N_12  and  C_13 
ROOT
HETATM    1  C   UNL     1       9.248  -2.020   0.072  1.00  0.00     0.177 A 
HETATM    2  N   UNL     1      10.363  -2.887   0.011  1.00  0.00    -0.274 N 
HETATM    3  C   UNL     1      10.108  -4.305  -0.092  1.00  0.00     0.124 A 
HETATM    4  N   UNL     1      11.063  -5.209  -0.195  1.00  0.00    -0.384 N 
HETATM    5  H   UNL     1      10.841  -6.191  -0.271  1.00  0.00     0.157 HD
HETATM    6  H   UNL     1      12.036  -4.933  -0.199  1.00  0.00     0.157 HD
HETATM    7  C   UNL     1       8.736  -4.703  -0.102  1.00  0.00     0.081 A 
HETATM    8  C   UNL     1       7.758  -3.717  -0.049  1.00  0.00     0.187 A 
HETATM    9  N   UNL     1       6.530  -4.215  -0.061  1.00  0.00    -0.153 NA
HETATM   10  N   UNL     1       6.733  -5.544  -0.120  1.00  0.00    -0.280 N 
HETATM   11  H   UNL     1       5.916  -6.148  -0.136  1.00  0.00     0.189 HD
HETATM   12  C   UNL     1       8.066  -5.904  -0.140  1.00  0.00     0.042 A 
HETATM   13  C   UNL     1       8.483  -7.321  -0.180  1.00  0.00     0.071 C 
HETATM   14  N   UNL     1       7.992  -2.354   0.032  1.00  0.00    -0.202 NA
ENDROOT
BRANCH   1  15
HETATM   15  S   UNL     1       9.530  -0.256   0.209  1.00  0.00    -0.091 SA
BRANCH  15  16
HETATM   16  C   UNL     1       7.864   0.326   0.693  1.00  0.00     0.091 C 
BRANCH  16  17
HETATM   17  C   UNL     1       7.827   1.838   0.875  1.00  0.00     0.113 C 
BRANCH  17  18
HETATM   18  C   UNL     1       7.518   2.561  -0.423  1.00  0.00     0.223 C 
HETATM   19  N   UNL     1       8.559   2.522  -1.324  1.00  0.00    -0.325 N 
HETATM   20  H   UNL     1       9.398   2.019  -1.050  1.00  0.00     0.169 HD
HETATM   21  O   UNL     1       6.437   3.121  -0.580  1.00  0.00    -0.273 OA
BRANCH  19  22
HETATM   22  C   UNL     1       8.605   3.067  -2.625  1.00  0.00     0.068 A 
HETATM   23  C   UNL     1       9.821   2.975  -3.324  1.00  0.00     0.095 A 
HETATM   24  C   UNL     1       9.940   3.431  -4.638  1.00  0.00     0.039 A 
HETATM   25  C   UNL     1       8.846   4.028  -5.258  1.00  0.00     0.003 A 
HETATM   26  C   UNL     1       7.642   4.155  -4.566  1.00  0.00     0.002 A 
HETATM   27  C   UNL     1       7.520   3.675  -3.256  1.00  0.00     0.032 A 
BRANCH  23  28
HETATM   28  O   UNL     1      10.926   2.406  -2.735  1.00  0.00    -0.349 OA
BRANCH  28  29
HETATM   29  C   UNL     1      11.641   3.385  -1.966  1.00  0.00     0.171 C 
HETATM   30  C   UNL     1      13.108   3.321  -2.347  1.00  0.00     0.034 C 
ENDBRANCH  28  29
ENDBRANCH  23  28
ENDBRANCH  19  22
ENDBRANCH  17  18
ENDBRANCH  16  17
ENDBRANCH  15  16
ENDBRANCH   1  15
BRANCH   2  31
HETATM   31  C   UNL     1      11.699  -2.401   0.164  1.00  0.00     0.065 A 
HETATM   32  C   UNL     1      12.427  -2.606   1.354  1.00  0.00     0.061 A 
HETATM   33 CL   UNL     1      11.718  -3.402   2.714  1.00  0.00    -0.082 Cl
HETATM   34  C   UNL     1      13.753  -2.180   1.460  1.00  0.00     0.026 A 
HETATM   35  C   UNL     1      14.368  -1.543   0.383  1.00  0.00     0.002 A 
HETATM   36  C   UNL     1      13.661  -1.333  -0.800  1.00  0.00     0.002 A 
HETATM   37  C   UNL     1      12.336  -1.762  -0.913  1.00  0.00     0.032 A 
ENDBRANCH   2  31
TORSDOF 8
