REMARK  5 active torsions:
REMARK  status: ('A' for Active; 'I' for Inactive)
REMARK    1  A    between atoms: N_4  and  C_5 
REMARK    2  A    between atoms: C_15  and  N_16 
REMARK       I    between atoms: N_16  and  C_17 
REMARK    3  A    between atoms: C_17  and  C_18 
REMARK    4  A    between atoms: C_20  and  C_21 
REMARK    5  A    between atoms: C_26  and  C_27 
ROOT
HETATM    1  N   UNL     1       5.647  -1.516  -0.139  1.00  0.00    -0.307 N 
HETATM    2  C   UNL     1       6.684  -1.494   0.781  1.00  0.00     0.257 C 
HETATM    3  O   UNL     1       6.829  -0.664   1.673  1.00  0.00    -0.267 OA
HETATM    4  H   UNL     1       5.452  -2.362  -0.656  1.00  0.00     0.170 HD
ENDROOT
BRANCH   1   5
HETATM    5  C   UNL     1       4.660  -0.542  -0.117  1.00  0.00     0.152 C 
HETATM    6  N   UNL     1       4.812   0.804   0.211  1.00  0.00    -0.045 N 
HETATM    7  N   UNL     1       3.586   1.391   0.439  1.00  0.00    -0.156 NA
HETATM    8  C   UNL     1       2.706   0.503  -0.036  1.00  0.00     0.055 C 
HETATM    9  C   UNL     1       1.257   0.822  -0.054  1.00  0.00     0.072 C 
HETATM   10  C   UNL     1       3.330  -0.699  -0.435  1.00  0.00     0.079 C 
BRANCH   6  11
HETATM   11  C   UNL     1       5.946   1.643   0.136  1.00  0.00     0.732 A 
HETATM   12  N   UNL     1       7.064   1.323  -0.449  1.00  0.00    -0.067 NA
HETATM   13  C   UNL     1       8.006   2.312  -0.438  1.00  0.00     0.065 A 
HETATM   14  C   UNL     1       7.864   3.528   0.090  1.00  0.00     0.036 A 
HETATM   15  C   UNL     1       9.344   2.155  -1.078  1.00  0.00     0.061 C 
HETATM   16  C   UNL     1       9.048   4.397  -0.084  1.00  0.00     0.047 C 
HETATM   17  C   UNL     1       6.596   3.884   0.722  1.00  0.00     0.268 A 
HETATM   18  C   UNL     1      10.099   3.402  -0.594  1.00  0.00     0.011 C 
HETATM   19  O   UNL     1       6.385   4.991   1.199  1.00  0.00    -0.267 OA
HETATM   20  N   UNL     1       5.680   2.872   0.704  1.00  0.00    -0.152 N 
HETATM   21  H   UNL     1       4.756   3.038   1.088  1.00  0.00     0.188 HD
ENDBRANCH   6  11
ENDBRANCH   1   5
BRANCH   2  22
HETATM   22  C   UNL     1       7.656  -2.620   0.703  1.00  0.00     0.034 A 
HETATM   23  C   UNL     1       8.992  -2.357   1.034  1.00  0.00     0.033 A 
HETATM   24  C   UNL     1       9.951  -3.381   1.016  1.00  0.00     0.049 A 
HETATM   25  C   UNL     1       9.548  -4.681   0.667  1.00  0.00     0.032 A 
HETATM   26  C   UNL     1       8.211  -4.965   0.341  1.00  0.00     0.049 A 
HETATM   27  C   UNL     1       7.266  -3.924   0.372  1.00  0.00     0.033 A 
BRANCH  24  28
HETATM   28  C   UNL     1      11.392  -3.109   1.381  1.00  0.00     0.417 C 
HETATM   29  F   UNL     1      11.658  -1.798   1.631  1.00  0.00    -0.166 F 
HETATM   30  F   UNL     1      11.778  -3.792   2.493  1.00  0.00    -0.166 F 
HETATM   31  F   UNL     1      12.251  -3.484   0.394  1.00  0.00    -0.166 F 
ENDBRANCH  24  28
BRANCH  26  32
HETATM   32  C   UNL     1       7.771  -6.372   0.005  1.00  0.00     0.417 C 
HETATM   33  F   UNL     1       8.802  -7.205  -0.298  1.00  0.00    -0.166 F 
HETATM   34  F   UNL     1       7.095  -6.957   1.029  1.00  0.00    -0.166 F 
HETATM   35  F   UNL     1       6.931  -6.406  -1.067  1.00  0.00    -0.166 F 
ENDBRANCH  26  32
ENDBRANCH   2  22
TORSDOF 5
