REMARK  6 active torsions:
REMARK  status: ('A' for Active; 'I' for Inactive)
REMARK    1  A    between atoms: O_2  and  C_3 
REMARK    2  A    between atoms: C_5  and  O_6 
REMARK    3  A    between atoms: C_8  and  N_9 
REMARK       I    between atoms: N_9  and  C_10 
REMARK    4  A    between atoms: C_10  and  C_11 
REMARK    5  A    between atoms: C_11  and  N_12 
REMARK    6  A    between atoms: C_17  and  C_18 
ROOT
HETATM    1  N   UNL     1       6.206   1.905  -2.843  1.00  0.00    -0.326 N 
HETATM    2  C   UNL     1       6.383   0.525  -2.826  1.00  0.00     0.255 C 
HETATM    3  O   UNL     1       6.767  -0.188  -3.733  1.00  0.00    -0.267 OA
HETATM    4  C   UNL     1       5.930   0.038  -1.517  1.00  0.00     0.040 A 
HETATM    5  C   UNL     1       5.422   1.121  -0.802  1.00  0.00    -0.015 A 
HETATM    6  C   UNL     1       5.495   2.350  -1.653  1.00  0.00     0.158 C 
HETATM    7  C   UNL     1       5.894  -1.258  -1.037  1.00  0.00     0.017 A 
HETATM    8  C   UNL     1       5.332  -1.461   0.225  1.00  0.00     0.001 A 
HETATM    9  C   UNL     1       4.825  -0.376   0.965  1.00  0.00     0.001 A 
HETATM   10  C   UNL     1       4.862   0.925   0.452  1.00  0.00     0.011 A 
ENDROOT
BRANCH   1  11
HETATM   11  C   UNL     1       5.992   2.584  -4.110  1.00  0.00     0.230 C 
BRANCH  11  12
HETATM   12  C   UNL     1       7.226   2.903  -4.958  1.00  0.00     0.240 C 
HETATM   13  N   UNL     1       8.356   3.236  -4.233  1.00  0.00    -0.323 N 
HETATM   14  H   UNL     1       8.300   3.144  -3.222  1.00  0.00     0.169 HD
HETATM   15  O   UNL     1       7.090   3.031  -6.175  1.00  0.00    -0.271 OA
BRANCH  13  16
HETATM   16  C   UNL     1       9.559   3.798  -4.730  1.00  0.00     0.068 A 
HETATM   17  C   UNL     1      10.535   4.225  -3.804  1.00  0.00     0.097 A 
HETATM   18  C   UNL     1      11.700   4.870  -4.255  1.00  0.00     0.075 A 
HETATM   19  C   UNL     1      11.918   5.066  -5.620  1.00  0.00     0.070 A 
HETATM   20  C   UNL     1      10.983   4.589  -6.533  1.00  0.00     0.039 A 
HETATM   21  C   UNL     1       9.812   3.967  -6.094  1.00  0.00     0.035 A 
BRANCH  17  22
HETATM   22  O   UNL     1      10.251   3.993  -2.476  1.00  0.00    -0.354 OA
HETATM   23  C   UNL     1      11.322   4.173  -1.556  1.00  0.00     0.210 C 
ENDBRANCH  17  22
BRANCH  19  24
HETATM   24  O   UNL     1      13.000   5.685  -6.182  1.00  0.00    -0.356 OA
HETATM   25  C   UNL     1      13.807   6.478  -5.321  1.00  0.00     0.210 C 
ENDBRANCH  19  24
ENDBRANCH  13  16
ENDBRANCH  11  12
ENDBRANCH   1  11
BRANCH   6  26
HETATM   26  C   UNL     1       6.295   3.386  -0.941  1.00  0.00    -0.003 A 
HETATM   27  C   UNL     1       5.855   4.720  -0.642  1.00  0.00     0.001 A 
HETATM   28  C   UNL     1       6.921   5.393  -0.046  1.00  0.00     0.043 A 
HETATM   29  C   UNL     1       4.649   5.425  -0.844  1.00  0.00     0.014 A 
HETATM   30  C   UNL     1       6.850   6.735   0.345  1.00  0.00     0.030 A 
HETATM   31  N   UNL     1       7.962   4.502   0.046  1.00  0.00    -0.365 N 
HETATM   32  C   UNL     1       5.646   7.410   0.128  1.00  0.00     0.002 A 
HETATM   33  C   UNL     1       4.558   6.765  -0.453  1.00  0.00     0.001 A 
HETATM   34  H   UNL     1       8.869   4.720   0.434  1.00  0.00     0.165 HD
HETATM   35  C   UNL     1       7.602   3.296  -0.486  1.00  0.00     0.099 A 
ENDBRANCH   6  26
TORSDOF 6
