REMARK  11 active torsions:
REMARK  status: ('A' for Active; 'I' for Inactive)
REMARK    1  A    between atoms: C_5  and  C_6 
REMARK    2  A    between atoms: C_6  and  N_7 
REMARK    3  A    between atoms: N_7  and  C_10 
REMARK    4  A    between atoms: C_10  and  C_11 
REMARK    5  A    between atoms: C_13  and  O_14 
REMARK    6  A    between atoms: C_16  and  O_17 
REMARK    7  A    between atoms: O_17  and  C_18 
REMARK    8  A    between atoms: C_18  and  C_19 
REMARK    9  A    between atoms: C_19  and  O_20 
REMARK   10  A    between atoms: C_19  and  C_21 
REMARK   11  A    between atoms: C_21  and  N_22 
ROOT
HETATM    1  C   UNL     1       8.289  11.923  -6.091  1.00  0.00    -0.030 A 
HETATM    2  C   UNL     1       8.510  12.562  -4.859  1.00  0.00     0.048 A 
HETATM    3  C   UNL     1       9.116  11.878  -3.796  1.00  0.00     0.102 A 
HETATM    4  C   UNL     1       9.501  10.531  -3.957  1.00  0.00     0.102 A 
HETATM    5  C   UNL     1       9.252   9.884  -5.168  1.00  0.00     0.040 A 
HETATM    6  C   UNL     1       8.653  10.576  -6.228  1.00  0.00     0.012 A 
ENDROOT
BRANCH   4   7
HETATM    7  O   UNL     1      10.131   9.967  -2.880  1.00  0.00    -0.346 OA
BRANCH   7   8
HETATM    8  C   UNL     1      10.475   8.588  -2.916  1.00  0.00     0.209 C 
BRANCH   8   9
HETATM    9  C   UNL     1      11.323   8.290  -1.671  1.00  0.00     0.168 C 
BRANCH   9  10
HETATM   10  O   UNL     1      11.565   6.884  -1.506  1.00  0.00    -0.392 OA
HETATM   11  H   UNL     1      11.968   6.546  -2.332  1.00  0.00     0.210 HD
ENDBRANCH   9  10
BRANCH   9  12
HETATM   12  C   UNL     1      10.642   8.800  -0.384  1.00  0.00     0.268 C 
BRANCH  12  13
HETATM   13  N   UNL     1      11.330   8.161   0.825  1.00  0.00    -0.067 N 
HETATM   14  H   UNL     1      11.543   7.200   0.498  1.00  0.00     0.280 HD
HETATM   15  C   UNL     1      12.648   8.838   1.169  1.00  0.00     0.245 C 
HETATM   16  C   UNL     1      13.436   8.048   2.213  1.00  0.00     0.101 C 
HETATM   17  S   UNL     1      12.533   7.916   3.783  1.00  0.00    -0.166 SA
HETATM   18  C   UNL     1      10.986   7.213   3.141  1.00  0.00     0.101 C 
HETATM   19  C   UNL     1      10.392   8.060   2.016  1.00  0.00     0.245 C 
ENDBRANCH  12  13
ENDBRANCH   9  12
ENDBRANCH   8   9
ENDBRANCH   7   8
ENDBRANCH   4   7
BRANCH   3  20
HETATM   20  O   UNL     1       9.377  12.423  -2.563  1.00  0.00    -0.353 OA
HETATM   21  C   UNL     1       9.078  13.799  -2.363  1.00  0.00     0.210 C 
ENDBRANCH   3  20
BRANCH   1  22
HETATM   22  C   UNL     1       7.668  12.668  -7.242  1.00  0.00     0.271 C 
BRANCH  22  23
HETATM   23  N   UNL     1       6.238  12.339  -7.403  1.00  0.00    -0.066 N 
HETATM   24  H   UNL     1       5.711  12.512  -6.537  1.00  0.00     0.277 HD
HETATM   25  H   UNL     1       6.096  11.328  -7.560  1.00  0.00     0.277 HD
BRANCH  23  26
HETATM   26  C   UNL     1       5.526  13.024  -8.535  1.00  0.00     0.293 C 
BRANCH  26  27
HETATM   27  C   UNL     1       4.229  12.328  -8.834  1.00  0.00     0.077 A 
HETATM   28  C   UNL     1       3.322  12.848  -9.745  1.00  0.00     0.145 A 
HETATM   29  N   UNL     1       2.168  12.219 -10.043  1.00  0.00    -0.262 NA
HETATM   30  C   UNL     1       1.931  11.042  -9.413  1.00  0.00     0.048 A 
HETATM   31  C   UNL     1       0.657  10.320  -9.724  1.00  0.00     0.072 C 
HETATM   32  C   UNL     1       2.844  10.521  -8.503  1.00  0.00     0.143 A 
HETATM   33  N   UNL     1       4.013  11.143  -8.192  1.00  0.00    -0.260 NA
ENDBRANCH  26  27
ENDBRANCH  23  26
ENDBRANCH  22  23
ENDBRANCH   1  22
TORSDOF 11
