REMARK  5 active torsions:
REMARK  status: ('A' for Active; 'I' for Inactive)
REMARK    1  A    between atoms: C_9  and  C_10 
REMARK       I    between atoms: C_10  and  N_11 
REMARK    2  A    between atoms: N_11  and  C_12 
REMARK    3  A    between atoms: C_12  and  C_13 
REMARK    4  A    between atoms: C_16  and  O_17 
REMARK    5  A    between atoms: O_17  and  C_18 
ROOT
HETATM    1  C   UNL     1       5.562   3.368   0.155  1.00  0.00     0.273 C 
HETATM    2  N   UNL     1       6.485   4.386   0.070  1.00  0.00    -0.351 N 
HETATM    3  O   UNL     1       5.873   2.181   0.158  1.00  0.00    -0.266 OA
HETATM    4  H   UNL     1       6.099   5.324  -0.011  1.00  0.00     0.163 HD
ENDROOT
BRANCH   2   5
HETATM    5  C   UNL     1       7.879   4.123  -0.160  1.00  0.00     0.163 C 
BRANCH   5   6
HETATM    6  C   UNL     1       8.693   5.378  -0.089  1.00  0.00    -0.023 A 
HETATM    7  C   UNL     1       8.933   6.143  -1.226  1.00  0.00     0.128 A 
HETATM    8  N   UNL     1       9.640   7.296  -1.233  1.00  0.00    -0.236 NA
HETATM    9  C   UNL     1      10.132   7.712  -0.048  1.00  0.00     0.164 A 
HETATM   10  C   UNL     1       9.946   7.028   1.142  1.00  0.00     0.059 A 
HETATM   11  C   UNL     1       9.207   5.849   1.121  1.00  0.00     0.014 A 
BRANCH   9  12
HETATM   12  O   UNL     1      10.878   8.870   0.026  1.00  0.00    -0.329 OA
BRANCH  12  13
HETATM   13  C   UNL     1      10.917   9.628  -1.178  1.00  0.00     0.130 C 
HETATM   14  C   UNL     1      11.407  11.038  -0.853  1.00  0.00     0.032 C 
HETATM   15  C   UNL     1      11.848  11.568  -2.205  1.00  0.00     0.002 C 
HETATM   16  C   UNL     1      12.494  10.370  -2.892  1.00  0.00     0.002 C 
HETATM   17  C   UNL     1      11.974   9.128  -2.166  1.00  0.00     0.032 C 
ENDBRANCH  12  13
ENDBRANCH   9  12
ENDBRANCH   5   6
ENDBRANCH   2   5
BRANCH   1  18
HETATM   18  C   UNL     1       4.173   3.850   0.221  1.00  0.00     0.157 A 
HETATM   19  C   UNL     1       2.988   3.064   0.332  1.00  0.00     0.029 A 
HETATM   20  C   UNL     1       2.685   1.690   0.423  1.00  0.00     0.023 A 
HETATM   21  C   UNL     1       1.945   3.981   0.341  1.00  0.00     0.063 A 
HETATM   22  C   UNL     1       1.344   1.282   0.522  1.00  0.00    -0.061 A 
HETATM   23  C   UNL     1       0.997  -0.176   0.616  1.00  0.00     0.048 C 
HETATM   24  C   UNL     1       0.323   2.241   0.524  1.00  0.00     0.009 A 
HETATM   25  C   UNL     1       0.601   3.610   0.434  1.00  0.00     0.032 A 
HETATM   26  N   UNL     1       2.542   5.207   0.241  1.00  0.00    -0.277 N 
HETATM   27  H   UNL     1       2.084   6.111   0.218  1.00  0.00     0.189 HD
HETATM   28  N   UNL     1       3.884   5.169   0.163  1.00  0.00    -0.168 NA
ENDBRANCH   1  18
TORSDOF 5
