REMARK  5 active torsions:
REMARK  status: ('A' for Active; 'I' for Inactive)
REMARK    1  A    between atoms: C_7  and  N_8 
REMARK    2  A    between atoms: N_8  and  C_9 
REMARK    3  A    between atoms: C_11  and  C_12 
REMARK       I    between atoms: C_12  and  N_13 
REMARK    4  A    between atoms: N_13  and  C_14 
REMARK    5  A    between atoms: C_14  and  C_15 
ROOT
HETATM    1  C   UNL     1       4.488  -3.808  -0.483  1.00  0.00     0.142 A 
HETATM    2  N   UNL     1       5.060  -5.043  -0.426  1.00  0.00    -0.225 NA
HETATM    3  C   UNL     1       4.287  -6.170  -0.460  1.00  0.00     0.129 A 
HETATM    4  C   UNL     1       2.908  -6.193  -0.540  1.00  0.00     0.075 A 
HETATM    5  C   UNL     1       2.350  -4.931  -0.571  1.00  0.00     0.091 A 
HETATM    6  C   UNL     1       3.076  -3.747  -0.546  1.00  0.00     0.046 A 
HETATM    7  O   UNL     1       1.015  -4.672  -0.632  1.00  0.00    -0.322 OA
HETATM    8  C   UNL     1       0.869  -3.324  -0.646  1.00  0.00     0.143 A 
HETATM    9  C   UNL     1       2.098  -2.708  -0.598  1.00  0.00     0.042 A 
ENDROOT
BRANCH   3  10
HETATM   10  C   UNL     1       5.026  -7.473  -0.404  1.00  0.00     0.270 C 
HETATM   11  N   UNL     1       6.366  -7.360  -0.121  1.00  0.00    -0.351 N 
HETATM   12  H   UNL     1       6.743  -6.421  -0.040  1.00  0.00     0.163 HD
HETATM   13  O   UNL     1       4.456  -8.541  -0.595  1.00  0.00    -0.266 OA
BRANCH  11  14
HETATM   14  C   UNL     1       7.251  -8.497  -0.120  1.00  0.00     0.165 C 
BRANCH  14  15
HETATM   15  C   UNL     1       8.415  -8.191   0.750  1.00  0.00     0.002 A 
HETATM   16  C   UNL     1       9.795  -8.136   0.404  1.00  0.00     0.060 A 
HETATM   17  C   UNL     1      10.431  -8.372  -0.916  1.00  0.00     0.073 C 
HETATM   18  N   UNL     1      10.562  -7.842   1.462  1.00  0.00    -0.180 NA
HETATM   19  N   UNL     1       9.694  -7.719   2.474  1.00  0.00    -0.288 N 
HETATM   20  H   UNL     1      10.057  -7.501   3.397  1.00  0.00     0.188 HD
HETATM   21  C   UNL     1       8.400  -7.917   2.104  1.00  0.00     0.120 A 
ENDBRANCH  14  15
ENDBRANCH  11  14
ENDBRANCH   3  10
BRANCH   1  22
HETATM   22  N   UNL     1       5.252  -2.632  -0.460  1.00  0.00    -0.340 N 
HETATM   23  H   UNL     1       4.688  -1.794  -0.465  1.00  0.00     0.167 HD
BRANCH  22  24
HETATM   24  C   UNL     1       6.635  -2.386  -0.493  1.00  0.00     0.034 A 
HETATM   25  C   UNL     1       7.084  -1.076  -0.270  1.00  0.00     0.031 A 
HETATM   26  C   UNL     1       8.447  -0.768  -0.251  1.00  0.00     0.022 A 
HETATM   27  C   UNL     1       9.394  -1.774  -0.446  1.00  0.00     0.017 A 
HETATM   28  C   UNL     1       8.984  -3.093  -0.670  1.00  0.00    -0.043 A 
HETATM   29 BR   UNL     1      11.226  -1.279  -0.390  1.00  0.00    -0.051 Br
HETATM   30  C   UNL     1       9.961  -4.219  -0.871  1.00  0.00     0.049 C 
HETATM   31  C   UNL     1       7.603  -3.376  -0.690  1.00  0.00     0.037 A 
ENDBRANCH  22  24
ENDBRANCH   1  22
TORSDOF 5
