REMARK  5 active torsions:
REMARK  status: ('A' for Active; 'I' for Inactive)
REMARK    1  A    between atoms: C_3  and  C_4 
REMARK    2  A    between atoms: C_7  and  C_8 
REMARK    3  A    between atoms: C_8  and  N_9 
REMARK    4  A    between atoms: C_16  and  O_17 
REMARK    5  A    between atoms: C_18  and  O_19 
ROOT
HETATM    1  N   UNL     1       4.156   6.364  -1.767  1.00  0.00    -0.067 N 
HETATM    2  H   UNL     1       4.518   5.412  -1.632  1.00  0.00     0.280 HD
HETATM    3  C   UNL     1       5.243   7.326  -1.321  1.00  0.00     0.240 C 
HETATM    4  C   UNL     1       5.564   8.165  -2.555  1.00  0.00     0.020 C 
HETATM    5  C   UNL     1       5.258   7.205  -3.707  1.00  0.00     0.020 C 
HETATM    6  C   UNL     1       3.964   6.537  -3.262  1.00  0.00     0.240 C 
HETATM    7  C   UNL     1       4.735   9.464  -2.602  1.00  0.00     0.041 C 
HETATM    8  C   UNL     1       4.810  10.138  -3.970  1.00  0.00     0.147 C 
HETATM    9  C   UNL     1       4.357   9.168  -5.073  1.00  0.00     0.147 C 
HETATM   10  C   UNL     1       5.178   7.876  -5.074  1.00  0.00     0.041 C 
ENDROOT
BRANCH   1  11
HETATM   11  C   UNL     1       2.892   6.447  -0.953  1.00  0.00     0.273 C 
BRANCH  11  12
HETATM   12  C   UNL     1       1.877   5.407  -1.337  1.00  0.00    -0.033 A 
HETATM   13  C   UNL     1       2.038   4.069  -0.953  1.00  0.00     0.010 A 
HETATM   14  C   UNL     1       1.103   3.103  -1.342  1.00  0.00     0.013 A 
HETATM   15  C   UNL     1      -0.011   3.441  -2.126  1.00  0.00    -0.023 A 
HETATM   16  C   UNL     1      -0.162   4.784  -2.503  1.00  0.00     0.013 A 
HETATM   17  C   UNL     1       0.765   5.755  -2.115  1.00  0.00     0.010 A 
BRANCH  15  18
HETATM   18  C   UNL     1      -0.996   2.425  -2.534  1.00  0.00     0.013 A 
HETATM   19  C   UNL     1      -1.604   1.584  -1.586  1.00  0.00     0.015 A 
HETATM   20  C   UNL     1      -2.550   0.627  -1.971  1.00  0.00     0.001 A 
HETATM   21  C   UNL     1      -2.905   0.492  -3.311  1.00  0.00     0.003 A 
HETATM   22  C   UNL     1      -2.314   1.313  -4.268  1.00  0.00     0.043 A 
HETATM   23  C   UNL     1      -1.374   2.265  -3.878  1.00  0.00     0.127 A 
HETATM   24  F   UNL     1      -0.819   3.034  -4.829  1.00  0.00    -0.205 F 
ENDBRANCH  15  18
ENDBRANCH  11  12
ENDBRANCH   1  11
BRANCH   8  25
HETATM   25  O   UNL     1       6.162  10.521  -4.225  1.00  0.00    -0.393 OA
HETATM   26  H   UNL     1       6.300  11.402  -3.829  1.00  0.00     0.210 HD
ENDBRANCH   8  25
BRANCH   9  27
HETATM   27  O   UNL     1       4.492   9.791  -6.345  1.00  0.00    -0.393 OA
HETATM   28  H   UNL     1       5.384  10.192  -6.365  1.00  0.00     0.210 HD
ENDBRANCH   9  27
TORSDOF 5
