REMARK  8 active torsions:
REMARK  status: ('A' for Active; 'I' for Inactive)
REMARK    1  A    between atoms: C_2  and  C_3 
REMARK    2  A    between atoms: C_6  and  C_7 
REMARK    3  A    between atoms: C_11  and  C_12 
REMARK    4  A    between atoms: C_12  and  C_13 
REMARK    5  A    between atoms: C_13  and  C_14 
REMARK    6  A    between atoms: C_14  and  O_15 
REMARK    7  A    between atoms: C_20  and  C_21 
REMARK       I    between atoms: C_21  and  N_22 
REMARK    8  A    between atoms: N_22  and  C_23 
ROOT
HETATM    1  C   UNL     1       3.172   5.251  -3.046  1.00  0.00     0.202 C 
HETATM    2  N   UNL     1       2.120   6.214  -2.697  1.00  0.00    -0.083 N 
HETATM    3  C   UNL     1       2.353   7.390  -2.038  1.00  0.00     0.726 A 
HETATM    4  N   UNL     1       1.215   7.990  -1.800  1.00  0.00    -0.046 NA
HETATM    5  C   UNL     1       0.289   7.107  -2.306  1.00  0.00     0.166 A 
HETATM    6  N   UNL     1       0.798   5.993  -2.854  1.00  0.00    -0.140 NA
HETATM    7  N   UNL     1       3.612   7.717  -1.685  1.00  0.00    -0.192 N 
HETATM    8  C   UNL     1       4.671   6.816  -1.759  1.00  0.00     0.037 C 
HETATM    9  C   UNL     1       5.908   7.214  -0.991  1.00  0.00     0.070 C 
HETATM   10  C   UNL     1       4.508   5.640  -2.416  1.00  0.00     0.062 C 
HETATM   11  H   UNL     1       3.731   8.532  -1.089  1.00  0.00     0.184 HD
ENDROOT
BRANCH  10  12
HETATM   12  C   UNL     1       5.528   4.556  -2.475  1.00  0.00     0.256 C 
HETATM   13  N   UNL     1       6.768   4.975  -2.905  1.00  0.00    -0.323 N 
HETATM   14  H   UNL     1       6.864   5.951  -3.151  1.00  0.00     0.169 HD
HETATM   15  O   UNL     1       5.192   3.418  -2.172  1.00  0.00    -0.267 OA
BRANCH  13  16
HETATM   16  C   UNL     1       7.945   4.201  -2.980  1.00  0.00     0.035 A 
HETATM   17  C   UNL     1       7.982   2.817  -2.792  1.00  0.00     0.031 A 
HETATM   18  C   UNL     1       9.195   2.122  -2.857  1.00  0.00     0.026 A 
HETATM   19  C   UNL     1      10.379   2.811  -3.103  1.00  0.00     0.034 A 
HETATM   20 CL   UNL     1      11.871   1.959  -3.164  1.00  0.00    -0.084 Cl
HETATM   21  C   UNL     1      10.358   4.189  -3.297  1.00  0.00     0.026 A 
HETATM   22  C   UNL     1       9.143   4.880  -3.245  1.00  0.00     0.031 A 
ENDBRANCH  13  16
ENDBRANCH  10  12
BRANCH   1  23
HETATM   23  C   UNL     1       3.268   5.092  -4.561  1.00  0.00    -0.028 A 
HETATM   24  C   UNL     1       3.505   6.184  -5.412  1.00  0.00     0.010 A 
HETATM   25  C   UNL     1       3.581   6.006  -6.797  1.00  0.00     0.007 A 
HETATM   26  C   UNL     1       3.423   4.734  -7.361  1.00  0.00    -0.059 A 
HETATM   27  C   UNL     1       3.208   3.641  -6.515  1.00  0.00     0.007 A 
HETATM   28  C   UNL     1       3.134   3.817  -5.132  1.00  0.00     0.010 A 
BRANCH  26  29
HETATM   29  C   UNL     1       3.491   4.540  -8.855  1.00  0.00     0.034 C 
HETATM   30  C   UNL     1       4.847   4.018  -9.304  1.00  0.00     0.010 C 
ENDBRANCH  26  29
ENDBRANCH   1  23
BRANCH   5  31
HETATM   31  C   UNL     1      -1.174   7.343  -2.199  1.00  0.00     0.085 C 
BRANCH  31  32
HETATM   32  C   UNL     1      -1.619   8.705  -2.723  1.00  0.00     0.034 C 
BRANCH  32  33
HETATM   33  C   UNL     1      -1.388   8.867  -4.220  1.00  0.00     0.164 C 
BRANCH  33  34
HETATM   34  O   UNL     1      -1.919  10.115  -4.653  1.00  0.00    -0.401 OA
HETATM   35  H   UNL     1      -2.874  10.107  -4.472  1.00  0.00     0.209 HD
ENDBRANCH  33  34
ENDBRANCH  32  33
ENDBRANCH  31  32
ENDBRANCH   5  31
TORSDOF 8
