REMARK  6 active torsions:
REMARK  status: ('A' for Active; 'I' for Inactive)
REMARK    1  A    between atoms: C_2  and  C_3 
REMARK    2  A    between atoms: C_3  and  C_4 
REMARK    3  A    between atoms: C_7  and  C_8 
REMARK    4  A    between atoms: C_8  and  C_9 
REMARK       I    between atoms: C_9  and  N_10 
REMARK    5  A    between atoms: N_10  and  C_11 
REMARK    6  A    between atoms: C_18  and  C_19 
REMARK       I    between atoms: C_19  and  N_20 
ROOT
HETATM    1  C   UNL     1       1.822  -2.058  -8.709  1.00  0.00     0.035 A 
HETATM    2  C   UNL     1       0.484  -2.006  -9.122  1.00  0.00     0.046 A 
HETATM    3  C   UNL     1       0.167  -1.511 -10.406  1.00  0.00     0.030 A 
HETATM    4  C   UNL     1       1.198  -1.083 -11.232  1.00  0.00     0.063 A 
HETATM    5  N   UNL     1       0.591  -0.667 -12.384  1.00  0.00    -0.277 N 
HETATM    6  H   UNL     1       1.038  -0.290 -13.212  1.00  0.00     0.189 HD
HETATM    7  N   UNL     1      -0.746  -0.786 -12.384  1.00  0.00    -0.168 NA
HETATM    8  C   UNL     1      -1.025  -1.308 -11.167  1.00  0.00     0.156 A 
HETATM    9  C   UNL     1       2.542  -1.120 -10.856  1.00  0.00     0.034 A 
HETATM   10  C   UNL     1       2.830  -1.618  -9.579  1.00  0.00     0.032 A 
ENDROOT
BRANCH   1  11
HETATM   11  N   UNL     1       2.238  -2.552  -7.453  1.00  0.00    -0.327 N 
HETATM   12  C   UNL     1       1.438  -2.980  -6.407  1.00  0.00     0.226 C 
HETATM   13  O   UNL     1       0.212  -2.958  -6.369  1.00  0.00    -0.273 OA
HETATM   14  H   UNL     1       3.236  -2.545  -7.276  1.00  0.00     0.169 HD
BRANCH  12  15
HETATM   15  C   UNL     1       2.234  -3.557  -5.246  1.00  0.00     0.141 C 
BRANCH  15  16
HETATM   16  C   UNL     1       3.156  -2.579  -4.556  1.00  0.00    -0.049 A 
HETATM   17  C   UNL     1       2.743  -1.274  -4.258  1.00  0.00     0.008 A 
HETATM   18  C   UNL     1       3.587  -0.401  -3.567  1.00  0.00     0.007 A 
HETATM   19  C   UNL     1       4.852  -0.820  -3.136  1.00  0.00    -0.058 A 
HETATM   20  C   UNL     1       5.262  -2.126  -3.427  1.00  0.00     0.007 A 
HETATM   21  C   UNL     1       4.422  -2.998  -4.125  1.00  0.00     0.008 A 
BRANCH  19  22
HETATM   22  C   UNL     1       5.751   0.113  -2.361  1.00  0.00     0.042 C 
BRANCH  22  23
HETATM   23  C   UNL     1       5.557   0.136  -0.829  1.00  0.00    -0.019 C 
HETATM   24  C   UNL     1       5.827  -1.220  -0.174  1.00  0.00     0.010 C 
HETATM   25  C   UNL     1       4.187   0.668  -0.409  1.00  0.00     0.010 C 
ENDBRANCH  22  23
ENDBRANCH  19  22
ENDBRANCH  15  16
ENDBRANCH  12  15
ENDBRANCH   1  11
BRANCH   8  26
HETATM   26  C   UNL     1      -2.408  -1.601 -10.764  1.00  0.00     0.270 C 
HETATM   27  N   UNL     1      -3.344  -1.287 -11.712  1.00  0.00    -0.365 N 
HETATM   28  H   UNL     1      -3.031  -0.893 -12.591  1.00  0.00     0.159 HD
HETATM   29  H   UNL     1      -4.319  -1.455 -11.524  1.00  0.00     0.159 HD
HETATM   30  O   UNL     1      -2.736  -2.083  -9.686  1.00  0.00    -0.266 OA
ENDBRANCH   8  26
TORSDOF 6
