REMARK  5 active torsions:
REMARK  status: ('A' for Active; 'I' for Inactive)
REMARK    1  A    between atoms: C_2  and  C_3 
REMARK    2  A    between atoms: C_3  and  N_4 
REMARK    3  A    between atoms: C_3  and  C_19 
REMARK       I    between atoms: N_4  and  C_5 
REMARK    4  A    between atoms: C_5  and  C_6 
REMARK    5  A    between atoms: C_7  and  C_8 
ROOT
HETATM    1  N   UNL     1       2.702   0.198   2.213  1.00  0.00    -0.345 N 
HETATM    2  C   UNL     1       1.463   0.081   2.793  1.00  0.00     0.255 C 
HETATM    3  O   UNL     1       1.289  -0.491   3.865  1.00  0.00    -0.268 OA
HETATM    4  H   UNL     1       2.778   0.532   1.264  1.00  0.00     0.163 HD
ENDROOT
BRANCH   2   5
HETATM    5  C   UNL     1       0.381   0.709   2.051  1.00  0.00     0.075 A 
HETATM    6  C   UNL     1      -0.849   1.235   2.559  1.00  0.00     0.076 A 
HETATM    7  N   UNL     1      -1.608   1.736   1.572  1.00  0.00    -0.178 NA
HETATM    8  N   UNL     1      -0.892   1.534   0.461  1.00  0.00    -0.288 N 
HETATM    9  H   UNL     1      -1.289   1.833  -0.424  1.00  0.00     0.188 HD
HETATM   10  C   UNL     1       0.309   0.935   0.689  1.00  0.00     0.128 A 
BRANCH   6  11
HETATM   11  C   UNL     1      -1.306   1.282   4.004  1.00  0.00     0.040 C 
HETATM   12  C   UNL     1      -0.439   2.228   4.857  1.00  0.00     0.011 C 
HETATM   13  C   UNL     1      -0.769   3.701   4.634  1.00  0.00     0.001 C 
HETATM   14  C   UNL     1      -2.244   3.982   4.897  1.00  0.00     0.000 C 
HETATM   15  C   UNL     1      -3.144   3.092   4.049  1.00  0.00     0.001 C 
HETATM   16  C   UNL     1      -2.801   1.607   4.201  1.00  0.00     0.011 C 
ENDBRANCH   6  11
ENDBRANCH   2   5
BRANCH   1  17
HETATM   17  C   UNL     1       3.883  -0.408   2.797  1.00  0.00     0.154 C 
BRANCH  17  18
HETATM   18  C   UNL     1       5.121   0.470   2.573  1.00  0.00     0.028 C 
HETATM   19  C   UNL     1       5.029   1.797   3.317  1.00  0.00     0.007 C 
ENDBRANCH  17  18
BRANCH  17  20
HETATM   20  C   UNL     1       4.039  -1.759   2.165  1.00  0.00     0.127 A 
HETATM   21  N   UNL     1       4.741  -2.074   1.093  1.00  0.00    -0.237 NA
HETATM   22  C   UNL     1       4.568  -3.425   0.912  1.00  0.00     0.048 A 
HETATM   23  C   UNL     1       5.242  -4.134  -0.197  1.00  0.00     0.072 C 
HETATM   24  C   UNL     1       3.728  -3.932   1.879  1.00  0.00     0.116 A 
HETATM   25  N   UNL     1       3.387  -2.863   2.659  1.00  0.00    -0.351 N 
HETATM   26  H   UNL     1       2.754  -2.861   3.449  1.00  0.00     0.166 HD
ENDBRANCH  17  20
ENDBRANCH   1  17
TORSDOF 5
