REMARK  7 active torsions:
REMARK  status: ('A' for Active; 'I' for Inactive)
REMARK    1  A    between atoms: C_3  and  N_4 
REMARK       I    between atoms: N_4  and  C_5 
REMARK    2  A    between atoms: C_5  and  C_6 
REMARK    3  A    between atoms: C_7  and  C_8 
REMARK    4  A    between atoms: C_19  and  C_20 
REMARK    5  A    between atoms: C_20  and  C_21 
REMARK    6  A    between atoms: C_21  and  C_22 
REMARK    7  A    between atoms: C_22  and  O_23 
ROOT
HETATM    1  C   UNL     1       4.591   3.580  -0.299  1.00  0.00     0.062 A 
HETATM    2  C   UNL     1       5.322   4.860  -0.698  1.00  0.00     0.202 A 
HETATM    3  N   UNL     1       6.691   4.890  -0.169  1.00  0.00    -0.083 N 
HETATM    4  C   UNL     1       7.228   3.910   0.620  1.00  0.00     0.726 A 
HETATM    5  N   UNL     1       6.486   2.832   0.930  1.00  0.00    -0.192 N 
HETATM    6  N   UNL     1       7.530   5.942  -0.282  1.00  0.00    -0.140 NA
HETATM    7  C   UNL     1       8.600   5.481   0.382  1.00  0.00     0.166 A 
HETATM    8  N   UNL     1       8.446   4.243   0.961  1.00  0.00    -0.046 NA
HETATM    9  C   UNL     1       5.186   2.639   0.477  1.00  0.00     0.037 A 
HETATM   10  C   UNL     1       4.524   1.357   0.923  1.00  0.00     0.070 C 
HETATM   11  H   UNL     1       6.902   2.099   1.497  1.00  0.00     0.184 HD
ENDROOT
BRANCH   1  12
HETATM   12  C   UNL     1       3.251   3.339  -0.909  1.00  0.00     0.256 C 
HETATM   13  N   UNL     1       2.406   4.421  -0.813  1.00  0.00    -0.323 N 
HETATM   14  H   UNL     1       2.615   5.084  -0.079  1.00  0.00     0.169 HD
HETATM   15  O   UNL     1       2.996   2.245  -1.394  1.00  0.00    -0.267 OA
BRANCH  13  16
HETATM   16  C   UNL     1       1.157   4.614  -1.452  1.00  0.00     0.041 A 
HETATM   17  C   UNL     1       0.740   4.044  -2.669  1.00  0.00    -0.035 A 
HETATM   18  C   UNL     1       1.590   3.180  -3.561  1.00  0.00     0.050 C 
HETATM   19  C   UNL     1      -0.563   4.320  -3.138  1.00  0.00     0.009 A 
HETATM   20  C   UNL     1      -1.413   5.189  -2.459  1.00  0.00     0.001 A 
HETATM   21  C   UNL     1      -0.976   5.803  -1.295  1.00  0.00     0.002 A 
HETATM   22  C   UNL     1       0.298   5.520  -0.801  1.00  0.00     0.030 A 
ENDBRANCH  13  16
ENDBRANCH   1  12
BRANCH   2  23
HETATM   23  C   UNL     1       5.326   5.123  -2.201  1.00  0.00    -0.028 A 
HETATM   24  C   UNL     1       4.807   6.333  -2.698  1.00  0.00     0.011 A 
HETATM   25  C   UNL     1       4.773   6.582  -4.071  1.00  0.00     0.024 A 
HETATM   26  C   UNL     1       5.259   5.628  -4.960  1.00  0.00     0.034 A 
HETATM   27 CL   UNL     1       5.207   5.933  -6.652  1.00  0.00    -0.084 Cl
HETATM   28  C   UNL     1       5.786   4.428  -4.487  1.00  0.00     0.024 A 
HETATM   29  C   UNL     1       5.823   4.176  -3.113  1.00  0.00     0.011 A 
ENDBRANCH   2  23
BRANCH   7  30
HETATM   30  C   UNL     1       9.858   6.257   0.521  1.00  0.00     0.085 C 
BRANCH  30  31
HETATM   31  C   UNL     1       9.856   7.203   1.719  1.00  0.00     0.034 C 
BRANCH  31  32
HETATM   32  C   UNL     1       9.767   6.475   3.056  1.00  0.00     0.164 C 
BRANCH  32  33
HETATM   33  O   UNL     1       9.889   7.415   4.119  1.00  0.00    -0.401 OA
HETATM   34  H   UNL     1      10.777   7.808   4.062  1.00  0.00     0.209 HD
ENDBRANCH  32  33
ENDBRANCH  31  32
ENDBRANCH  30  31
ENDBRANCH   7  30
TORSDOF 7
