REMARK  6 active torsions:
REMARK  status: ('A' for Active; 'I' for Inactive)
REMARK    1  A    between atoms: C_7  and  S_8 
REMARK    2  A    between atoms: S_8  and  C_9 
REMARK    3  A    between atoms: C_9  and  C_10 
REMARK    4  A    between atoms: C_18  and  C_19 
REMARK    5  A    between atoms: C_27  and  C_28 
REMARK    6  A    between atoms: C_28  and  O_29 
ROOT
HETATM    1  C   UNL     1       0.984   0.042  -0.077  1.00  0.00     0.070 C 
HETATM    2  C   UNL     1       2.484   0.001   0.070  1.00  0.00     0.037 A 
HETATM    3  N   UNL     1       3.118   1.239   0.113  1.00  0.00    -0.192 N 
HETATM    4  C   UNL     1       4.448   1.388   0.252  1.00  0.00     0.726 A 
HETATM    5  N   UNL     1       5.243   0.279   0.307  1.00  0.00    -0.082 N 
HETATM    6  N   UNL     1       6.546   0.610   0.404  1.00  0.00    -0.128 NA
HETATM    7  C   UNL     1       6.458   1.945   0.487  1.00  0.00     0.226 A 
HETATM    8  N   UNL     1       5.189   2.458   0.365  1.00  0.00    -0.035 NA
HETATM    9  C   UNL     1       4.741  -1.103   0.260  1.00  0.00     0.208 A 
HETATM   10  C   UNL     1       3.221  -1.136   0.137  1.00  0.00     0.070 A 
HETATM   11  H   UNL     1       2.531   2.069   0.121  1.00  0.00     0.184 HD
ENDROOT
BRANCH   7  12
HETATM   12  S   UNL     1       7.833   2.975   0.767  1.00  0.00    -0.083 SA
BRANCH  12  13
HETATM   13  C   UNL     1       9.186   1.767   0.796  1.00  0.00     0.123 C 
BRANCH  13  14
HETATM   14  C   UNL     1      10.478   2.400   1.263  1.00  0.00    -0.027 A 
HETATM   15  C   UNL     1      10.918   2.338   2.596  1.00  0.00     0.041 A 
HETATM   16 CL   UNL     1      10.027   1.508   3.823  1.00  0.00    -0.084 Cl
HETATM   17  C   UNL     1      12.112   2.958   2.981  1.00  0.00     0.024 A 
HETATM   18  C   UNL     1      12.876   3.655   2.047  1.00  0.00     0.002 A 
HETATM   19  C   UNL     1      12.449   3.736   0.725  1.00  0.00     0.001 A 
HETATM   20  C   UNL     1      11.261   3.114   0.335  1.00  0.00     0.009 A 
ENDBRANCH  13  14
ENDBRANCH  12  13
ENDBRANCH   7  12
BRANCH   9  21
HETATM   21  C   UNL     1       5.286  -1.876   1.453  1.00  0.00     0.032 A 
HETATM   22  C   UNL     1       6.223  -2.914   1.328  1.00  0.00     0.045 A 
HETATM   23 CL   UNL     1       6.818  -3.446  -0.205  1.00  0.00    -0.084 Cl
HETATM   24  C   UNL     1       6.720  -3.573   2.461  1.00  0.00     0.024 A 
HETATM   25  C   UNL     1       6.295  -3.207   3.737  1.00  0.00     0.005 A 
HETATM   26  C   UNL     1       5.370  -2.180   3.881  1.00  0.00     0.043 A 
HETATM   27  C   UNL     1       4.881  -1.529   2.751  1.00  0.00     0.126 A 
HETATM   28  F   UNL     1       3.996  -0.538   2.931  1.00  0.00    -0.205 F 
ENDBRANCH   9  21
BRANCH  10  29
HETATM   29  C   UNL     1       2.588  -2.470   0.133  1.00  0.00     0.293 C 
HETATM   30  O   UNL     1       1.596  -2.769   0.777  1.00  0.00    -0.259 OA
BRANCH  29  31
HETATM   31  O   UNL     1       3.290  -3.294  -0.681  1.00  0.00    -0.323 OA
HETATM   32  C   UNL     1       2.777  -4.627  -0.735  1.00  0.00     0.213 C 
ENDBRANCH  29  31
ENDBRANCH  10  29
TORSDOF 6
