REMARK  8 active torsions:
REMARK  status: ('A' for Active; 'I' for Inactive)
REMARK    1  A    between atoms: O_2  and  C_3 
REMARK    2  A    between atoms: C_5  and  O_6 
REMARK    3  A    between atoms: C_8  and  C_9 
REMARK    4  A    between atoms: N_10  and  C_12 
REMARK    5  A    between atoms: C_12  and  C_13 
REMARK       I    between atoms: C_13  and  N_14 
REMARK    6  A    between atoms: N_14  and  C_15 
REMARK    7  A    between atoms: C_16  and  C_17 
REMARK    8  A    between atoms: C_17  and  C_18 
ROOT
HETATM    1  C   UNL     1       1.937   4.267  -2.739  1.00  0.00     0.338 C 
ENDROOT
BRANCH   1   2
HETATM    2  N   UNL     1       3.259   5.032  -2.763  1.00  0.00    -0.054 N 
HETATM    3  C   UNL     1       4.328   4.747  -1.704  1.00  0.00     0.224 C 
HETATM    4  C   UNL     1       4.281   6.007  -0.839  1.00  0.00     0.040 C 
HETATM    5  C   UNL     1       4.127   7.100  -1.878  1.00  0.00     0.030 C 
HETATM    6  C   UNL     1       3.083   6.544  -2.829  1.00  0.00     0.236 C 
HETATM    7  H   UNL     1       3.704   4.726  -3.637  1.00  0.00     0.281 HD
BRANCH   3   8
HETATM    8  C   UNL     1       4.314   3.392  -1.037  1.00  0.00     0.006 A 
HETATM    9  C   UNL     1       4.418   2.216  -1.815  1.00  0.00     0.079 A 
HETATM   10  C   UNL     1       4.374   0.954  -1.206  1.00  0.00     0.074 A 
HETATM   11  C   UNL     1       4.269   0.846   0.180  1.00  0.00     0.070 A 
HETATM   12  C   UNL     1       4.248   2.002   0.956  1.00  0.00     0.037 A 
HETATM   13  C   UNL     1       4.268   3.263   0.359  1.00  0.00     0.015 A 
BRANCH   9  14
HETATM   14  O   UNL     1       4.521   2.418  -3.172  1.00  0.00    -0.355 OA
HETATM   15  C   UNL     1       4.767   1.270  -3.987  1.00  0.00     0.210 C 
ENDBRANCH   9  14
BRANCH  11  16
HETATM   16  O   UNL     1       4.192  -0.315   0.894  1.00  0.00    -0.356 OA
HETATM   17  C   UNL     1       3.953  -1.516   0.168  1.00  0.00     0.210 C 
ENDBRANCH  11  16
ENDBRANCH   3   8
ENDBRANCH   1   2
BRANCH   1  18
HETATM   18  C   UNL     1       0.887   4.701  -1.712  1.00  0.00     0.248 C 
HETATM   19  N   UNL     1       1.061   4.146  -0.465  1.00  0.00    -0.325 N 
HETATM   20  H   UNL     1       1.700   3.360  -0.433  1.00  0.00     0.169 HD
HETATM   21  O   UNL     1       0.002   5.461  -2.082  1.00  0.00    -0.271 OA
BRANCH  19  22
HETATM   22  C   UNL     1       0.384   4.351   0.767  1.00  0.00     0.041 A 
HETATM   23  C   UNL     1      -0.517   5.370   1.137  1.00  0.00    -0.027 A 
HETATM   24  C   UNL     1      -1.040   5.354   2.459  1.00  0.00     0.010 A 
HETATM   25  C   UNL     1      -0.689   4.383   3.393  1.00  0.00     0.001 A 
HETATM   26  C   UNL     1       0.198   3.390   3.031  1.00  0.00     0.002 A 
HETATM   27  C   UNL     1       0.722   3.378   1.739  1.00  0.00     0.030 A 
BRANCH  23  28
HETATM   28  C   UNL     1      -1.003   6.531   0.291  1.00  0.00     0.079 C 
BRANCH  28  29
HETATM   29  C   UNL     1      -0.017   7.654   0.032  1.00  0.00    -0.054 A 
HETATM   30  C   UNL     1      -0.139   8.407  -1.148  1.00  0.00     0.007 A 
HETATM   31  C   UNL     1       0.667   9.523  -1.376  1.00  0.00     0.001 A 
HETATM   32  C   UNL     1       1.599   9.912  -0.419  1.00  0.00     0.000 A 
HETATM   33  C   UNL     1       1.727   9.183   0.762  1.00  0.00     0.001 A 
HETATM   34  C   UNL     1       0.921   8.064   0.989  1.00  0.00     0.007 A 
ENDBRANCH  28  29
ENDBRANCH  23  28
ENDBRANCH  19  22
ENDBRANCH   1  18
TORSDOF 8
