REMARK  6 active torsions:
REMARK  status: ('A' for Active; 'I' for Inactive)
REMARK    1  A    between atoms: C_4  and  C_5 
REMARK    2  A    between atoms: C_5  and  C_6 
REMARK    3  A    between atoms: C_6  and  N_7 
REMARK       I    between atoms: N_7  and  C_8 
REMARK    4  A    between atoms: C_8  and  C_9 
REMARK    5  A    between atoms: C_12  and  N_13 
REMARK       I    between atoms: N_13  and  C_14 
REMARK       I    between atoms: C_14  and  N_15 
REMARK    6  A    between atoms: N_15  and  C_16 
ROOT
HETATM    1  C   UNL     1       5.442  -3.739  -0.524  1.00  0.00     0.032 A 
HETATM    2  C   UNL     1       6.146  -4.801   0.053  1.00  0.00     0.019 A 
HETATM    3  C   UNL     1       5.543  -6.058   0.187  1.00  0.00     0.030 A 
HETATM    4  C   UNL     1       4.238  -6.275  -0.260  1.00  0.00     0.036 A 
HETATM    5  C   UNL     1       3.545  -5.215  -0.860  1.00  0.00     0.030 A 
HETATM    6  C   UNL     1       4.144  -3.958  -0.995  1.00  0.00     0.019 A 
ENDROOT
BRANCH   1   7
HETATM    7  C   UNL     1       6.032  -2.379  -0.670  1.00  0.00     0.251 C 
HETATM    8  N   UNL     1       7.038  -2.047   0.215  1.00  0.00    -0.357 N 
HETATM    9  H   UNL     1       7.128  -2.601   1.059  1.00  0.00     0.162 HD
HETATM   10  O   UNL     1       5.597  -1.608  -1.519  1.00  0.00    -0.268 OA
BRANCH   8  11
HETATM   11  C   UNL     1       7.552  -0.690   0.274  1.00  0.00     0.127 C 
BRANCH  11  12
HETATM   12  C   UNL     1       8.929  -0.610   0.938  1.00  0.00     0.058 C 
BRANCH  12  13
HETATM   13  C   UNL     1       8.947  -1.071   2.378  1.00  0.00    -0.057 A 
HETATM   14  C   UNL     1       9.726  -2.173   2.759  1.00  0.00     0.007 A 
HETATM   15  C   UNL     1       9.753  -2.597   4.089  1.00  0.00     0.001 A 
HETATM   16  C   UNL     1       9.003  -1.925   5.051  1.00  0.00     0.000 A 
HETATM   17  C   UNL     1       8.228  -0.826   4.686  1.00  0.00     0.001 A 
HETATM   18  C   UNL     1       8.203  -0.398   3.358  1.00  0.00     0.007 A 
ENDBRANCH  12  13
ENDBRANCH  11  12
ENDBRANCH   8  11
ENDBRANCH   1   7
BRANCH   4  19
HETATM   19  N   UNL     1       3.551  -7.500  -0.128  1.00  0.00    -0.309 N 
HETATM   20  C   UNL     1       4.037  -8.691   0.391  1.00  0.00     0.325 C 
HETATM   21  N   UNL     1       3.023  -9.631   0.497  1.00  0.00    -0.306 N 
HETATM   22  O   UNL     1       5.197  -8.894   0.728  1.00  0.00    -0.247 OA
HETATM   23  H   UNL     1       2.077  -9.362   0.278  1.00  0.00     0.171 HD
HETATM   24  H   UNL     1       2.613  -7.522  -0.497  1.00  0.00     0.170 HD
BRANCH  21  25
HETATM   25  C   UNL     1       3.200 -10.907   0.997  1.00  0.00     0.072 A 
HETATM   26  C   UNL     1       4.355 -11.594   1.435  1.00  0.00     0.169 A 
HETATM   27  N   UNL     1       4.080 -12.833   1.857  1.00  0.00    -0.185 NA
HETATM   28  N   UNL     1       2.753 -12.936   1.691  1.00  0.00    -0.287 N 
HETATM   29  H   UNL     1       2.305 -13.807   1.955  1.00  0.00     0.188 HD
HETATM   30  C   UNL     1       2.179 -11.810   1.174  1.00  0.00     0.140 A 
ENDBRANCH  21  25
ENDBRANCH   4  19
TORSDOF 6
