REMARK  4 active torsions:
REMARK  status: ('A' for Active; 'I' for Inactive)
REMARK    1  A    between atoms: C_3  and  N_4 
REMARK       I    between atoms: N_4  and  C_5 
REMARK    2  A    between atoms: C_5  and  C_6 
REMARK    3  A    between atoms: C_7  and  C_8 
REMARK    4  A    between atoms: C_19  and  C_20 
ROOT
HETATM    1  N   UNL     1       2.660  -0.043  -0.281  1.00  0.00    -0.324 N 
HETATM    2  C   UNL     1       3.764  -0.872  -0.254  1.00  0.00     0.245 C 
HETATM    3  O   UNL     1       4.935  -0.548  -0.402  1.00  0.00    -0.268 OA
HETATM    4  H   UNL     1       1.759  -0.462  -0.097  1.00  0.00     0.169 HD
ENDROOT
BRANCH   1   5
HETATM    5  C   UNL     1       2.641   1.344  -0.554  1.00  0.00     0.035 A 
HETATM    6  C   UNL     1       3.774   2.087  -0.886  1.00  0.00     0.029 A 
HETATM    7  C   UNL     1       3.670   3.450  -1.169  1.00  0.00     0.003 A 
HETATM    8  C   UNL     1       2.430   4.086  -1.119  1.00  0.00     0.012 A 
HETATM    9  C   UNL     1       1.280   3.365  -0.782  1.00  0.00    -0.021 A 
HETATM   10  C   UNL     1       1.397   1.993  -0.504  1.00  0.00     0.042 A 
BRANCH   9  11
HETATM   11  C   UNL     1      -0.008   4.036  -0.736  1.00  0.00     0.010 A 
HETATM   12  C   UNL     1      -0.499   5.144  -1.466  1.00  0.00     0.152 A 
HETATM   13  N   UNL     1      -1.744   5.483  -1.119  1.00  0.00    -0.187 NA
HETATM   14  N   UNL     1      -2.052   4.599  -0.157  1.00  0.00    -0.289 N 
HETATM   15  H   UNL     1      -2.966   4.665   0.279  1.00  0.00     0.188 HD
HETATM   16  C   UNL     1      -1.050   3.711   0.108  1.00  0.00     0.123 A 
ENDBRANCH   9  11
ENDBRANCH   1   5
BRANCH   2  17
HETATM   17  C   UNL     1       3.386  -2.296  -0.020  1.00  0.00     0.075 C 
HETATM   18  C   UNL     1       4.343  -3.238   0.005  1.00  0.00     0.017 C 
BRANCH  18  19
HETATM   19  C   UNL     1       4.099  -4.675   0.191  1.00  0.00    -0.035 A 
HETATM   20  C   UNL     1       5.064  -5.434   0.873  1.00  0.00     0.021 A 
HETATM   21  C   UNL     1       4.875  -6.801   0.993  1.00  0.00    -0.022 A 
HETATM   22  C   UNL     1       3.754  -7.414   0.459  1.00  0.00     0.075 A 
HETATM   23  C   UNL     1       5.693  -7.813   1.697  1.00  0.00     0.068 C 
HETATM   24  O   UNL     1       3.715  -8.767   0.668  1.00  0.00    -0.350 OA
HETATM   25  C   UNL     1       2.784  -6.700  -0.211  1.00  0.00     0.038 A 
HETATM   26  C   UNL     1       5.055  -9.077   1.120  1.00  0.00     0.180 C 
HETATM   27  C   UNL     1       2.968  -5.321  -0.355  1.00  0.00     0.014 A 
ENDBRANCH  18  19
ENDBRANCH   2  17
TORSDOF 4
