REMARK  4 active torsions:
REMARK  status: ('A' for Active; 'I' for Inactive)
REMARK    1  A    between atoms: C_5  and  C_6 
REMARK       I    between atoms: C_6  and  N_7 
REMARK    2  A    between atoms: N_7  and  C_8 
REMARK    3  A    between atoms: C_8  and  N_9 
REMARK    4  A    between atoms: N_9  and  C_10 
ROOT
HETATM    1  C   UNL     1       6.781   0.091  -1.014  1.00  0.00     0.257 C 
HETATM    2  N   UNL     1       7.213   1.398  -0.811  1.00  0.00    -0.299 N 
HETATM    3  O   UNL     1       5.621  -0.293  -1.095  1.00  0.00    -0.267 OA
HETATM    4  H   UNL     1       8.209   1.518  -0.649  1.00  0.00     0.171 HD
ENDROOT
BRANCH   2   5
HETATM    5  C   UNL     1       6.527   2.592  -0.709  1.00  0.00     0.180 C 
HETATM    6  S   UNL     1       4.883   2.833  -0.887  1.00  0.00    -0.040 SA
BRANCH   5   7
HETATM    7  N   UNL     1       7.288   3.701  -0.421  1.00  0.00    -0.318 N 
HETATM    8  H   UNL     1       6.749   4.551  -0.321  1.00  0.00     0.170 HD
BRANCH   7   9
HETATM    9  C   UNL     1       8.677   3.793  -0.244  1.00  0.00     0.129 A 
HETATM   10  N   UNL     1       9.443   2.691  -0.409  1.00  0.00    -0.243 NA
HETATM   11  C   UNL     1      10.776   2.829  -0.223  1.00  0.00     0.119 A 
HETATM   12  C   UNL     1      11.387   4.020   0.125  1.00  0.00     0.026 A 
HETATM   13  C   UNL     1      10.590   5.152   0.288  1.00  0.00    -0.057 A 
HETATM   14  C   UNL     1      11.187   6.464   0.701  1.00  0.00     0.048 C 
HETATM   15  C   UNL     1       9.209   5.030   0.102  1.00  0.00     0.057 A 
ENDBRANCH   7   9
ENDBRANCH   5   7
ENDBRANCH   2   5
BRANCH   1  16
HETATM   16  C   UNL     1       7.880  -0.914  -1.058  1.00  0.00     0.032 A 
HETATM   17  C   UNL     1       7.672  -2.155  -0.450  1.00  0.00     0.017 A 
HETATM   18  C   UNL     1       8.699  -3.101  -0.420  1.00  0.00     0.007 A 
HETATM   19  C   UNL     1       9.938  -2.821  -1.009  1.00  0.00    -0.062 A 
HETATM   20  C   UNL     1      11.056  -3.821  -0.964  1.00  0.00     0.048 C 
HETATM   21  C   UNL     1      10.130  -1.589  -1.647  1.00  0.00     0.007 A 
HETATM   22  C   UNL     1       9.106  -0.639  -1.677  1.00  0.00     0.017 A 
ENDBRANCH   1  16
TORSDOF 4
