REMARK  7 active torsions:
REMARK  status: ('A' for Active; 'I' for Inactive)
REMARK    1  A    between atoms: C_4  and  N_5 
REMARK    2  A    between atoms: N_5  and  C_6 
REMARK    3  A    between atoms: C_6  and  C_7 
REMARK    4  A    between atoms: C_7  and  N_8 
REMARK       I    between atoms: N_8  and  C_9 
REMARK    5  A    between atoms: C_9  and  C_10 
REMARK       I    between atoms: C_10  and  N_11 
REMARK    6  A    between atoms: N_11  and  C_12 
REMARK    7  A    between atoms: N_15  and  C_16 
ROOT
HETATM    1  C   UNL     1       6.967   7.615  -1.076  1.00  0.00     0.314 C 
HETATM    2  N   UNL     1       7.034   8.893  -1.571  1.00  0.00    -0.313 N 
HETATM    3  O   UNL     1       7.827   6.746  -1.057  1.00  0.00    -0.262 OA
HETATM    4  H   UNL     1       6.175   9.441  -1.466  1.00  0.00     0.169 HD
ENDROOT
BRANCH   1   5
HETATM    5  C   UNL     1       5.591   7.304  -0.443  1.00  0.00     0.309 C 
HETATM    6  N   UNL     1       5.530   6.077   0.176  1.00  0.00    -0.351 N 
HETATM    7  H   UNL     1       6.364   5.496   0.119  1.00  0.00     0.162 HD
HETATM    8  O   UNL     1       4.691   8.128  -0.502  1.00  0.00    -0.262 OA
BRANCH   6   9
HETATM    9  C   UNL     1       4.364   5.623   0.903  1.00  0.00     0.142 C 
BRANCH   9  10
HETATM   10  C   UNL     1       3.387   4.804   0.043  1.00  0.00     0.139 C 
BRANCH  10  11
HETATM   11  N   UNL     1       2.290   4.303   0.870  1.00  0.00    -0.388 N 
HETATM   12  H   UNL     1       2.574   4.022   1.806  1.00  0.00     0.159 HD
BRANCH  11  13
HETATM   13  C   UNL     1       1.355   3.409   0.339  1.00  0.00     0.028 A 
HETATM   14  C   UNL     1       1.144   3.218  -1.032  1.00  0.00     0.035 A 
HETATM   15  C   UNL     1       0.143   2.354  -1.509  1.00  0.00    -0.060 A 
HETATM   16  C   UNL     1      -0.044   2.128  -2.980  1.00  0.00     0.048 C 
HETATM   17  C   UNL     1      -0.679   1.688  -0.595  1.00  0.00     0.007 A 
HETATM   18  C   UNL     1      -0.517   1.900   0.770  1.00  0.00     0.003 A 
HETATM   19  C   UNL     1       0.482   2.762   1.227  1.00  0.00     0.029 A 
ENDBRANCH  11  13
ENDBRANCH  10  11
ENDBRANCH   9  10
ENDBRANCH   6   9
ENDBRANCH   1   5
BRANCH   2  20
HETATM   20  C   UNL     1       8.063   9.557  -2.178  1.00  0.00     0.124 A 
HETATM   21  C   UNL     1       7.852  10.978  -2.609  1.00  0.00     0.291 A 
HETATM   22  O   UNL     1       6.780  11.548  -2.463  1.00  0.00    -0.264 OA
HETATM   23  N   UNL     1       9.038  11.393  -3.216  1.00  0.00    -0.234 N 
HETATM   24  N   UNL     1       9.993  10.340  -3.137  1.00  0.00    -0.193 NA
HETATM   25  C   UNL     1      11.284  10.763  -2.564  1.00  0.00     0.143 C 
HETATM   26  C   UNL     1       9.324   9.254  -2.532  1.00  0.00     0.037 A 
HETATM   27  C   UNL     1      10.044   7.958  -2.341  1.00  0.00     0.066 C 
BRANCH  23  28
HETATM   28  C   UNL     1       9.153  12.439  -4.168  1.00  0.00     0.055 A 
HETATM   29  C   UNL     1       8.284  13.538  -4.136  1.00  0.00     0.031 A 
HETATM   30  C   UNL     1       8.395  14.573  -5.071  1.00  0.00     0.002 A 
HETATM   31  C   UNL     1       9.373  14.520  -6.059  1.00  0.00     0.000 A 
HETATM   32  C   UNL     1      10.240  13.433  -6.114  1.00  0.00     0.002 A 
HETATM   33  C   UNL     1      10.130  12.402  -5.175  1.00  0.00     0.031 A 
ENDBRANCH  23  28
ENDBRANCH   2  20
TORSDOF 7
