REMARK  6 active torsions:
REMARK  status: ('A' for Active; 'I' for Inactive)
REMARK    1  A    between atoms: O_2  and  C_3 
REMARK    2  A    between atoms: C_6  and  N_7 
REMARK    3  A    between atoms: C_16  and  C_17 
REMARK    4  A    between atoms: C_17  and  C_18 
REMARK    5  A    between atoms: C_26  and  C_27 
REMARK    6  A    between atoms: C_26  and  C_31 
ROOT
HETATM    1  N   UNL     1       5.352  -3.441   3.410  1.00  0.00    -0.249 N 
HETATM    2  C   UNL     1       5.076  -4.785   3.113  1.00  0.00     0.335 C 
HETATM    3  O   UNL     1       4.250  -5.188   2.299  1.00  0.00    -0.246 OA
HETATM    4  N   UNL     1       5.767  -5.708   3.850  1.00  0.00    -0.274 N 
HETATM    5  C   UNL     1       6.484  -5.433   4.964  1.00  0.00     0.262 C 
HETATM    6  O   UNL     1       6.813  -6.279   5.776  1.00  0.00    -0.267 OA
HETATM    7  C   UNL     1       6.878  -4.038   5.159  1.00  0.00     0.101 C 
HETATM    8  C   UNL     1       6.296  -3.113   4.384  1.00  0.00     0.132 C 
HETATM    9  N   UNL     1       6.686  -1.795   4.515  1.00  0.00    -0.331 N 
HETATM   10  C   UNL     1       7.519  -1.379   5.446  1.00  0.00     0.084 C 
HETATM   11  N   UNL     1       8.103  -2.216   6.275  1.00  0.00    -0.351 N 
HETATM   12  H   UNL     1       8.720  -1.845   7.004  1.00  0.00     0.162 HD
HETATM   13  C   UNL     1       7.945  -3.744   6.189  1.00  0.00     0.264 C 
HETATM   14  H   UNL     1       5.475  -6.670   3.711  1.00  0.00     0.173 HD
HETATM   15  H   UNL     1       6.294  -1.097   3.888  1.00  0.00     0.168 HD
ENDROOT
BRANCH   1  16
HETATM   16  C   UNL     1       4.621  -2.445   2.675  1.00  0.00     0.045 A 
HETATM   17  C   UNL     1       3.996  -1.378   3.337  1.00  0.00     0.033 A 
HETATM   18  C   UNL     1       3.361  -0.369   2.608  1.00  0.00     0.039 A 
HETATM   19  C   UNL     1       3.329  -0.409   1.213  1.00  0.00     0.068 A 
HETATM   20  C   UNL     1       3.911  -1.487   0.550  1.00  0.00     0.039 A 
HETATM   21  C   UNL     1       4.546  -2.502   1.277  1.00  0.00     0.033 A 
BRANCH  19  22
HETATM   22  O   UNL     1       2.703   0.654   0.627  1.00  0.00    -0.356 OA
HETATM   23  C   UNL     1       2.658   0.675  -0.796  1.00  0.00     0.210 C 
ENDBRANCH  19  22
ENDBRANCH   1  16
BRANCH  13  24
HETATM   24  C   UNL     1       9.310  -4.312   5.789  1.00  0.00     0.426 C 
HETATM   25  F   UNL     1       9.629  -3.849   4.549  1.00  0.00    -0.168 F 
HETATM   26  F   UNL     1      10.274  -3.859   6.622  1.00  0.00    -0.168 F 
HETATM   27  F   UNL     1       9.381  -5.647   5.740  1.00  0.00    -0.168 F 
ENDBRANCH  13  24
BRANCH  13  28
HETATM   28  C   UNL     1       7.675  -4.248   7.612  1.00  0.00     0.426 C 
HETATM   29  F   UNL     1       6.375  -4.048   7.936  1.00  0.00    -0.168 F 
HETATM   30  F   UNL     1       7.989  -5.525   7.853  1.00  0.00    -0.168 F 
HETATM   31  F   UNL     1       8.399  -3.488   8.482  1.00  0.00    -0.168 F 
ENDBRANCH  13  28
BRANCH  10  32
HETATM   32  C   UNL     1       7.788   0.085   5.568  1.00  0.00     0.114 C 
BRANCH  32  33
HETATM   33  C   UNL     1       6.690   0.795   6.320  1.00  0.00    -0.051 A 
HETATM   34  C   UNL     1       6.651   0.753   7.722  1.00  0.00     0.007 A 
HETATM   35  C   UNL     1       5.614   1.373   8.418  1.00  0.00     0.001 A 
HETATM   36  C   UNL     1       4.606   2.038   7.723  1.00  0.00     0.000 A 
HETATM   37  C   UNL     1       4.635   2.087   6.332  1.00  0.00     0.001 A 
HETATM   38  C   UNL     1       5.672   1.469   5.630  1.00  0.00     0.007 A 
ENDBRANCH  32  33
ENDBRANCH  10  32
TORSDOF 6
