REMARK  5 active torsions:
REMARK  status: ('A' for Active; 'I' for Inactive)
REMARK    1  A    between atoms: C_2  and  N_3 
REMARK    2  A    between atoms: C_2  and  C_14 
REMARK       I    between atoms: N_3  and  C_4 
REMARK       I    between atoms: C_4  and  N_5 
REMARK    3  A    between atoms: N_5  and  C_6 
REMARK    4  A    between atoms: C_6  and  C_7 
REMARK    5  A    between atoms: C_16  and  C_17 
ROOT
HETATM    1  C   UNL     1       3.522  -1.014   0.683  1.00  0.00     0.041 C 
HETATM    2  C   UNL     1       2.575   0.020   0.077  1.00  0.00     0.153 C 
ENDROOT
BRANCH   2   3
HETATM    3  N   UNL     1       2.709   0.072  -1.365  1.00  0.00    -0.332 N 
HETATM    4  C   UNL     1       2.114  -0.865  -2.160  1.00  0.00     0.317 C 
HETATM    5  N   UNL     1       2.484  -0.739  -3.468  1.00  0.00    -0.339 N 
HETATM    6  O   UNL     1       1.346  -1.720  -1.739  1.00  0.00    -0.247 OA
HETATM    7  H   UNL     1       2.790   0.175  -3.765  1.00  0.00     0.164 HD
HETATM    8  H   UNL     1       3.520   0.558  -1.722  1.00  0.00     0.165 HD
BRANCH   5   9
HETATM    9  C   UNL     1       1.877  -1.578  -4.475  1.00  0.00     0.162 C 
BRANCH   9  10
HETATM   10  C   UNL     1       2.710  -1.611  -5.729  1.00  0.00    -0.040 A 
HETATM   11  C   UNL     1       3.958  -2.254  -5.726  1.00  0.00     0.009 A 
HETATM   12  C   UNL     1       4.733  -2.305  -6.885  1.00  0.00     0.001 A 
HETATM   13  C   UNL     1       4.270  -1.713  -8.058  1.00  0.00     0.000 A 
HETATM   14  C   UNL     1       3.035  -1.067  -8.073  1.00  0.00     0.001 A 
HETATM   15  C   UNL     1       2.258  -1.014  -6.913  1.00  0.00     0.009 A 
ENDBRANCH   9  10
ENDBRANCH   5   9
ENDBRANCH   2   3
BRANCH   2  16
HETATM   16  C   UNL     1       2.871   1.382   0.608  1.00  0.00     0.145 A 
HETATM   17  N   UNL     1       3.807   2.230   0.230  1.00  0.00    -0.210 NA
HETATM   18  C   UNL     1       3.618   3.319   1.057  1.00  0.00     0.181 A 
HETATM   19  N   UNL     1       2.608   3.164   1.929  1.00  0.00    -0.152 NA
HETATM   20  N   UNL     1       2.150   1.945   1.618  1.00  0.00    -0.261 N 
HETATM   21  H   UNL     1       1.358   1.567   2.127  1.00  0.00     0.190 HD
BRANCH  18  22
HETATM   22  C   UNL     1       4.447   4.519   0.975  1.00  0.00     0.014 A 
HETATM   23  C   UNL     1       5.475   4.608   0.024  1.00  0.00     0.017 A 
HETATM   24  C   UNL     1       6.266   5.758  -0.064  1.00  0.00     0.025 A 
HETATM   25  C   UNL     1       6.035   6.826   0.799  1.00  0.00     0.034 A 
HETATM   26 CL   UNL     1       7.006   8.242   0.689  1.00  0.00    -0.084 Cl
HETATM   27  C   UNL     1       5.020   6.755   1.751  1.00  0.00     0.025 A 
HETATM   28  C   UNL     1       4.229   5.605   1.838  1.00  0.00     0.017 A 
ENDBRANCH  18  22
ENDBRANCH   2  16
TORSDOF 5
