REMARK  1 active torsions:
REMARK  status: ('A' for Active; 'I' for Inactive)
REMARK    1  A    between atoms: C_5  and  N_6 
ROOT
HETATM    1  N   UNL     1       1.987  -2.801  -0.215  1.00  0.00    -0.320 N 
HETATM    2  C   UNL     1       2.504  -3.486  -1.352  1.00  0.00     0.141 C 
HETATM    3  N   UNL     1       3.109  -2.883  -2.335  1.00  0.00    -0.380 N 
HETATM    4  H   UNL     1       3.465  -3.424  -3.111  1.00  0.00     0.158 HD
HETATM    5  H   UNL     1       3.222  -1.878  -2.311  1.00  0.00     0.158 HD
HETATM    6  S   UNL     1       2.275  -5.185  -1.283  1.00  0.00    -0.086 SA
HETATM    7  C   UNL     1       1.172  -5.030   0.190  1.00  0.00     0.093 C 
HETATM    8  C   UNL     1       1.608  -3.717   0.886  1.00  0.00     0.121 C 
HETATM    9  C   UNL     1       1.275  -6.174   1.177  1.00  0.00     0.158 C 
HETATM   10  S   UNL     1       2.527  -5.708   2.346  1.00  0.00     0.147 S 
HETATM   11  O   UNL     1       3.719  -6.487   2.095  1.00  0.00    -0.228 OA
HETATM   12  O   UNL     1       1.913  -5.623   3.653  1.00  0.00    -0.228 OA
HETATM   13  C   UNL     1       2.809  -4.055   1.770  1.00  0.00     0.167 C 
ENDROOT
BRANCH   1  14
HETATM   14  C   UNL     1       1.768  -1.415  -0.055  1.00  0.00     0.048 A 
HETATM   15  C   UNL     1       1.133  -0.626  -1.069  1.00  0.00     0.001 A 
HETATM   16  C   UNL     1       1.077   0.785  -0.913  1.00  0.00    -0.024 A 
HETATM   17  C   UNL     1       0.514  -1.161  -2.227  1.00  0.00     0.014 A 
HETATM   18  C   UNL     1       0.506   1.590  -1.912  1.00  0.00     0.012 A 
HETATM   19  C   UNL     1       1.581   1.383   0.246  1.00  0.00     0.012 A 
HETATM   20  C   UNL     1      -0.046   1.029  -3.060  1.00  0.00     0.001 A 
HETATM   21  C   UNL     1      -0.055  -0.349  -3.212  1.00  0.00     0.001 A 
HETATM   22  C   UNL     1       2.139   0.611   1.257  1.00  0.00     0.003 A 
HETATM   23  C   UNL     1       2.234  -0.770   1.104  1.00  0.00     0.030 A 
ENDBRANCH   1  14
TORSDOF 1
