REMARK  6 active torsions:
REMARK  status: ('A' for Active; 'I' for Inactive)
REMARK    1  A    between atoms: C_2  and  N_3 
REMARK    2  A    between atoms: C_2  and  C_16 
REMARK    3  A    between atoms: N_3  and  C_6 
REMARK    4  A    between atoms: C_16  and  C_17 
REMARK       I    between atoms: C_17  and  N_18 
REMARK    5  A    between atoms: N_18  and  C_19 
REMARK    6  A    between atoms: C_22  and  O_23 
ROOT
HETATM    1  C   UNL     1       3.009  -1.083   0.868  1.00  0.00     0.040 C 
HETATM    2  C   UNL     1       2.309   0.153   0.313  1.00  0.00     0.191 C 
ENDROOT
BRANCH   2   3
HETATM    3  N   UNL     1       2.209   0.048  -1.192  1.00  0.00    -0.063 N 
HETATM    4  H   UNL     1       1.794   0.958  -1.496  1.00  0.00     0.278 HD
HETATM    5  H   UNL     1       3.147   0.026  -1.607  1.00  0.00     0.278 HD
BRANCH   3   6
HETATM    6  C   UNL     1       1.347  -1.031  -1.796  1.00  0.00     0.221 C 
HETATM    7  C   UNL     1      -0.118  -0.842  -1.511  1.00  0.00    -0.011 A 
HETATM    8  C   UNL     1      -0.921  -0.024  -2.319  1.00  0.00     0.009 A 
HETATM    9  C   UNL     1      -0.697  -1.492  -0.402  1.00  0.00     0.011 A 
HETATM   10  C   UNL     1      -2.275   0.143  -1.996  1.00  0.00     0.019 A 
HETATM   11  S   UNL     1      -0.342   0.838  -3.768  1.00  0.00    -0.129 SA
HETATM   12  C   UNL     1      -2.835  -0.498  -0.891  1.00  0.00     0.001 A 
HETATM   13  C   UNL     1      -2.046  -1.318  -0.095  1.00  0.00     0.001 A 
HETATM   14  C   UNL     1       1.313   0.155  -4.060  1.00  0.00     0.082 C 
HETATM   15  C   UNL     1       1.620  -1.122  -3.300  1.00  0.00     0.048 C 
ENDBRANCH   3   6
ENDBRANCH   2   3
BRANCH   2  16
HETATM   16  C   UNL     1       3.095   1.418   0.706  1.00  0.00     0.135 C 
BRANCH  16  17
HETATM   17  C   UNL     1       2.433   2.670   0.167  1.00  0.00     0.224 C 
HETATM   18  N   UNL     1       2.801   3.810   0.843  1.00  0.00    -0.327 N 
HETATM   19  H   UNL     1       3.488   3.724   1.584  1.00  0.00     0.169 HD
HETATM   20  O   UNL     1       1.716   2.580  -0.827  1.00  0.00    -0.273 OA
BRANCH  18  21
HETATM   21  C   UNL     1       2.330   5.124   0.628  1.00  0.00     0.034 A 
HETATM   22  C   UNL     1       1.341   5.462  -0.297  1.00  0.00     0.032 A 
HETATM   23  C   UNL     1       0.905   6.789  -0.418  1.00  0.00     0.039 A 
HETATM   24  C   UNL     1       1.452   7.785   0.388  1.00  0.00     0.068 A 
HETATM   25  C   UNL     1       2.463   7.459   1.287  1.00  0.00     0.039 A 
HETATM   26  C   UNL     1       2.893   6.135   1.416  1.00  0.00     0.032 A 
BRANCH  24  27
HETATM   27  O   UNL     1       1.104   9.105   0.345  1.00  0.00    -0.356 OA
HETATM   28  C   UNL     1      -0.279   9.350   0.106  1.00  0.00     0.210 C 
ENDBRANCH  24  27
ENDBRANCH  18  21
ENDBRANCH  16  17
ENDBRANCH   2  16
TORSDOF 6
