REMARK  4 active torsions:
REMARK  status: ('A' for Active; 'I' for Inactive)
REMARK    1  A    between atoms: C_2  and  O_3 
REMARK    2  A    between atoms: O_3  and  C_4 
REMARK    3  A    between atoms: C_7  and  C_8 
REMARK       I    between atoms: C_8  and  N_9 
REMARK    4  A    between atoms: N_9  and  C_10 
ROOT
HETATM    1  C   UNL     1       7.716  -0.646   1.729  1.00  0.00     0.262 C 
HETATM    2  N   UNL     1       7.388  -1.860   1.150  1.00  0.00    -0.321 N 
HETATM    3  O   UNL     1       8.824  -0.375   2.179  1.00  0.00    -0.267 OA
HETATM    4  H   UNL     1       6.426  -1.985   0.855  1.00  0.00     0.169 HD
ENDROOT
BRANCH   1   5
HETATM    5  C   UNL     1       6.635   0.385   1.796  1.00  0.00     0.112 A 
HETATM    6  C   UNL     1       5.298   0.105   1.477  1.00  0.00     0.168 A 
HETATM    7  C   UNL     1       4.309   1.098   1.541  1.00  0.00     0.108 A 
HETATM    8  F   UNL     1       4.964  -1.137   1.088  1.00  0.00    -0.202 F 
HETATM    9  C   UNL     1       4.668   2.394   1.918  1.00  0.00     0.043 A 
HETATM   10  C   UNL     1       5.988   2.689   2.245  1.00  0.00     0.046 A 
HETATM   11  C   UNL     1       6.958   1.691   2.185  1.00  0.00     0.135 A 
HETATM   12  F   UNL     1       8.212   2.043   2.499  1.00  0.00    -0.205 F 
BRANCH   7  13
HETATM   13  O   UNL     1       2.979   0.960   1.250  1.00  0.00    -0.348 OA
BRANCH  13  14
HETATM   14  C   UNL     1       2.454  -0.362   1.147  1.00  0.00     0.171 C 
HETATM   15  C   UNL     1       0.942  -0.253   1.067  1.00  0.00     0.034 C 
ENDBRANCH  13  14
ENDBRANCH   7  13
ENDBRANCH   1   5
BRANCH   2  16
HETATM   16  C   UNL     1       8.228  -2.971   0.912  1.00  0.00     0.064 A 
HETATM   17  C   UNL     1       9.602  -3.072   1.178  1.00  0.00     0.088 A 
HETATM   18  C   UNL     1      10.352  -4.211   0.885  1.00  0.00     0.014 A 
HETATM   19  N   UNL     1      10.509  -2.202   1.730  1.00  0.00    -0.275 N 
HETATM   20  C   UNL     1      11.668  -3.898   1.293  1.00  0.00     0.152 A 
HETATM   21  C   UNL     1       9.727  -5.326   0.302  1.00  0.00     0.015 A 
HETATM   22  N   UNL     1      11.769  -2.672   1.808  1.00  0.00    -0.186 NA
HETATM   23  C   UNL     1       8.361  -5.259   0.030  1.00  0.00     0.003 A 
HETATM   24  C   UNL     1       7.632  -4.106   0.327  1.00  0.00     0.032 A 
HETATM   25  H   UNL     1      10.302  -1.265   2.073  1.00  0.00     0.189 HD
ENDBRANCH   2  16
TORSDOF 4
