REMARK  4 active torsions:
REMARK  status: ('A' for Active; 'I' for Inactive)
REMARK    1  A    between atoms: C_2  and  C_3 
REMARK    2  A    between atoms: N_16  and  C_17 
REMARK    3  A    between atoms: C_17  and  C_18 
REMARK       I    between atoms: C_18  and  N_19 
REMARK    4  A    between atoms: N_19  and  C_20 
ROOT
HETATM    1  C   UNL     1       2.385   0.689  -0.751  1.00  0.00     0.054 C 
HETATM    2  C   UNL     1       1.997   0.480   0.716  1.00  0.00     0.140 A 
HETATM    3  N   UNL     1       2.597   1.531   1.512  1.00  0.00    -0.321 N 
HETATM    4  C   UNL     1       3.594   1.076   2.339  1.00  0.00     0.326 A 
HETATM    5  O   UNL     1       4.260   1.801   3.056  1.00  0.00    -0.247 OA
HETATM    6  N   UNL     1       3.700  -0.269   2.192  1.00  0.00    -0.259 N 
HETATM    7  C   UNL     1       2.780  -0.725   1.293  1.00  0.00     0.261 A 
HETATM    8  O   UNL     1       2.621  -1.908   1.010  1.00  0.00    -0.270 OA
HETATM    9  H   UNL     1       2.387   2.517   1.442  1.00  0.00     0.165 HD
ENDROOT
BRANCH   6  10
HETATM   10  C   UNL     1       4.646  -1.096   2.912  1.00  0.00     0.240 C 
BRANCH  10  11
HETATM   11  C   UNL     1       4.003  -1.696   4.163  1.00  0.00     0.240 C 
HETATM   12  N   UNL     1       2.887  -2.476   3.891  1.00  0.00    -0.325 N 
HETATM   13  H   UNL     1       2.704  -2.664   2.909  1.00  0.00     0.169 HD
HETATM   14  O   UNL     1       4.538  -1.567   5.261  1.00  0.00    -0.271 OA
BRANCH  12  15
HETATM   15  C   UNL     1       2.034  -3.113   4.830  1.00  0.00     0.047 A 
HETATM   16  C   UNL     1       1.111  -4.114   4.390  1.00  0.00     0.019 A 
HETATM   17  C   UNL     1       0.246  -4.721   5.334  1.00  0.00     0.069 A 
HETATM   18  C   UNL     1       0.992  -4.588   3.060  1.00  0.00     0.017 A 
HETATM   19  N   UNL     1      -0.642  -5.681   5.019  1.00  0.00    -0.260 NA
HETATM   20  C   UNL     1       0.306  -4.327   6.660  1.00  0.00     0.032 A 
HETATM   21  C   UNL     1      -0.711  -6.094   3.739  1.00  0.00     0.117 A 
HETATM   22  C   UNL     1       0.077  -5.585   2.732  1.00  0.00     0.020 A 
HETATM   23  C   UNL     1       1.198  -3.351   7.093  1.00  0.00     0.005 A 
HETATM   24  C   UNL     1       2.058  -2.749   6.181  1.00  0.00     0.030 A 
ENDBRANCH  12  15
ENDBRANCH  10  11
ENDBRANCH   6  10
BRANCH   2  25
HETATM   25  C   UNL     1       0.494   0.344   0.926  1.00  0.00    -0.020 A 
HETATM   26  C   UNL     1      -0.218   1.156   1.830  1.00  0.00     0.022 A 
HETATM   27  C   UNL     1      -1.610   1.034   2.002  1.00  0.00    -0.025 A 
HETATM   28  C   UNL     1      -2.318   0.066   1.258  1.00  0.00    -0.026 A 
HETATM   29  C   UNL     1      -2.315   1.856   2.898  1.00  0.00     0.012 A 
HETATM   30  C   UNL     1      -1.615  -0.759   0.372  1.00  0.00     0.013 A 
HETATM   31  C   UNL     1      -3.707  -0.053   1.423  1.00  0.00     0.012 A 
HETATM   32  C   UNL     1      -0.232  -0.624   0.212  1.00  0.00     0.011 A 
HETATM   33  C   UNL     1      -4.392   0.774   2.314  1.00  0.00     0.001 A 
HETATM   34  C   UNL     1      -3.696   1.727   3.052  1.00  0.00     0.001 A 
ENDBRANCH   2  25
TORSDOF 4
