REMARK  5 active torsions:
REMARK  status: ('A' for Active; 'I' for Inactive)
REMARK    1  A    between atoms: C_3  and  N_4 
REMARK       I    between atoms: N_4  and  C_5 
REMARK       I    between atoms: C_5  and  N_6 
REMARK    2  A    between atoms: N_6  and  C_7 
REMARK    3  A    between atoms: C_7  and  C_8 
REMARK    4  A    between atoms: C_8  and  O_9 
REMARK    5  A    between atoms: O_9  and  C_10 
ROOT
HETATM    1  N   UNL     1       6.331   4.112  -4.054  1.00  0.00    -0.307 N 
HETATM    2  C   UNL     1       6.850   2.860  -3.882  1.00  0.00     0.320 C 
HETATM    3  N   UNL     1       6.989   2.464  -2.582  1.00  0.00    -0.340 N 
HETATM    4  O   UNL     1       7.164   2.069  -4.762  1.00  0.00    -0.247 OA
HETATM    5  H   UNL     1       5.697   4.377  -3.318  1.00  0.00     0.170 HD
HETATM    6  H   UNL     1       7.493   1.584  -2.520  1.00  0.00     0.164 HD
ENDROOT
BRANCH   3   7
HETATM    7  C   UNL     1       6.947   3.270  -1.368  1.00  0.00     0.156 C 
BRANCH   7   8
HETATM    8  C   UNL     1       6.933   2.418  -0.087  1.00  0.00     0.142 C 
HETATM    9  C   UNL     1       5.738   1.465  -0.055  1.00  0.00     0.042 C 
BRANCH   8  10
HETATM   10  O   UNL     1       8.120   1.614  -0.041  1.00  0.00    -0.343 OA
BRANCH  10  11
HETATM   11  C   UNL     1       9.087   1.942   0.870  1.00  0.00     0.086 A 
HETATM   12  C   UNL     1       9.892   0.903   1.360  1.00  0.00     0.044 A 
HETATM   13 BR   UNL     1       9.621  -0.899   0.819  1.00  0.00    -0.048 Br
HETATM   14  C   UNL     1      10.916   1.163   2.275  1.00  0.00     0.022 A 
HETATM   15  C   UNL     1      11.152   2.468   2.701  1.00  0.00     0.002 A 
HETATM   16  C   UNL     1      10.374   3.511   2.204  1.00  0.00     0.003 A 
HETATM   17  C   UNL     1       9.352   3.252   1.286  1.00  0.00     0.038 A 
ENDBRANCH  10  11
ENDBRANCH   8  10
ENDBRANCH   7   8
ENDBRANCH   3   7
BRANCH   1  18
HETATM   18  C   UNL     1       6.179   4.832  -5.265  1.00  0.00     0.059 A 
HETATM   19  C   UNL     1       6.998   4.758  -6.401  1.00  0.00    -0.032 A 
HETATM   20  C   UNL     1       8.244   3.928  -6.517  1.00  0.00     0.050 C 
HETATM   21  C   UNL     1       6.648   5.533  -7.523  1.00  0.00     0.028 A 
HETATM   22  C   UNL     1       5.559   6.387  -7.460  1.00  0.00     0.117 A 
HETATM   23  N   UNL     1       4.794   6.531  -6.365  1.00  0.00    -0.271 NA
HETATM   24  C   UNL     1       5.124   5.754  -5.306  1.00  0.00     0.146 A 
ENDBRANCH   1  18
TORSDOF 5
