REMARK  5 active torsions:
REMARK  status: ('A' for Active; 'I' for Inactive)
REMARK    1  A    between atoms: C_6  and  N_7 
REMARK       I    between atoms: N_7  and  C_8 
REMARK    2  A    between atoms: C_8  and  C_9 
REMARK    3  A    between atoms: C_9  and  N_10 
REMARK    4  A    between atoms: C_12  and  C_13 
REMARK    5  A    between atoms: C_14  and  O_15 
ROOT
HETATM    1  N   UNL     1       6.963  -0.180  -0.376  1.00  0.00    -0.325 N 
HETATM    2  C   UNL     1       7.475  -1.458  -0.473  1.00  0.00     0.239 C 
HETATM    3  O   UNL     1       6.920  -2.513  -0.178  1.00  0.00    -0.271 OA
HETATM    4  H   UNL     1       7.357   0.507  -1.008  1.00  0.00     0.169 HD
ENDROOT
BRANCH   2   5
HETATM    5  C   UNL     1       8.879  -1.490  -1.053  1.00  0.00     0.222 C 
BRANCH   5   6
HETATM    6  N   UNL     1       9.520  -2.734  -0.580  1.00  0.00    -0.389 N 
HETATM    7  H   UNL     1       8.909  -3.572  -0.587  1.00  0.00     0.159 HD
HETATM    8  C   UNL     1      10.708  -2.871  -0.110  1.00  0.00     0.097 C 
BRANCH   8   9
HETATM    9  C   UNL     1      11.253  -4.156   0.364  1.00  0.00     0.012 A 
HETATM   10  C   UNL     1      10.555  -5.366   0.251  1.00  0.00     0.077 A 
HETATM   11  C   UNL     1      11.122  -6.554   0.708  1.00  0.00     0.037 A 
HETATM   12  C   UNL     1      12.393  -6.532   1.285  1.00  0.00     0.003 A 
HETATM   13  C   UNL     1      13.093  -5.330   1.403  1.00  0.00     0.001 A 
HETATM   14  C   UNL     1      12.527  -4.140   0.942  1.00  0.00     0.016 A 
BRANCH  10  15
HETATM   15  O   UNL     1       9.307  -5.376  -0.316  1.00  0.00    -0.360 OA
HETATM   16  H   UNL     1       8.967  -6.295  -0.293  1.00  0.00     0.217 HD
ENDBRANCH  10  15
ENDBRANCH   8   9
ENDBRANCH   5   6
ENDBRANCH   2   5
BRANCH   1  17
HETATM   17  C   UNL     1       5.761   0.235   0.257  1.00  0.00     0.046 A 
HETATM   18  C   UNL     1       5.232  -0.357   1.424  1.00  0.00    -0.034 A 
HETATM   19  C   UNL     1       4.034   0.152   1.972  1.00  0.00     0.015 A 
HETATM   20  C   UNL     1       5.870  -1.482   2.194  1.00  0.00     0.050 C 
HETATM   21  C   UNL     1       3.385   1.258   1.424  1.00  0.00    -0.061 A 
HETATM   22  C   UNL     1       2.146   1.822   2.056  1.00  0.00     0.048 C 
HETATM   23  C   UNL     1       3.941   1.871   0.305  1.00  0.00     0.015 A 
HETATM   24  C   UNL     1       5.114   1.375  -0.290  1.00  0.00    -0.034 A 
HETATM   25  C   UNL     1       5.620   2.093  -1.517  1.00  0.00     0.050 C 
ENDBRANCH   1  17
TORSDOF 5
