REMARK  3 active torsions:
REMARK  status: ('A' for Active; 'I' for Inactive)
REMARK    1  A    between atoms: C_4  and  C_5 
REMARK       I    between atoms: C_5  and  N_6 
REMARK    2  A    between atoms: C_16  and  C_17 
REMARK    3  A    between atoms: C_27  and  O_28 
ROOT
HETATM    1  C   UNL     1       2.232   1.945  -0.056  1.00  0.00     0.275 C 
HETATM    2  N   UNL     1       2.419   3.279  -0.444  1.00  0.00    -0.339 N 
HETATM    3  C   UNL     1       2.075   4.336   0.491  1.00  0.00     0.123 C 
HETATM    4  C   UNL     1       2.593   5.640  -0.164  1.00  0.00     0.221 C 
HETATM    5  N   UNL     1       1.455   6.663  -0.217  1.00  0.00    -0.064 N 
HETATM    6  H   UNL     1       1.793   7.531  -0.654  1.00  0.00     0.280 HD
HETATM    7  C   UNL     1       0.200   6.215  -0.952  1.00  0.00     0.236 C 
HETATM    8  C   UNL     1      -0.216   4.846  -0.429  1.00  0.00     0.034 C 
HETATM    9  C   UNL     1       0.578   4.495   0.838  1.00  0.00     0.014 C 
HETATM   10  C   UNL     1       0.450   5.680   1.825  1.00  0.00     0.034 C 
HETATM   11  C   UNL     1       1.038   6.967   1.224  1.00  0.00     0.236 C 
HETATM   12  C   UNL     1       3.311   5.234  -1.482  1.00  0.00     0.070 C 
HETATM   13  C   UNL     1       3.528   3.721  -1.286  1.00  0.00     0.138 C 
HETATM   14  O   UNL     1       1.751   1.671   1.047  1.00  0.00    -0.266 OA
ENDROOT
BRANCH   1  15
HETATM   15  C   UNL     1       2.623   0.813  -0.959  1.00  0.00     0.157 A 
HETATM   16  N   UNL     1       2.715   1.082  -2.289  1.00  0.00    -0.253 NA
HETATM   17  C   UNL     1       3.065   0.049  -3.091  1.00  0.00     0.117 A 
HETATM   18  C   UNL     1       3.327  -1.233  -2.633  1.00  0.00     0.022 A 
HETATM   19  C   UNL     1       3.209  -1.488  -1.270  1.00  0.00     0.040 A 
HETATM   20  C   UNL     1       2.838  -0.457  -0.416  1.00  0.00     0.100 A 
BRANCH  20  21
HETATM   21  O   UNL     1       2.710  -0.767   0.909  1.00  0.00    -0.358 OA
HETATM   22  H   UNL     1       2.266  -0.017   1.363  1.00  0.00     0.218 HD
ENDBRANCH  20  21
ENDBRANCH   1  15
BRANCH  12  23
HETATM   23  C   UNL     1       2.699   5.624  -2.812  1.00  0.00    -0.044 A 
HETATM   24  C   UNL     1       2.953   6.906  -3.331  1.00  0.00     0.050 A 
HETATM   25  C   UNL     1       2.412   7.296  -4.558  1.00  0.00     0.119 A 
HETATM   26  F   UNL     1       2.660   8.530  -5.013  1.00  0.00    -0.206 F 
HETATM   27  C   UNL     1       1.618   6.438  -5.301  1.00  0.00     0.084 A 
HETATM   28  C   UNL     1       1.375   5.168  -4.803  1.00  0.00     0.119 A 
HETATM   29  F   UNL     1       0.601   4.325  -5.497  1.00  0.00    -0.206 F 
HETATM   30  C   UNL     1       1.904   4.754  -3.579  1.00  0.00     0.050 A 
ENDBRANCH  12  23
TORSDOF 3
