REMARK  5 active torsions:
REMARK  status: ('A' for Active; 'I' for Inactive)
REMARK    1  A    between atoms: C_2  and  C_3 
REMARK    2  A    between atoms: C_3  and  C_4 
REMARK    3  A    between atoms: C_8  and  N_9 
REMARK       I    between atoms: N_9  and  C_10 
REMARK    4  A    between atoms: C_10  and  C_11 
REMARK    5  A    between atoms: N_13  and  C_14 
ROOT
HETATM    1  C   UNL     1       1.480  -5.740   4.150  1.00  0.00     0.106 C 
HETATM    2  C   UNL     1       2.936  -6.091   4.421  1.00  0.00     0.148 C 
HETATM    3  N   UNL     1       2.971  -7.527   4.481  1.00  0.00    -0.299 N 
HETATM    4  C   UNL     1       1.700  -8.043   4.758  1.00  0.00     0.226 C 
HETATM    5  O   UNL     1       1.341  -9.189   4.982  1.00  0.00    -0.273 OA
HETATM    6  C   UNL     1       0.734  -6.884   4.819  1.00  0.00     0.119 C 
ENDROOT
BRANCH   1   7
HETATM    7  C   UNL     1       1.118  -4.386   4.732  1.00  0.00     0.242 C 
HETATM    8  N   UNL     1      -0.113  -3.830   4.540  1.00  0.00    -0.156 N 
HETATM    9  H   UNL     1      -0.252  -2.962   5.040  1.00  0.00     0.187 HD
HETATM   10  O   UNL     1       1.918  -3.747   5.424  1.00  0.00    -0.272 OA
BRANCH   8  11
HETATM   11  C   UNL     1      -1.082  -4.275   3.683  1.00  0.00     0.725 A 
HETATM   12  N   UNL     1      -2.301  -3.659   3.578  1.00  0.00    -0.106 N 
HETATM   13  N   UNL     1      -3.090  -4.273   2.684  1.00  0.00    -0.144 NA
HETATM   14  H   UNL     1      -2.654  -2.854   4.079  1.00  0.00     0.208 HD
HETATM   15  C   UNL     1      -2.289  -5.253   2.252  1.00  0.00     0.166 A 
HETATM   16  N   UNL     1      -1.051  -5.280   2.843  1.00  0.00    -0.046 NA
BRANCH  15  17
HETATM   17  C   UNL     1      -2.701  -6.251   1.228  1.00  0.00     0.087 C 
BRANCH  17  18
HETATM   18  C   UNL     1      -2.287  -5.863  -0.204  1.00  0.00    -0.016 C 
HETATM   19  C   UNL     1      -3.092  -4.672  -0.731  1.00  0.00     0.010 C 
HETATM   20  C   UNL     1      -2.468  -7.059  -1.141  1.00  0.00     0.010 C 
ENDBRANCH  17  18
ENDBRANCH  15  17
ENDBRANCH   8  11
ENDBRANCH   1   7
BRANCH   3  21
HETATM   21  C   UNL     1       4.113  -8.321   4.387  1.00  0.00     0.165 A 
HETATM   22  N   UNL     1       4.054  -9.654   4.310  1.00  0.00    -0.155 NA
HETATM   23  N   UNL     1       5.320 -10.058   4.206  1.00  0.00    -0.275 N 
HETATM   24  H   UNL     1       5.496 -11.054   4.137  1.00  0.00     0.189 HD
HETATM   25  C   UNL     1       6.234  -9.046   4.207  1.00  0.00     0.065 A 
HETATM   26  C   UNL     1       5.482  -7.879   4.333  1.00  0.00     0.040 A 
HETATM   27  C   UNL     1       7.631  -9.067   4.114  1.00  0.00     0.051 A 
HETATM   28  C   UNL     1       6.180  -6.652   4.391  1.00  0.00     0.019 A 
HETATM   29  C   UNL     1       7.581  -6.644   4.302  1.00  0.00     0.020 A 
HETATM   30  C   UNL     1       8.286  -7.835   4.163  1.00  0.00     0.013 A 
HETATM   31 BR   UNL     1      10.175  -7.790   4.044  1.00  0.00    -0.051 Br
ENDBRANCH   3  21
TORSDOF 5
