REMARK  4 active torsions:
REMARK  status: ('A' for Active; 'I' for Inactive)
REMARK    1  A    between atoms: C_8  and  C_9 
REMARK    2  A    between atoms: C_12  and  N_13 
REMARK       I    between atoms: N_13  and  C_14 
REMARK    3  A    between atoms: C_14  and  C_15 
REMARK    4  A    between atoms: C_17  and  N_18 
ROOT
HETATM    1  C   UNL     1       8.035   2.566  -0.163  1.00  0.00     0.010 A 
HETATM    2  C   UNL     1       8.081   3.922  -0.506  1.00  0.00     0.017 A 
HETATM    3  C   UNL     1       9.306   4.583  -0.665  1.00  0.00     0.030 A 
HETATM    4  C   UNL     1      10.511   3.906  -0.482  1.00  0.00     0.035 A 
HETATM    5  C   UNL     1      10.471   2.572  -0.063  1.00  0.00     0.030 A 
HETATM    6  C   UNL     1       9.246   1.909   0.092  1.00  0.00     0.017 A 
ENDROOT
BRANCH   4   7
HETATM    7  N   UNL     1      11.778   4.475  -0.746  1.00  0.00    -0.323 N 
HETATM    8  C   UNL     1      12.013   5.676  -1.392  1.00  0.00     0.256 C 
HETATM    9  O   UNL     1      11.184   6.508  -1.741  1.00  0.00    -0.267 OA
HETATM   10  H   UNL     1      12.575   3.868  -0.592  1.00  0.00     0.169 HD
BRANCH   8  11
HETATM   11  C   UNL     1      13.426   5.913  -1.780  1.00  0.00     0.034 A 
HETATM   12  C   UNL     1      14.485   5.733  -0.876  1.00  0.00     0.047 A 
HETATM   13  C   UNL     1      15.818   5.971  -1.264  1.00  0.00     0.046 A 
HETATM   14  C   UNL     1      16.035   6.383  -2.592  1.00  0.00     0.030 A 
HETATM   15  C   UNL     1      14.979   6.571  -3.491  1.00  0.00     0.003 A 
HETATM   16  C   UNL     1      13.673   6.345  -3.083  1.00  0.00     0.017 A 
BRANCH  13  17
HETATM   17  N   UNL     1      16.907   5.816  -0.347  1.00  0.00    -0.252 N 
HETATM   18  C   UNL     1      16.817   5.180   0.874  1.00  0.00     0.231 C 
HETATM   19  O   UNL     1      15.886   4.541   1.346  1.00  0.00    -0.273 OA
HETATM   20  C   UNL     1      18.099   5.378   1.624  1.00  0.00     0.113 C 
HETATM   21  C   UNL     1      19.071   5.809   0.559  1.00  0.00     0.113 C 
HETATM   22  C   UNL     1      18.192   6.272  -0.563  1.00  0.00     0.231 C 
HETATM   23  O   UNL     1      18.641   6.935  -1.489  1.00  0.00    -0.273 OA
ENDBRANCH  13  17
ENDBRANCH   8  11
ENDBRANCH   4   7
BRANCH   1  24
HETATM   24  C   UNL     1       6.774   1.820  -0.110  1.00  0.00     0.139 A 
HETATM   25  N   UNL     1       5.623   2.226  -0.751  1.00  0.00    -0.338 N 
HETATM   26  C   UNL     1       4.658   1.269  -0.587  1.00  0.00     0.063 A 
HETATM   27  H   UNL     1       5.525   3.065  -1.301  1.00  0.00     0.167 HD
HETATM   28  C   UNL     1       5.275   0.297   0.188  1.00  0.00     0.086 A 
HETATM   29  C   UNL     1       3.346   1.169  -1.048  1.00  0.00     0.032 A 
HETATM   30  C   UNL     1       4.552  -0.851   0.546  1.00  0.00     0.040 A 
HETATM   31  N   UNL     1       6.574   0.649   0.470  1.00  0.00    -0.228 NA
HETATM   32  C   UNL     1       3.221  -0.985   0.109  1.00  0.00    -0.060 A 
HETATM   33  C   UNL     1       2.431  -2.216   0.448  1.00  0.00     0.048 C 
HETATM   34  C   UNL     1       2.641   0.015  -0.686  1.00  0.00     0.009 A 
ENDBRANCH   1  24
TORSDOF 4
