REMARK  8 active torsions:
REMARK  status: ('A' for Active; 'I' for Inactive)
REMARK    1  A    between atoms: C_7  and  C_8 
REMARK    2  A    between atoms: C_8  and  O_9 
REMARK    3  A    between atoms: O_9  and  C_10 
REMARK    4  A    between atoms: C_12  and  C_13 
REMARK       I    between atoms: C_13  and  N_14 
REMARK    5  A    between atoms: N_14  and  C_15 
REMARK    6  A    between atoms: C_15  and  C_16 
REMARK    7  A    between atoms: C_19  and  C_20 
REMARK    8  A    between atoms: C_20  and  N_21 
ROOT
HETATM    1  C   UNL     1       1.338  -7.621   0.093  1.00  0.00     0.252 C 
HETATM    2  N   UNL     1       0.959  -8.902  -0.255  1.00  0.00    -0.353 N 
HETATM    3  O   UNL     1       0.562  -6.674   0.125  1.00  0.00    -0.268 OA
HETATM    4  H   UNL     1       1.657  -9.618  -0.394  1.00  0.00     0.163 HD
ENDROOT
BRANCH   1   5
HETATM    5  C   UNL     1       2.779  -7.421   0.409  1.00  0.00     0.034 A 
HETATM    6  C   UNL     1       3.345  -6.164   0.168  1.00  0.00     0.053 A 
HETATM    7  C   UNL     1       4.682  -5.914   0.486  1.00  0.00     0.070 A 
HETATM    8  C   UNL     1       5.463  -6.935   1.029  1.00  0.00     0.037 A 
HETATM    9  C   UNL     1       4.900  -8.189   1.282  1.00  0.00     0.004 A 
HETATM   10  C   UNL     1       3.559  -8.432   0.981  1.00  0.00     0.017 A 
BRANCH   7  11
HETATM   11  O   UNL     1       5.115  -4.650   0.202  1.00  0.00    -0.346 OA
BRANCH  11  12
HETATM   12  C   UNL     1       6.270  -4.191   0.913  1.00  0.00     0.219 C 
BRANCH  12  13
HETATM   13  C   UNL     1       6.400  -2.714   0.796  1.00  0.00     0.024 A 
HETATM   14  C   UNL     1       7.531  -1.948   0.404  1.00  0.00     0.069 A 
HETATM   15  C   UNL     1       8.876  -2.423   0.003  1.00  0.00     0.073 C 
HETATM   16  N   UNL     1       7.267  -0.637   0.428  1.00  0.00    -0.133 NA
HETATM   17  O   UNL     1       5.955  -0.523   0.839  1.00  0.00    -0.217 OA
HETATM   18  C   UNL     1       5.441  -1.760   1.062  1.00  0.00     0.085 A 
HETATM   19  C   UNL     1       4.036  -1.818   1.510  1.00  0.00     0.079 C 
ENDBRANCH  12  13
ENDBRANCH  11  12
ENDBRANCH   7  11
ENDBRANCH   1   5
BRANCH   2  20
HETATM   20  C   UNL     1      -0.425  -9.239  -0.494  1.00  0.00     0.161 C 
BRANCH  20  21
HETATM   21  C   UNL     1      -0.917  -8.978  -1.902  1.00  0.00    -0.041 A 
HETATM   22  C   UNL     1      -0.065  -8.708  -2.979  1.00  0.00     0.009 A 
HETATM   23  C   UNL     1      -0.581  -8.447  -4.253  1.00  0.00     0.009 A 
HETATM   24  C   UNL     1      -1.965  -8.453  -4.478  1.00  0.00    -0.033 A 
HETATM   25  C   UNL     1      -2.819  -8.753  -3.410  1.00  0.00     0.009 A 
HETATM   26  C   UNL     1      -2.300  -9.015  -2.140  1.00  0.00     0.009 A 
BRANCH  24  27
HETATM   27  C   UNL     1      -2.520  -8.140  -5.840  1.00  0.00     0.273 C 
BRANCH  27  28
HETATM   28  N   UNL     1      -2.432  -9.302  -6.794  1.00  0.00    -0.067 N 
HETATM   29  H   UNL     1      -1.453  -9.614  -6.777  1.00  0.00     0.280 HD
HETATM   30  C   UNL     1      -2.774  -8.939  -8.225  1.00  0.00     0.235 C 
HETATM   31  C   UNL     1      -4.018  -9.747  -8.536  1.00  0.00     0.029 C 
HETATM   32  C   UNL     1      -3.814 -11.014  -7.733  1.00  0.00     0.029 C 
HETATM   33  C   UNL     1      -3.290 -10.492  -6.409  1.00  0.00     0.235 C 
ENDBRANCH  27  28
ENDBRANCH  24  27
ENDBRANCH  20  21
ENDBRANCH   2  20
TORSDOF 8
