REMARK  7 active torsions:
REMARK  status: ('A' for Active; 'I' for Inactive)
REMARK    1  A    between atoms: S_2  and  C_3 
REMARK    2  A    between atoms: C_3  and  C_4 
REMARK    3  A    between atoms: C_4  and  C_5 
REMARK    4  A    between atoms: C_5  and  N_6 
REMARK    5  A    between atoms: C_5  and  C_10 
REMARK       I    between atoms: N_6  and  C_7 
REMARK       I    between atoms: C_7  and  N_8 
REMARK       I    between atoms: C_10  and  N_11 
REMARK    6  A    between atoms: N_11  and  N_12 
REMARK       I    between atoms: N_12  and  C_13 
REMARK    7  A    between atoms: C_13  and  C_14 
ROOT
HETATM    1  C   UNL     1       7.040   2.492  -1.773  1.00  0.00     0.259 C 
HETATM    2  N   UNL     1       7.594   1.399  -1.142  1.00  0.00    -0.265 N 
HETATM    3  O   UNL     1       7.719   3.452  -2.146  1.00  0.00    -0.269 OA
HETATM    4  H   UNL     1       7.078   0.536  -0.951  1.00  0.00     0.190 HD
ENDROOT
BRANCH   2   5
HETATM    5  N   UNL     1       8.978   1.375  -0.953  1.00  0.00    -0.263 N 
HETATM    6  C   UNL     1       9.641   0.163  -0.845  1.00  0.00     0.278 C 
HETATM    7  O   UNL     1       9.007  -0.891  -0.910  1.00  0.00    -0.265 OA
HETATM    8  H   UNL     1       9.471   2.264  -1.012  1.00  0.00     0.190 HD
BRANCH   6   9
HETATM    9  C   UNL     1      11.084   0.246  -0.649  1.00  0.00     0.097 A 
HETATM   10  S   UNL     1      11.861   1.766  -0.488  1.00  0.00    -0.082 SA
HETATM   11  C   UNL     1      13.408   1.065  -0.248  1.00  0.00     0.017 A 
HETATM   12  C   UNL     1      13.351  -0.329  -0.308  1.00  0.00     0.004 A 
HETATM   13  C   UNL     1      14.616   1.751  -0.016  1.00  0.00     0.020 A 
HETATM   14  C   UNL     1      12.002  -0.783  -0.547  1.00  0.00     0.068 A 
HETATM   15  C   UNL     1      14.565  -1.043  -0.127  1.00  0.00     0.014 A 
HETATM   16 CL   UNL     1      11.639  -2.462  -0.671  1.00  0.00    -0.082 Cl
HETATM   17  C   UNL     1      15.767  -0.368   0.107  1.00  0.00     0.001 A 
HETATM   18  C   UNL     1      15.790   1.017   0.162  1.00  0.00     0.001 A 
ENDBRANCH   6   9
ENDBRANCH   2   5
BRANCH   1  19
HETATM   19  C   UNL     1       5.520   2.412  -1.988  1.00  0.00     0.180 C 
BRANCH  19  20
HETATM   20  C   UNL     1       5.148   1.623  -3.253  1.00  0.00     0.045 C 
BRANCH  20  21
HETATM   21  C   UNL     1       5.631   0.173  -3.335  1.00  0.00     0.076 C 
BRANCH  21  22
HETATM   22  S   UNL     1       5.149  -0.818  -1.886  1.00  0.00    -0.173 SA
HETATM   23  C   UNL     1       5.884  -2.398  -2.375  1.00  0.00     0.089 C 
ENDBRANCH  21  22
ENDBRANCH  20  21
ENDBRANCH  19  20
BRANCH  19  24
HETATM   24  N   UNL     1       5.053   3.795  -2.086  1.00  0.00    -0.330 N 
HETATM   25  C   UNL     1       3.766   4.152  -1.854  1.00  0.00     0.314 C 
HETATM   26  N   UNL     1       3.558   5.482  -2.012  1.00  0.00    -0.352 N 
HETATM   27  O   UNL     1       2.866   3.391  -1.536  1.00  0.00    -0.248 OA
HETATM   28  H   UNL     1       4.306   6.099  -1.730  1.00  0.00     0.160 HD
HETATM   29  H   UNL     1       2.634   5.776  -1.720  1.00  0.00     0.160 HD
HETATM   30  H   UNL     1       5.668   4.461  -2.538  1.00  0.00     0.165 HD
ENDBRANCH  19  24
ENDBRANCH   1  19
TORSDOF 7
