REMARK  5 active torsions:
REMARK  status: ('A' for Active; 'I' for Inactive)
REMARK    1  A    between atoms: O_2  and  C_3 
REMARK    2  A    between atoms: C_4  and  C_5 
REMARK    3  A    between atoms: C_6  and  C_7 
REMARK    4  A    between atoms: C_6  and  C_16 
REMARK       I    between atoms: C_7  and  N_8 
REMARK    5  A    between atoms: N_8  and  C_9 
ROOT
HETATM    1  C   UNL     1       1.569   3.003  -0.527  1.00  0.00     0.032 C 
HETATM    2  C   UNL     1       1.010   4.199  -0.810  1.00  0.00     0.043 C 
ENDROOT
BRANCH   2   3
HETATM    3  C   UNL     1       1.226   5.513  -0.096  1.00  0.00     0.257 C 
HETATM    4  N   UNL     1       2.489   5.707   0.419  1.00  0.00    -0.323 N 
HETATM    5  H   UNL     1       3.153   4.955   0.310  1.00  0.00     0.169 HD
HETATM    6  O   UNL     1       0.302   6.320  -0.033  1.00  0.00    -0.267 OA
BRANCH   4   7
HETATM    7  C   UNL     1       2.960   6.832   1.130  1.00  0.00     0.037 A 
HETATM    8  C   UNL     1       2.277   8.040   1.215  1.00  0.00     0.049 A 
HETATM    9  C   UNL     1       2.853   9.074   1.937  1.00  0.00     0.118 A 
HETATM   10  N   UNL     1       4.036   8.979   2.580  1.00  0.00    -0.273 NA
HETATM   11  C   UNL     1       4.677   7.797   2.486  1.00  0.00     0.118 A 
HETATM   12  C   UNL     1       4.192   6.711   1.774  1.00  0.00     0.049 A 
ENDBRANCH   4   7
ENDBRANCH   2   3
BRANCH   2  13
HETATM   13  C   UNL     1       0.008   4.169  -1.899  1.00  0.00    -0.021 A 
HETATM   14  C   UNL     1      -1.333   3.874  -1.622  1.00  0.00     0.012 A 
HETATM   15  C   UNL     1      -2.267   3.802  -2.657  1.00  0.00     0.001 A 
HETATM   16  C   UNL     1      -1.866   4.024  -3.974  1.00  0.00     0.000 A 
HETATM   17  C   UNL     1      -0.533   4.322  -4.257  1.00  0.00     0.001 A 
HETATM   18  C   UNL     1       0.403   4.393  -3.225  1.00  0.00     0.012 A 
ENDBRANCH   2  13
BRANCH   1  19
HETATM   19  C   UNL     1       2.546   2.665   0.512  1.00  0.00    -0.002 A 
HETATM   20  C   UNL     1       3.915   2.540   0.225  1.00  0.00     0.078 A 
HETATM   21  C   UNL     1       4.834   2.273   1.241  1.00  0.00     0.037 A 
HETATM   22  C   UNL     1       4.389   2.087   2.548  1.00  0.00     0.003 A 
HETATM   23  C   UNL     1       3.030   2.190   2.842  1.00  0.00     0.001 A 
HETATM   24  C   UNL     1       2.113   2.483   1.829  1.00  0.00     0.014 A 
BRANCH  20  25
HETATM   25  O   UNL     1       4.427   2.804  -1.019  1.00  0.00    -0.355 OA
HETATM   26  C   UNL     1       4.211   1.714  -1.916  1.00  0.00     0.210 C 
ENDBRANCH  20  25
ENDBRANCH   1  19
TORSDOF 5
