REMARK  8 active torsions:
REMARK  status: ('A' for Active; 'I' for Inactive)
REMARK    1  A    between atoms: C_2  and  C_3 
REMARK    2  A    between atoms: C_5  and  C_6 
REMARK       I    between atoms: C_6  and  N_7 
REMARK    3  A    between atoms: N_7  and  C_8 
REMARK    4  A    between atoms: C_8  and  C_9 
REMARK    5  A    between atoms: C_9  and  N_10 
REMARK    6  A    between atoms: C_9  and  C_20 
REMARK       I    between atoms: N_10  and  C_11 
REMARK    7  A    between atoms: C_11  and  C_12 
REMARK    8  A    between atoms: C_14  and  C_15 
ROOT
HETATM    1  C   UNL     1       1.288   5.549   0.697  1.00  0.00     0.136 C 
ENDROOT
BRANCH   1   2
HETATM    2  C   UNL     1       1.992   4.322   0.064  1.00  0.00     0.153 C 
BRANCH   2   3
HETATM    3  N   UNL     1       2.737   4.642  -1.140  1.00  0.00    -0.353 N 
HETATM    4  C   UNL     1       3.981   5.230  -1.107  1.00  0.00     0.275 C 
HETATM    5  O   UNL     1       4.547   5.500  -0.050  1.00  0.00    -0.265 OA
HETATM    6  H   UNL     1       2.285   4.532  -2.041  1.00  0.00     0.162 HD
BRANCH   4   7
HETATM    7  C   UNL     1       4.547   5.495  -2.412  1.00  0.00     0.143 A 
HETATM    8  O   UNL     1       3.801   5.249  -3.536  1.00  0.00    -0.310 OA
HETATM    9  C   UNL     1       4.570   5.579  -4.612  1.00  0.00     0.053 A 
HETATM   10  C   UNL     1       5.804   6.030  -4.194  1.00  0.00     0.036 A 
HETATM   11  C   UNL     1       5.787   5.981  -2.780  1.00  0.00     0.045 A 
BRANCH   9  12
HETATM   12  C   UNL     1       3.952   5.396  -5.948  1.00  0.00     0.060 C 
HETATM   13  C   UNL     1       4.038   3.952  -6.412  1.00  0.00     0.012 C 
ENDBRANCH   9  12
ENDBRANCH   4   7
ENDBRANCH   2   3
ENDBRANCH   1   2
BRANCH   1  14
HETATM   14  N   UNL     1       0.421   6.318  -0.193  1.00  0.00    -0.345 N 
HETATM   15  C   UNL     1      -0.454   5.799  -1.118  1.00  0.00     0.276 C 
HETATM   16  O   UNL     1      -0.507   4.606  -1.399  1.00  0.00    -0.265 OA
HETATM   17  H   UNL     1       0.307   7.303   0.012  1.00  0.00     0.163 HD
BRANCH  15  18
HETATM   18  C   UNL     1      -1.308   6.792  -1.739  1.00  0.00     0.143 A 
HETATM   19  O   UNL     1      -1.208   8.107  -1.359  1.00  0.00    -0.310 OA
HETATM   20  C   UNL     1      -2.116   8.809  -2.095  1.00  0.00     0.053 A 
HETATM   21  C   UNL     1      -2.797   7.964  -2.944  1.00  0.00     0.036 A 
HETATM   22  C   UNL     1      -2.281   6.667  -2.712  1.00  0.00     0.045 A 
BRANCH  20  23
HETATM   23  C   UNL     1      -2.183  10.272  -1.849  1.00  0.00     0.060 C 
HETATM   24  C   UNL     1      -3.364  10.637  -0.964  1.00  0.00     0.012 C 
ENDBRANCH  20  23
ENDBRANCH  15  18
ENDBRANCH   1  14
BRANCH   1  25
HETATM   25  C   UNL     1       0.562   5.185   1.982  1.00  0.00    -0.031 A 
HETATM   26  C   UNL     1       0.963   5.764   3.199  1.00  0.00     0.049 A 
HETATM   27  C   UNL     1       0.326   5.424   4.392  1.00  0.00     0.102 A 
HETATM   28  C   UNL     1      -0.706   4.483   4.392  1.00  0.00     0.102 A 
HETATM   29  O   UNL     1       0.779   6.044   5.529  1.00  0.00    -0.346 OA
HETATM   30  O   UNL     1      -1.345   4.067   5.532  1.00  0.00    -0.346 OA
HETATM   31  C   UNL     1      -1.133   3.920   3.193  1.00  0.00     0.040 A 
HETATM   32  C   UNL     1      -0.596   4.419   6.701  1.00  0.00     0.202 C 
HETATM   33  C   UNL     1      -0.130   5.864   6.621  1.00  0.00     0.202 C 
HETATM   34  C   UNL     1      -0.502   4.267   1.995  1.00  0.00     0.012 A 
ENDBRANCH   1  25
TORSDOF 8
