REMARK  6 active torsions:
REMARK  status: ('A' for Active; 'I' for Inactive)
REMARK    1  A    between atoms: C_4  and  C_5 
REMARK    2  A    between atoms: C_5  and  C_6 
REMARK    3  A    between atoms: C_10  and  C_11 
REMARK    4  A    between atoms: C_10  and  C_15 
REMARK    5  A    between atoms: N_19  and  C_20 
REMARK    6  A    between atoms: C_20  and  C_21 
ROOT
HETATM    1  C   UNL     1       3.414  -1.259  -0.062  1.00  0.00     0.084 C 
HETATM    2  N   UNL     1       2.813  -2.275  -0.643  1.00  0.00    -0.331 N 
HETATM    3  C   UNL     1       3.265  -3.571  -0.546  1.00  0.00     0.128 C 
HETATM    4  C   UNL     1       4.431  -3.808   0.072  1.00  0.00     0.100 C 
HETATM    5  C   UNL     1       5.314  -2.736   0.665  1.00  0.00     0.264 C 
HETATM    6  N   UNL     1       2.505  -4.598  -1.084  1.00  0.00    -0.278 N 
HETATM    7  C   UNL     1       2.951  -5.912  -1.087  1.00  0.00     0.331 C 
HETATM    8  O   UNL     1       2.322  -6.856  -1.551  1.00  0.00    -0.246 OA
HETATM    9  N   UNL     1       4.165  -6.126  -0.507  1.00  0.00    -0.275 N 
HETATM   10  C   UNL     1       4.894  -5.197   0.152  1.00  0.00     0.262 C 
HETATM   11  O   UNL     1       5.894  -5.469   0.795  1.00  0.00    -0.267 OA
HETATM   12  N   UNL     1       4.536  -1.409   0.608  1.00  0.00    -0.351 N 
HETATM   13  H   UNL     1       4.956  -0.592   1.062  1.00  0.00     0.162 HD
HETATM   14  H   UNL     1       1.993  -2.065  -1.216  1.00  0.00     0.168 HD
HETATM   15  H   UNL     1       4.472  -7.091  -0.457  1.00  0.00     0.173 HD
ENDROOT
BRANCH   5  16
HETATM   16  C   UNL     1       6.605  -2.533  -0.134  1.00  0.00     0.426 C 
HETATM   17  F   UNL     1       6.286  -2.298  -1.436  1.00  0.00    -0.168 F 
HETATM   18  F   UNL     1       7.256  -1.427   0.297  1.00  0.00    -0.168 F 
HETATM   19  F   UNL     1       7.460  -3.562  -0.115  1.00  0.00    -0.168 F 
ENDBRANCH   5  16
BRANCH   5  20
HETATM   20  C   UNL     1       5.744  -2.935   2.123  1.00  0.00     0.426 C 
HETATM   21  F   UNL     1       4.702  -3.406   2.852  1.00  0.00    -0.168 F 
HETATM   22  F   UNL     1       6.802  -3.725   2.327  1.00  0.00    -0.168 F 
HETATM   23  F   UNL     1       6.049  -1.717   2.654  1.00  0.00    -0.168 F 
ENDBRANCH   5  20
BRANCH   1  24
HETATM   24  C   UNL     1       2.797   0.099  -0.151  1.00  0.00     0.114 C 
BRANCH  24  25
HETATM   25  C   UNL     1       3.181   0.902  -1.372  1.00  0.00    -0.051 A 
HETATM   26  C   UNL     1       2.250   1.804  -1.913  1.00  0.00     0.007 A 
HETATM   27  C   UNL     1       2.590   2.616  -2.997  1.00  0.00     0.001 A 
HETATM   28  C   UNL     1       3.866   2.544  -3.548  1.00  0.00     0.000 A 
HETATM   29  C   UNL     1       4.802   1.663  -3.016  1.00  0.00     0.001 A 
HETATM   30  C   UNL     1       4.467   0.851  -1.930  1.00  0.00     0.007 A 
ENDBRANCH  24  25
ENDBRANCH   1  24
BRANCH   6  31
HETATM   31  C   UNL     1       1.177  -4.369  -1.664  1.00  0.00     0.200 C 
BRANCH  31  32
HETATM   32  C   UNL     1       1.314  -3.685  -2.975  1.00  0.00     0.070 A 
HETATM   33  O   UNL     1       1.355  -2.317  -2.942  1.00  0.00    -0.325 OA
HETATM   34  C   UNL     1       1.490  -1.899  -4.229  1.00  0.00     0.142 A 
HETATM   35  C   UNL     1       1.541  -2.976  -5.082  1.00  0.00     0.027 A 
HETATM   36  C   UNL     1       1.428  -4.132  -4.274  1.00  0.00     0.036 A 
ENDBRANCH  31  32
ENDBRANCH   6  31
TORSDOF 6
