REMARK  6 active torsions:
REMARK  status: ('A' for Active; 'I' for Inactive)
REMARK    1  A    between atoms: C_2  and  C_3 
REMARK    2  A    between atoms: C_3  and  C_4 
REMARK    3  A    between atoms: C_3  and  C_10 
REMARK    4  A    between atoms: C_10  and  C_11 
REMARK       I    between atoms: C_11  and  N_12 
REMARK    5  A    between atoms: N_12  and  C_13 
REMARK    6  A    between atoms: C_20  and  C_21 
REMARK       I    between atoms: C_21  and  N_22 
ROOT
HETATM    1  C   UNL     1       5.311   4.823   1.604  1.00  0.00     0.035 A 
HETATM    2  C   UNL     1       4.866   6.077   2.042  1.00  0.00     0.046 A 
HETATM    3  C   UNL     1       5.693   6.852   2.887  1.00  0.00     0.030 A 
HETATM    4  C   UNL     1       6.924   6.339   3.276  1.00  0.00     0.063 A 
HETATM    5  N   UNL     1       7.477   7.291   4.084  1.00  0.00    -0.277 N 
HETATM    6  H   UNL     1       8.374   7.251   4.555  1.00  0.00     0.189 HD
HETATM    7  N   UNL     1       6.725   8.392   4.243  1.00  0.00    -0.168 NA
HETATM    8  C   UNL     1       5.619   8.137   3.507  1.00  0.00     0.156 A 
HETATM    9  C   UNL     1       7.397   5.094   2.862  1.00  0.00     0.034 A 
HETATM   10  C   UNL     1       6.568   4.352   2.012  1.00  0.00     0.032 A 
ENDROOT
BRANCH   1  11
HETATM   11  N   UNL     1       4.574   3.977   0.749  1.00  0.00    -0.327 N 
HETATM   12  C   UNL     1       3.270   4.133   0.317  1.00  0.00     0.222 C 
HETATM   13  O   UNL     1       2.525   5.071   0.586  1.00  0.00    -0.273 OA
HETATM   14  H   UNL     1       5.050   3.134   0.465  1.00  0.00     0.169 HD
BRANCH  12  15
HETATM   15  C   UNL     1       2.799   3.044  -0.645  1.00  0.00     0.113 C 
BRANCH  15  16
HETATM   16  C   UNL     1       2.987   1.594  -0.150  1.00  0.00     0.030 C 
BRANCH  16  17
HETATM   17  C   UNL     1       2.560   0.510  -1.189  1.00  0.00    -0.014 C 
HETATM   18  C   UNL     1       3.519   0.484  -2.387  1.00  0.00     0.010 C 
HETATM   19  C   UNL     1       1.122   0.640  -1.701  1.00  0.00     0.010 C 
ENDBRANCH  16  17
BRANCH  16  20
HETATM   20  C   UNL     1       2.370   1.328   1.219  1.00  0.00    -0.053 A 
HETATM   21  C   UNL     1       1.086   1.770   1.564  1.00  0.00     0.007 A 
HETATM   22  C   UNL     1       0.558   1.509   2.831  1.00  0.00     0.001 A 
HETATM   23  C   UNL     1       1.307   0.809   3.772  1.00  0.00     0.000 A 
HETATM   24  C   UNL     1       2.584   0.363   3.447  1.00  0.00     0.001 A 
HETATM   25  C   UNL     1       3.110   0.615   2.178  1.00  0.00     0.007 A 
ENDBRANCH  16  20
ENDBRANCH  15  16
ENDBRANCH  12  15
ENDBRANCH   1  11
BRANCH   8  26
HETATM   26  C   UNL     1       4.534   9.124   3.406  1.00  0.00     0.270 C 
HETATM   27  N   UNL     1       4.756  10.270   4.121  1.00  0.00    -0.365 N 
HETATM   28  H   UNL     1       5.623  10.358   4.637  1.00  0.00     0.159 HD
HETATM   29  H   UNL     1       4.077  11.013   4.096  1.00  0.00     0.159 HD
HETATM   30  O   UNL     1       3.512   8.977   2.746  1.00  0.00    -0.266 OA
ENDBRANCH   8  26
TORSDOF 6
