REMARK  5 active torsions:
REMARK  status: ('A' for Active; 'I' for Inactive)
REMARK    1  A    between atoms: N_3  and  C_4 
REMARK    2  A    between atoms: C_5  and  O_6 
REMARK    3  A    between atoms: C_14  and  C_15 
REMARK    4  A    between atoms: C_15  and  N_16 
REMARK       I    between atoms: N_16  and  C_17 
REMARK       I    between atoms: C_17  and  N_18 
REMARK    5  A    between atoms: N_18  and  C_19 
ROOT
HETATM    1  C   UNL     1       0.738  -0.069   0.660  1.00  0.00     0.068 C 
HETATM    2  C   UNL     1       2.208  -0.084   0.417  1.00  0.00     0.014 A 
HETATM    3  N   UNL     1       2.971   1.022   0.050  1.00  0.00    -0.317 N 
HETATM    4  C   UNL     1       4.304   0.611  -0.027  1.00  0.00     0.021 A 
HETATM    5  C   UNL     1       5.407   1.483  -0.536  1.00  0.00     0.069 C 
HETATM    6  C   UNL     1       4.393  -0.703   0.413  1.00  0.00    -0.016 A 
HETATM    7  C   UNL     1       3.067  -1.147   0.622  1.00  0.00     0.035 A 
ENDROOT
BRANCH   6   8
HETATM    8  C   UNL     1       5.630  -1.495   0.655  1.00  0.00     0.165 C 
BRANCH   8   9
HETATM    9  N   UNL     1       6.042  -2.175  -0.547  1.00  0.00    -0.339 N 
HETATM   10  C   UNL     1       7.201  -2.869  -0.725  1.00  0.00     0.316 C 
HETATM   11  N   UNL     1       7.913  -3.112   0.414  1.00  0.00    -0.339 N 
HETATM   12  O   UNL     1       7.550  -3.204  -1.850  1.00  0.00    -0.247 OA
HETATM   13  H   UNL     1       7.360  -3.177   1.253  1.00  0.00     0.164 HD
HETATM   14  H   UNL     1       5.574  -1.934  -1.413  1.00  0.00     0.164 HD
BRANCH  11  15
HETATM   15  C   UNL     1       9.183  -3.823   0.463  1.00  0.00     0.086 C 
HETATM   16  C   UNL     1      10.292  -3.155  -0.360  1.00  0.00     0.025 C 
HETATM   17  C   UNL     1      11.621  -3.888  -0.182  1.00  0.00     0.002 C 
HETATM   18  C   UNL     1      11.494  -5.376  -0.504  1.00  0.00     0.000 C 
HETATM   19  C   UNL     1      10.372  -6.039   0.291  1.00  0.00     0.002 C 
HETATM   20  C   UNL     1       9.042  -5.308   0.112  1.00  0.00     0.025 C 
ENDBRANCH  11  15
ENDBRANCH   8   9
ENDBRANCH   6   8
BRANCH   3  21
HETATM   21  C   UNL     1       2.519   2.374  -0.046  1.00  0.00     0.072 A 
HETATM   22  C   UNL     1       1.416   2.747  -0.833  1.00  0.00     0.095 A 
HETATM   23  C   UNL     1       1.022   4.093  -0.844  1.00  0.00     0.039 A 
HETATM   24  C   UNL     1       1.698   5.046  -0.077  1.00  0.00     0.003 A 
HETATM   25  C   UNL     1       2.785   4.671   0.704  1.00  0.00     0.002 A 
HETATM   26  C   UNL     1       3.197   3.341   0.720  1.00  0.00     0.033 A 
BRANCH  22  27
HETATM   27  O   UNL     1       0.839   1.797  -1.633  1.00  0.00    -0.354 OA
HETATM   28  C   UNL     1      -0.496   2.048  -2.059  1.00  0.00     0.210 C 
ENDBRANCH  22  27
ENDBRANCH   3  21
TORSDOF 5
