REMARK  3 active torsions:
REMARK  status: ('A' for Active; 'I' for Inactive)
REMARK    1  A    between atoms: C_2  and  C_3 
REMARK    2  A    between atoms: C_12  and  C_13 
REMARK    3  A    between atoms: C_16  and  O_17 
ROOT
HETATM    1  C   UNL     1       1.809  -1.545   0.916  1.00  0.00    -0.007 C 
HETATM    2  C   UNL     1       2.689  -2.763   0.553  1.00  0.00     0.009 C 
HETATM    3  C   UNL     1       4.180  -2.459   0.310  1.00  0.00     0.056 C 
HETATM    4  C   UNL     1       4.833  -1.515   1.343  1.00  0.00     0.129 C 
HETATM    5  N   UNL     1       5.302  -2.195   2.581  1.00  0.00    -0.223 N 
HETATM    6  C   UNL     1       6.306  -1.606   3.366  1.00  0.00     0.142 C 
HETATM    7  N   UNL     1       6.429  -2.040   4.657  1.00  0.00    -0.305 N 
HETATM    8  C   UNL     1       5.783  -3.170   5.085  1.00  0.00     0.278 C 
HETATM    9  O   UNL     1       5.723  -3.491   6.260  1.00  0.00    -0.265 OA
HETATM   10  C   UNL     1       5.197  -4.029   3.958  1.00  0.00     0.155 C 
HETATM   11  N   UNL     1       4.900  -3.494   2.798  1.00  0.00    -0.162 NA
HETATM   12  C   UNL     1       7.147  -0.675   2.859  1.00  0.00     0.036 C 
HETATM   13  C   UNL     1       7.025  -0.449   1.373  1.00  0.00     0.044 C 
HETATM   14  N   UNL     1       6.026  -0.892   0.696  1.00  0.00    -0.361 N 
HETATM   15  H   UNL     1       5.997  -0.749  -0.312  1.00  0.00     0.162 HD
HETATM   16  C   UNL     1       8.213   0.013   3.563  1.00  0.00     0.017 C 
HETATM   17  C   UNL     1       9.113   0.748   2.896  1.00  0.00     0.001 C 
HETATM   18  C   UNL     1       9.081   0.865   1.458  1.00  0.00     0.002 C 
HETATM   19  C   UNL     1       8.117   0.313   0.708  1.00  0.00     0.030 C 
HETATM   20  C   UNL     1       3.905  -0.331   1.709  1.00  0.00     0.056 C 
HETATM   21  C   UNL     1       2.494  -0.772   2.054  1.00  0.00     0.009 C 
HETATM   22  H   UNL     1       6.977  -1.560   5.356  1.00  0.00     0.170 HD
ENDROOT
BRANCH   1  23
HETATM   23  C   UNL     1       1.268  -0.694  -0.309  1.00  0.00    -0.048 C 
HETATM   24  C   UNL     1       0.026  -1.416  -0.889  1.00  0.00     0.015 C 
HETATM   25  C   UNL     1       2.263  -0.521  -1.470  1.00  0.00     0.015 C 
HETATM   26  C   UNL     1       0.804   0.714   0.121  1.00  0.00     0.015 C 
ENDBRANCH   1  23
BRANCH  10  27
HETATM   27  C   UNL     1       5.071  -5.506   4.147  1.00  0.00     0.000 A 
HETATM   28  C   UNL     1       4.231  -6.244   3.307  1.00  0.00     0.017 A 
HETATM   29  C   UNL     1       4.212  -7.641   3.383  1.00  0.00     0.037 A 
HETATM   30  C   UNL     1       5.037  -8.322   4.282  1.00  0.00     0.068 A 
HETATM   31  C   UNL     1       5.862  -7.590   5.132  1.00  0.00     0.037 A 
HETATM   32  C   UNL     1       5.884  -6.191   5.061  1.00  0.00     0.017 A 
BRANCH  30  33
HETATM   33  O   UNL     1       4.950  -9.684   4.230  1.00  0.00    -0.356 OA
HETATM   34  C   UNL     1       5.894 -10.420   5.001  1.00  0.00     0.210 C 
ENDBRANCH  30  33
ENDBRANCH  10  27
TORSDOF 3
