REMARK  4 active torsions:
REMARK  status: ('A' for Active; 'I' for Inactive)
REMARK    1  A    between atoms: S_2  and  N_3 
REMARK    2  A    between atoms: N_3  and  N_4 
REMARK    3  A    between atoms: C_10  and  C_11 
REMARK    4  A    between atoms: C_14  and  O_15 
ROOT
HETATM    1  N   UNL     1       3.118  -0.787  -2.560  1.00  0.00    -0.224 N 
HETATM    2  C   UNL     1       2.754  -2.054  -2.108  1.00  0.00     0.276 C 
HETATM    3  O   UNL     1       2.368  -2.325  -0.977  1.00  0.00    -0.266 OA
HETATM    4  C   UNL     1       2.912  -3.155  -3.090  1.00  0.00     0.055 A 
HETATM    5  C   UNL     1       3.497  -2.872  -4.332  1.00  0.00     0.026 A 
HETATM    6  N   UNL     1       3.926  -1.573  -4.652  1.00  0.00    -0.265 NA
HETATM    7  C   UNL     1       3.137  -0.532  -4.000  1.00  0.00     0.222 C 
HETATM    8  C   UNL     1       2.536  -4.461  -2.751  1.00  0.00     0.019 A 
HETATM    9  C   UNL     1       2.781  -5.504  -3.643  1.00  0.00     0.001 A 
HETATM   10  C   UNL     1       3.417  -5.243  -4.855  1.00  0.00     0.002 A 
HETATM   11  C   UNL     1       3.786  -3.937  -5.191  1.00  0.00     0.024 A 
HETATM   12  H   UNL     1       3.997  -1.425  -5.655  1.00  0.00     0.130 HD
ENDROOT
BRANCH   7  13
HETATM   13  C   UNL     1       3.707   0.823  -4.398  1.00  0.00    -0.019 A 
HETATM   14  C   UNL     1       2.853   1.836  -4.872  1.00  0.00     0.013 A 
HETATM   15  C   UNL     1       3.355   3.098  -5.200  1.00  0.00     0.037 A 
HETATM   16  C   UNL     1       4.714   3.352  -5.055  1.00  0.00     0.065 A 
HETATM   17  C   UNL     1       5.577   2.368  -4.589  1.00  0.00     0.037 A 
HETATM   18  C   UNL     1       5.077   1.108  -4.259  1.00  0.00     0.013 A 
BRANCH  16  19
HETATM   19  O   UNL     1       5.246   4.569  -5.358  1.00  0.00    -0.361 OA
HETATM   20  H   UNL     1       4.530   5.170  -5.623  1.00  0.00     0.217 HD
ENDBRANCH  16  19
ENDBRANCH   7  13
BRANCH   1  21
HETATM   21  N   UNL     1       2.981   0.407  -1.686  1.00  0.00    -0.220 N 
HETATM   22  H   UNL     1       3.223   1.317  -2.092  1.00  0.00     0.200 HD
BRANCH  21  23
HETATM   23  S   UNL     1       3.310   0.433  -0.034  1.00  0.00     0.240 S 
HETATM   24  C   UNL     1       4.726  -0.640   0.156  1.00  0.00     0.187 C 
HETATM   25  O   UNL     1       2.179  -0.072   0.709  1.00  0.00    -0.205 OA
HETATM   26  O   UNL     1       3.783   1.785   0.201  1.00  0.00    -0.205 OA
ENDBRANCH  21  23
ENDBRANCH   1  21
TORSDOF 4
