REMARK  10 active torsions:
REMARK  status: ('A' for Active; 'I' for Inactive)
REMARK    1  A    between atoms: N_2  and  C_4 
REMARK    2  A    between atoms: C_4  and  C_5 
REMARK    3  A    between atoms: N_6  and  C_7 
REMARK    4  A    between atoms: C_11  and  N_12 
REMARK    5  A    between atoms: C_15  and  C_16 
REMARK       I    between atoms: C_16  and  N_17 
REMARK    6  A    between atoms: N_17  and  N_18 
REMARK    7  A    between atoms: C_19  and  C_20 
REMARK    8  A    between atoms: C_21  and  O_22 
REMARK    9  A    between atoms: O_22  and  C_23 
REMARK   10  A    between atoms: C_23  and  C_24 
ROOT
HETATM    1  C   UNL     1       3.919   2.538   0.977  1.00  0.00     0.293 C 
HETATM    2  N   UNL     1       4.502   3.790   1.064  1.00  0.00    -0.242 N 
HETATM    3  O   UNL     1       3.018   2.125   1.705  1.00  0.00    -0.264 OA
HETATM    4  H   UNL     1       5.173   4.109   0.369  1.00  0.00     0.192 HD
ENDROOT
BRANCH   1   5
HETATM    5  C   UNL     1       4.397   1.716  -0.123  1.00  0.00     0.170 A 
HETATM    6  C   UNL     1       3.968   0.436  -0.444  1.00  0.00     0.096 A 
HETATM    7  N   UNL     1       4.672   0.117  -1.602  1.00  0.00    -0.215 N 
HETATM    8  N   UNL     1       5.531   1.132  -1.883  1.00  0.00     0.012 NA
HETATM    9  N   UNL     1       5.345   2.115  -1.017  1.00  0.00    -0.152 NA
BRANCH   6  10
HETATM   10  C   UNL     1       3.046  -0.473   0.280  1.00  0.00     0.295 C 
BRANCH  10  11
HETATM   11  N   UNL     1       1.644  -0.531  -0.280  1.00  0.00    -0.073 N 
HETATM   12  C   UNL     1       0.883   0.760  -0.140  1.00  0.00     0.269 C 
HETATM   13  H   UNL     1       1.730  -0.752  -1.282  1.00  0.00     0.279 HD
HETATM   14  C   UNL     1       0.868  -1.670   0.326  1.00  0.00     0.269 C 
ENDBRANCH  10  11
ENDBRANCH   6  10
BRANCH   7  15
HETATM   15  C   UNL     1       4.533  -1.017  -2.437  1.00  0.00     0.225 A 
HETATM   16  N   UNL     1       3.539  -1.884  -2.223  1.00  0.00    -0.081 NA
HETATM   17  O   UNL     1       3.713  -2.838  -3.232  1.00  0.00    -0.103 OA
HETATM   18  N   UNL     1       4.785  -2.514  -4.050  1.00  0.00    -0.083 NA
HETATM   19  C   UNL     1       5.293  -1.384  -3.560  1.00  0.00     0.201 A 
BRANCH  19  20
HETATM   20  N   UNL     1       6.353  -0.740  -4.071  1.00  0.00    -0.379 N 
HETATM   21  H   UNL     1       6.792  -1.070  -4.927  1.00  0.00     0.158 HD
HETATM   22  H   UNL     1       6.678   0.169  -3.747  1.00  0.00     0.158 HD
ENDBRANCH  19  20
ENDBRANCH   7  15
ENDBRANCH   1   5
BRANCH   2  23
HETATM   23  N   UNL     1       4.047   4.630   2.025  1.00  0.00    -0.183 NA
HETATM   24  C   UNL     1       4.365   5.878   1.943  1.00  0.00     0.153 C 
BRANCH  24  25
HETATM   25  C   UNL     1       3.883   6.836   2.953  1.00  0.00     0.016 A 
HETATM   26  C   UNL     1       2.538   7.035   3.314  1.00  0.00     0.080 A 
HETATM   27  C   UNL     1       2.241   8.013   4.274  1.00  0.00     0.037 A 
HETATM   28  C   UNL     1       3.252   8.762   4.882  1.00  0.00     0.003 A 
HETATM   29  C   UNL     1       4.579   8.561   4.517  1.00  0.00     0.001 A 
HETATM   30  C   UNL     1       4.895   7.607   3.550  1.00  0.00     0.016 A 
BRANCH  26  31
HETATM   31  O   UNL     1       1.420   6.499   2.730  1.00  0.00    -0.346 OA
BRANCH  31  32
HETATM   32  C   UNL     1       1.365   5.077   2.641  1.00  0.00     0.219 C 
BRANCH  32  33
HETATM   33  C   UNL     1      -0.069   4.618   2.710  1.00  0.00     0.026 A 
HETATM   34  C   UNL     1      -0.704   4.261   3.906  1.00  0.00     0.045 A 
HETATM   35 CL   UNL     1       0.111   4.322   5.428  1.00  0.00    -0.084 Cl
HETATM   36  C   UNL     1      -2.034   3.819   3.904  1.00  0.00     0.024 A 
HETATM   37  C   UNL     1      -2.754   3.746   2.711  1.00  0.00     0.005 A 
HETATM   38  C   UNL     1      -2.142   4.112   1.518  1.00  0.00     0.043 A 
HETATM   39  C   UNL     1      -0.815   4.539   1.527  1.00  0.00     0.126 A 
HETATM   40  F   UNL     1      -0.243   4.843   0.352  1.00  0.00    -0.205 F 
ENDBRANCH  32  33
ENDBRANCH  31  32
ENDBRANCH  26  31
ENDBRANCH  24  25
ENDBRANCH   2  23
TORSDOF 10
