REMARK  8 active torsions:
REMARK  status: ('A' for Active; 'I' for Inactive)
REMARK    1  A    between atoms: C_4  and  N_5 
REMARK       I    between atoms: N_5  and  C_6 
REMARK    2  A    between atoms: C_6  and  C_7 
REMARK    3  A    between atoms: C_10  and  N_11 
REMARK       I    between atoms: N_11  and  C_12 
REMARK       I    between atoms: C_12  and  N_21 
REMARK    4  A    between atoms: N_21  and  CA_22 
REMARK    5  A    between atoms: CA_22  and  C_23 
REMARK    6  A    between atoms: CA_22  and  CB_25 
REMARK    7  A    between atoms: C_23  and  O_24 
REMARK    8  A    between atoms: CB_25  and  CG_26 
ROOT
HETATM    1  N   UNK A   0       0.466  -2.234   0.235  1.00  0.00    -0.309 N 
HETATM    2  C   UNK A   0       0.911  -2.618   1.480  1.00  0.00     0.321 C 
HETATM    3  O   UNK A   0       1.772  -2.070   2.155  1.00  0.00    -0.247 OA
HETATM    4  H   UNK A   0       0.003  -2.958  -0.293  1.00  0.00     0.170 HD
ATOM      5  N   TRP A   1       0.225  -3.738   1.899  1.00  0.00    -0.336 N 
ATOM      6  H   TRP A   1      -0.727  -3.792   1.557  1.00  0.00     0.164 HD
ENDROOT
BRANCH   1   7
HETATM    7  C   UNK A   0       0.516  -0.951  -0.333  1.00  0.00     0.036 A 
HETATM    8  C   UNK A   0       0.990   0.171   0.346  1.00  0.00     0.030 A 
HETATM    9  C   UNK A   0       0.808   1.456  -0.183  1.00  0.00     0.019 A 
HETATM   10  C   UNK A   0       0.173   1.631  -1.419  1.00  0.00     0.032 A 
HETATM   11  C   UNK A   0      -0.226   0.494  -2.135  1.00  0.00     0.019 A 
HETATM   12  C   UNK A   0      -0.058  -0.786  -1.596  1.00  0.00     0.030 A 
BRANCH  10  13
HETATM   13  C   UNK A   0      -0.226   2.972  -1.961  1.00  0.00     0.256 C 
HETATM   14  N   UNK A   0       0.268   4.082  -1.298  1.00  0.00    -0.323 N 
HETATM   15  H   UNK A   0       1.049   3.950  -0.673  1.00  0.00     0.169 HD
HETATM   16  O   UNK A   0      -0.974   3.002  -2.934  1.00  0.00    -0.267 OA
BRANCH  14  17
HETATM   17  C   UNK A   0      -0.214   5.406  -1.390  1.00  0.00     0.035 A 
HETATM   18  C   UNK A   0      -1.352   5.771  -2.113  1.00  0.00     0.029 A 
HETATM   19  C   UNK A   0      -1.807   7.093  -2.103  1.00  0.00     0.002 A 
HETATM   20  C   UNK A   0      -1.129   8.062  -1.370  1.00  0.00     0.000 A 
HETATM   21  C   UNK A   0       0.009   7.711  -0.648  1.00  0.00     0.002 A 
HETATM   22  C   UNK A   0       0.463   6.389  -0.657  1.00  0.00     0.029 A 
ENDBRANCH  14  17
ENDBRANCH  10  13
ENDBRANCH   1   7
BRANCH   5  23
ATOM     23  CA  TRP A   1       0.342  -4.237   3.268  1.00  0.00     0.114 C 
BRANCH  23  24
ATOM     24  C   TRP A   1      -0.269  -5.650   3.351  1.00  0.00     0.189 C 
BRANCH  24  25
ATOM     25  O   TRP A   1      -1.584  -5.691   2.795  1.00  0.00    -0.399 OA
ATOM     26  H   TRP A   1      -1.884  -6.615   2.854  1.00  0.00     0.209 HD
ENDBRANCH  24  25
ENDBRANCH  23  24
BRANCH  23  27
ATOM     27  CB  TRP A   1      -0.219  -3.269   4.341  1.00  0.00     0.068 C 
BRANCH  27  28
ATOM     28  CG  TRP A   1      -1.489  -2.538   4.004  1.00  0.00    -0.028 A 
ATOM     29  CD2 TRP A   1      -1.609  -1.142   3.686  1.00  0.00    -0.002 A 
ATOM     30  CE2 TRP A   1      -2.957  -0.877   3.446  1.00  0.00     0.042 A 
ATOM     31  CE3 TRP A   1      -0.692  -0.075   3.583  1.00  0.00     0.014 A 
ATOM     32  CZ2 TRP A   1      -3.431   0.393   3.093  1.00  0.00     0.030 A 
ATOM     33  NE1 TRP A   1      -3.637  -2.057   3.630  1.00  0.00    -0.365 N 
ATOM     34  CH2 TRP A   1      -2.500   1.430   2.991  1.00  0.00     0.002 A 
ATOM     35  CZ3 TRP A   1      -1.149   1.203   3.238  1.00  0.00     0.001 A 
ATOM     36  HE1 TRP A   1      -4.636  -2.162   3.529  1.00  0.00     0.165 HD
ATOM     37  CD1 TRP A   1      -2.770  -3.054   3.985  1.00  0.00     0.096 A 
ENDBRANCH  27  28
ENDBRANCH  23  27
ENDBRANCH   5  23
TORSDOF 8
