REMARK  7 active torsions:
REMARK  status: ('A' for Active; 'I' for Inactive)
REMARK    1  A    between atoms: C_4  and  C_5 
REMARK    2  A    between atoms: C_5  and  N_6 
REMARK       I    between atoms: N_6  and  C_7 
REMARK    3  A    between atoms: N_6  and  C_22 
REMARK    4  A    between atoms: C_7  and  C_8 
REMARK    5  A    between atoms: C_13  and  C_14 
REMARK    6  A    between atoms: C_15  and  O_16 
REMARK    7  A    between atoms: C_22  and  C_23 
ROOT
HETATM    1  N   UNL     1       5.394  -3.947  -1.691  1.00  0.00    -0.343 N 
HETATM    2  C   UNL     1       4.331  -3.072  -1.428  1.00  0.00     0.235 C 
HETATM    3  O   UNL     1       4.324  -1.922  -1.880  1.00  0.00    -0.272 OA
ENDROOT
BRANCH   2   4
HETATM    4  C   UNL     1       3.198  -3.540  -0.532  1.00  0.00     0.195 C 
HETATM    5  C   UNL     1       1.880  -2.956  -0.955  1.00  0.00     0.247 C 
HETATM    6  O   UNL     1       1.257  -3.236  -1.968  1.00  0.00    -0.271 OA
HETATM    7  N   UNL     1       1.477  -2.049   0.002  1.00  0.00    -0.290 N 
HETATM    8  N   UNL     1       2.382  -1.898   1.047  1.00  0.00    -0.228 NA
HETATM    9  H   UNL     1       0.677  -1.443  -0.156  1.00  0.00     0.183 HD
HETATM   10  C   UNL     1       3.301  -3.060   0.927  1.00  0.00     0.134 C 
HETATM   11  H   UNL     1       1.904  -1.948   1.950  1.00  0.00     0.147 HD
BRANCH  10  12
HETATM   12  C   UNL     1       4.683  -2.779   1.474  1.00  0.00    -0.004 A 
HETATM   13  C   UNL     1       5.392  -3.753   2.187  1.00  0.00     0.073 A 
HETATM   14  C   UNL     1       6.672  -3.501   2.685  1.00  0.00     0.037 A 
HETATM   15  C   UNL     1       7.275  -2.266   2.452  1.00  0.00     0.003 A 
HETATM   16  C   UNL     1       6.598  -1.288   1.730  1.00  0.00     0.001 A 
HETATM   17  C   UNL     1       5.312  -1.541   1.248  1.00  0.00     0.012 A 
BRANCH  13  18
HETATM   18  O   UNL     1       4.818  -4.979   2.379  1.00  0.00    -0.360 OA
HETATM   19  H   UNL     1       5.413  -5.519   2.926  1.00  0.00     0.217 HD
ENDBRANCH  13  18
ENDBRANCH  10  12
ENDBRANCH   2   4
BRANCH   1  20
HETATM   20  C   UNL     1       6.429  -3.465  -2.617  1.00  0.00     0.164 C 
BRANCH  20  21
HETATM   21  C   UNL     1       6.255  -3.936  -4.042  1.00  0.00    -0.040 A 
HETATM   22  C   UNL     1       5.136  -3.554  -4.797  1.00  0.00     0.009 A 
HETATM   23  C   UNL     1       5.002  -3.963  -6.124  1.00  0.00     0.001 A 
HETATM   24  C   UNL     1       5.985  -4.755  -6.715  1.00  0.00     0.000 A 
HETATM   25  C   UNL     1       7.103  -5.138  -5.979  1.00  0.00     0.001 A 
HETATM   26  C   UNL     1       7.240  -4.727  -4.652  1.00  0.00     0.009 A 
ENDBRANCH  20  21
ENDBRANCH   1  20
BRANCH   1  27
HETATM   27  C   UNL     1       5.316  -5.386  -1.407  1.00  0.00     0.164 C 
BRANCH  27  28
HETATM   28  C   UNL     1       6.616  -6.152  -1.361  1.00  0.00    -0.040 A 
HETATM   29  C   UNL     1       7.607  -5.833  -0.421  1.00  0.00     0.009 A 
HETATM   30  C   UNL     1       8.794  -6.564  -0.365  1.00  0.00     0.001 A 
HETATM   31  C   UNL     1       9.001  -7.627  -1.242  1.00  0.00     0.000 A 
HETATM   32  C   UNL     1       8.021  -7.961  -2.174  1.00  0.00     0.001 A 
HETATM   33  C   UNL     1       6.833  -7.231  -2.231  1.00  0.00     0.009 A 
ENDBRANCH  27  28
ENDBRANCH   1  27
TORSDOF 7
