REMARK  7 active torsions:
REMARK  status: ('A' for Active; 'I' for Inactive)
REMARK    1  A    between atoms: C_2  and  N_3 
REMARK    2  A    between atoms: C_2  and  C_10 
REMARK    3  A    between atoms: N_11  and  C_12 
REMARK    4  A    between atoms: C_19  and  S_20 
REMARK    5  A    between atoms: S_20  and  C_21 
REMARK    6  A    between atoms: C_21  and  C_22 
REMARK    7  A    between atoms: C_21  and  C_28 
REMARK       I    between atoms: C_22  and  N_23 
REMARK       I    between atoms: N_23  and  C_24 
REMARK       I    between atoms: C_24  and  N_25 
ROOT
HETATM    1  C   UNL     1       3.016   1.786   0.877  1.00  0.00     0.166 A 
HETATM    2  N   UNL     1       2.658   3.091   0.542  1.00  0.00    -0.274 N 
HETATM    3  C   UNL     1       3.408   3.871   1.404  1.00  0.00     0.197 A 
HETATM    4  N   UNL     1       4.108   3.110   2.212  1.00  0.00    -0.122 NA
HETATM    5  N   UNL     1       3.839   1.811   1.907  1.00  0.00    -0.131 NA
ENDROOT
BRANCH   3   6
HETATM    6  S   UNL     1       3.392   5.596   1.510  1.00  0.00    -0.070 SA
BRANCH   6   7
HETATM    7  C   UNL     1       2.129   5.891   2.803  1.00  0.00     0.180 C 
BRANCH   7   8
HETATM    8  C   UNL     1       2.398   5.003   4.027  1.00  0.00     0.244 C 
HETATM    9  N   UNL     1       3.450   5.416   4.830  1.00  0.00    -0.278 N 
HETATM   10  C   UNL     1       3.904   4.864   5.992  1.00  0.00     0.320 C 
HETATM   11  H   UNL     1       4.001   6.213   4.543  1.00  0.00     0.173 HD
HETATM   12  N   UNL     1       3.185   3.849   6.513  1.00  0.00    -0.352 N 
HETATM   13  O   UNL     1       4.911   5.290   6.545  1.00  0.00    -0.247 OA
HETATM   14  H   UNL     1       2.518   3.359   5.927  1.00  0.00     0.160 HD
HETATM   15  H   UNL     1       3.562   3.374   7.321  1.00  0.00     0.160 HD
HETATM   16  O   UNL     1       1.730   3.984   4.224  1.00  0.00    -0.271 OA
ENDBRANCH   7   8
BRANCH   7  17
HETATM   17  C   UNL     1       1.922   7.352   3.198  1.00  0.00    -0.035 A 
HETATM   18  C   UNL     1       2.807   8.393   2.869  1.00  0.00     0.009 A 
HETATM   19  C   UNL     1       2.565   9.703   3.295  1.00  0.00     0.001 A 
HETATM   20  C   UNL     1       1.443   9.995   4.064  1.00  0.00     0.000 A 
HETATM   21  C   UNL     1       0.557   8.980   4.407  1.00  0.00     0.001 A 
HETATM   22  C   UNL     1       0.791   7.672   3.976  1.00  0.00     0.009 A 
ENDBRANCH   7  17
ENDBRANCH   6   7
ENDBRANCH   3   6
BRANCH   2  23
HETATM   23  C   UNL     1       1.783   3.496  -0.498  1.00  0.00     0.043 A 
HETATM   24  C   UNL     1       0.538   2.866  -0.647  1.00  0.00     0.033 A 
HETATM   25  C   UNL     1      -0.313   3.247  -1.687  1.00  0.00     0.044 A 
HETATM   26  C   UNL     1       0.079   4.250  -2.566  1.00  0.00     0.116 A 
HETATM   27  F   UNL     1      -0.737   4.605  -3.565  1.00  0.00    -0.206 F 
HETATM   28  C   UNL     1       1.304   4.888  -2.422  1.00  0.00     0.044 A 
HETATM   29  C   UNL     1       2.162   4.516  -1.384  1.00  0.00     0.033 A 
ENDBRANCH   2  23
BRANCH   1  30
HETATM   30  C   UNL     1       2.690   0.544   0.103  1.00  0.00     0.255 C 
HETATM   31  C   UNL     1       1.782  -0.391   0.905  1.00  0.00     0.049 C 
BRANCH  30  32
HETATM   32  N   UNL     1       3.926  -0.251  -0.382  1.00  0.00    -0.060 N 
HETATM   33  H   UNL     1       3.549  -1.098  -0.824  1.00  0.00     0.280 HD
HETATM   34  C   UNL     1       4.691   0.497  -1.455  1.00  0.00     0.236 C 
HETATM   35  C   UNL     1       5.730  -0.428  -2.075  1.00  0.00     0.028 C 
HETATM   36  C   UNL     1       6.668  -1.012  -1.025  1.00  0.00     0.003 C 
HETATM   37  C   UNL     1       5.890  -1.680   0.104  1.00  0.00     0.028 C 
HETATM   38  C   UNL     1       4.869  -0.726   0.714  1.00  0.00     0.236 C 
ENDBRANCH  30  32
ENDBRANCH   1  30
TORSDOF 7
