REMARK  7 active torsions:
REMARK  status: ('A' for Active; 'I' for Inactive)
REMARK    1  A    between atoms: C_5  and  C_6 
REMARK       I    between atoms: C_6  and  N_7 
REMARK    2  A    between atoms: N_10  and  C_11 
REMARK    3  A    between atoms: C_14  and  N_15 
REMARK    4  A    between atoms: N_15  and  C_16 
REMARK    5  A    between atoms: C_16  and  N_17 
REMARK       I    between atoms: N_17  and  C_18 
REMARK    6  A    between atoms: C_18  and  C_19 
REMARK    7  A    between atoms: C_22  and  O_23 
ROOT
HETATM    1  C   UNL     1       9.702   4.917  -2.431  1.00  0.00     0.030 A 
HETATM    2  C   UNL     1       9.429   6.210  -1.956  1.00  0.00     0.031 A 
HETATM    3  C   UNL     1      10.168   7.332  -2.368  1.00  0.00     0.032 A 
HETATM    4  C   UNL     1      11.202   7.203  -3.292  1.00  0.00     0.034 A 
HETATM    5  C   UNL     1      11.490   5.936  -3.788  1.00  0.00     0.032 A 
HETATM    6  C   UNL     1      10.760   4.820  -3.351  1.00  0.00     0.031 A 
ENDROOT
BRANCH   4   7
HETATM    7  N   UNL     1      11.971   8.353  -3.593  1.00  0.00    -0.333 N 
HETATM    8  H   UNL     1      12.025   9.019  -2.827  1.00  0.00     0.168 HD
BRANCH   7   9
HETATM    9  C   UNL     1      12.986   8.447  -4.493  1.00  0.00     0.179 C 
HETATM   10  S   UNL     1      14.420   9.183  -4.060  1.00  0.00    -0.040 SA
BRANCH   9  11
HETATM   11  N   UNL     1      12.820   7.996  -5.779  1.00  0.00    -0.299 N 
HETATM   12  C   UNL     1      11.683   7.685  -6.516  1.00  0.00     0.257 C 
HETATM   13  O   UNL     1      11.703   6.788  -7.354  1.00  0.00    -0.267 OA
HETATM   14  H   UNL     1      13.679   7.722  -6.239  1.00  0.00     0.171 HD
BRANCH  12  15
HETATM   15  C   UNL     1      10.448   8.486  -6.301  1.00  0.00     0.032 A 
HETATM   16  C   UNL     1      10.511   9.858  -6.037  1.00  0.00     0.020 A 
HETATM   17  C   UNL     1       9.333  10.590  -5.867  1.00  0.00     0.038 A 
HETATM   18  C   UNL     1       8.087   9.970  -5.979  1.00  0.00     0.068 A 
HETATM   19  C   UNL     1       8.024   8.605  -6.268  1.00  0.00     0.038 A 
HETATM   20  C   UNL     1       9.202   7.866  -6.436  1.00  0.00     0.020 A 
BRANCH  18  21
HETATM   21  O   UNL     1       7.020  10.804  -5.788  1.00  0.00    -0.356 OA
HETATM   22  C   UNL     1       5.725  10.245  -5.965  1.00  0.00     0.210 C 
ENDBRANCH  18  21
ENDBRANCH  12  15
ENDBRANCH   9  11
ENDBRANCH   7   9
ENDBRANCH   4   7
BRANCH   1  23
HETATM   23  N   UNL     1       9.041   3.771  -1.967  1.00  0.00    -0.378 N 
HETATM   24  C   UNL     1       8.717   2.728  -2.973  1.00  0.00     0.143 C 
HETATM   25  C   UNL     1       8.427   1.382  -2.290  1.00  0.00     0.146 C 
HETATM   26  N   UNL     1       7.388   1.488  -1.266  1.00  0.00    -0.345 N 
HETATM   27  C   UNL     1       6.775   0.290  -0.889  1.00  0.00     0.253 C 
HETATM   28  C   UNL     1       7.643   2.550  -0.284  1.00  0.00     0.146 C 
HETATM   29  O   UNL     1       7.125  -0.808  -1.318  1.00  0.00    -0.267 OA
HETATM   30  C   UNL     1       7.990   3.908  -0.932  1.00  0.00     0.143 C 
BRANCH  27  31
HETATM   31  C   UNL     1       5.597   0.339   0.012  1.00  0.00     0.032 A 
HETATM   32  C   UNL     1       4.581   1.279  -0.190  1.00  0.00     0.017 A 
HETATM   33  C   UNL     1       3.431   1.244   0.603  1.00  0.00     0.007 A 
HETATM   34  C   UNL     1       3.285   0.269   1.599  1.00  0.00    -0.062 A 
HETATM   35  C   UNL     1       2.017   0.185   2.398  1.00  0.00     0.048 C 
HETATM   36  C   UNL     1       4.297  -0.683   1.779  1.00  0.00     0.007 A 
HETATM   37  C   UNL     1       5.448  -0.651   0.988  1.00  0.00     0.017 A 
ENDBRANCH  27  31
ENDBRANCH   1  23
TORSDOF 7
