REMARK  6 active torsions:
REMARK  status: ('A' for Active; 'I' for Inactive)
REMARK    1  A    between atoms: O_2  and  C_3 
REMARK    2  A    between atoms: C_6  and  C_7 
REMARK    3  A    between atoms: C_11  and  C_12 
REMARK       I    between atoms: C_12  and  N_13 
REMARK    4  A    between atoms: N_13  and  N_14 
REMARK       I    between atoms: N_14  and  C_15 
REMARK    5  A    between atoms: C_15  and  C_16 
REMARK    6  A    between atoms: C_17  and  C_18 
ROOT
HETATM    1  C   UNL     1      -1.440  -7.324   1.702  1.00  0.00     0.288 C 
HETATM    2  N   UNL     1      -0.655  -8.432   1.456  1.00  0.00    -0.262 N 
HETATM    3  O   UNL     1      -2.227  -6.888   0.863  1.00  0.00    -0.264 OA
HETATM    4  H   UNL     1       0.125  -8.697   2.053  1.00  0.00     0.190 HD
ENDROOT
BRANCH   1   5
HETATM    5  C   UNL     1      -1.266  -6.713   2.990  1.00  0.00     0.121 A 
HETATM    6  N   UNL     1      -1.947  -5.583   3.344  1.00  0.00    -0.272 N 
HETATM    7  N   UNL     1      -1.664  -5.130   4.573  1.00  0.00    -0.174 NA
HETATM    8  H   UNL     1      -2.619  -5.074   2.777  1.00  0.00     0.189 HD
HETATM    9  C   UNL     1      -0.773  -6.008   5.064  1.00  0.00     0.089 A 
HETATM   10  C   UNL     1      -0.495  -7.015   4.095  1.00  0.00     0.071 A 
BRANCH   9  11
HETATM   11  C   UNL     1      -0.215  -5.862   6.414  1.00  0.00    -0.005 A 
HETATM   12  C   UNL     1       0.482  -6.908   7.031  1.00  0.00     0.016 A 
HETATM   13  C   UNL     1       1.015  -6.747   8.316  1.00  0.00     0.037 A 
HETATM   14  C   UNL     1       0.866  -5.543   9.007  1.00  0.00     0.068 A 
HETATM   15  C   UNL     1       0.167  -4.499   8.406  1.00  0.00     0.037 A 
HETATM   16  C   UNL     1      -0.368  -4.660   7.121  1.00  0.00     0.016 A 
BRANCH  14  17
HETATM   17  O   UNL     1       1.439  -5.520  10.248  1.00  0.00    -0.356 OA
HETATM   18  C   UNL     1       1.372  -4.292  10.962  1.00  0.00     0.210 C 
ENDBRANCH  14  17
ENDBRANCH   9  11
ENDBRANCH   1   5
BRANCH   2  19
HETATM   19  N   UNL     1      -0.644  -8.967   0.160  1.00  0.00    -0.267 N 
HETATM   20  C   UNL     1       0.511  -9.574  -0.278  1.00  0.00     0.240 C 
HETATM   21  O   UNL     1       1.480  -9.783   0.446  1.00  0.00    -0.271 OA
HETATM   22  H   UNL     1      -1.383  -8.658  -0.468  1.00  0.00     0.190 HD
BRANCH  20  23
HETATM   23  C   UNL     1       0.513  -9.935  -1.721  1.00  0.00     0.089 A 
HETATM   24  C   UNL     1       1.302 -11.149  -2.189  1.00  0.00     0.034 A 
HETATM   25  C   UNL     1       1.762  -9.752  -2.541  1.00  0.00     0.025 A 
BRANCH  24  26
HETATM   26  C   UNL     1       0.720 -12.063  -3.251  1.00  0.00    -0.031 A 
HETATM   27  C   UNL     1      -0.429 -12.853  -3.040  1.00  0.00     0.040 A 
HETATM   28 CL   UNL     1      -1.266 -12.818  -1.525  1.00  0.00    -0.084 Cl
HETATM   29  C   UNL     1      -0.932 -13.698  -4.036  1.00  0.00     0.024 A 
HETATM   30  C   UNL     1      -0.292 -13.782  -5.270  1.00  0.00     0.002 A 
HETATM   31  C   UNL     1       0.853 -13.028  -5.503  1.00  0.00     0.001 A 
HETATM   32  C   UNL     1       1.352 -12.187  -4.505  1.00  0.00     0.009 A 
ENDBRANCH  24  26
ENDBRANCH  20  23
ENDBRANCH   2  19
TORSDOF 6
