REMARK  7 active torsions:
REMARK  status: ('A' for Active; 'I' for Inactive)
REMARK    1  A    between atoms: C_2  and  C_3 
REMARK    2  A    between atoms: N_16  and  C_17 
REMARK    3  A    between atoms: C_17  and  C_18 
REMARK       I    between atoms: C_18  and  N_19 
REMARK    4  A    between atoms: N_19  and  C_20 
REMARK    5  A    between atoms: C_21  and  C_22 
REMARK       I    between atoms: C_22  and  N_23 
REMARK    6  A    between atoms: N_23  and  C_24 
REMARK    7  A    between atoms: C_24  and  C_25 
ROOT
HETATM    1  C   UNL     1       4.253  -0.953   2.993  1.00  0.00     0.240 C 
ENDROOT
BRANCH   1   2
HETATM    2  N   UNL     1       4.007  -0.416   1.678  1.00  0.00    -0.259 N 
HETATM    3  C   UNL     1       4.865   0.403   1.016  1.00  0.00     0.326 A 
HETATM    4  N   UNL     1       4.227   0.917  -0.088  1.00  0.00    -0.321 N 
HETATM    5  O   UNL     1       5.990   0.725   1.360  1.00  0.00    -0.247 OA
HETATM    6  C   UNL     1       2.835   0.514  -0.162  1.00  0.00     0.140 A 
HETATM    7  H   UNL     1       4.649   1.645  -0.648  1.00  0.00     0.165 HD
HETATM    8  C   UNL     1       2.631  -0.343  -1.412  1.00  0.00     0.054 C 
HETATM    9  C   UNL     1       2.772  -0.399   1.089  1.00  0.00     0.261 A 
HETATM   10  O   UNL     1       1.771  -0.960   1.517  1.00  0.00    -0.270 OA
BRANCH   6  11
HETATM   11  C   UNL     1       1.903   1.716   0.010  1.00  0.00    -0.020 A 
HETATM   12  C   UNL     1       0.803   1.944  -0.838  1.00  0.00     0.022 A 
HETATM   13  C   UNL     1      -0.104   3.000  -0.613  1.00  0.00    -0.025 A 
HETATM   14  C   UNL     1       0.092   3.861   0.487  1.00  0.00    -0.026 A 
HETATM   15  C   UNL     1      -1.213   3.206  -1.450  1.00  0.00     0.012 A 
HETATM   16  C   UNL     1       1.196   3.658   1.322  1.00  0.00     0.013 A 
HETATM   17  C   UNL     1      -0.828   4.895   0.730  1.00  0.00     0.012 A 
HETATM   18  C   UNL     1       2.086   2.606   1.085  1.00  0.00     0.011 A 
HETATM   19  C   UNL     1      -1.928   5.081  -0.107  1.00  0.00     0.001 A 
HETATM   20  C   UNL     1      -2.119   4.239  -1.199  1.00  0.00     0.001 A 
ENDBRANCH   6  11
ENDBRANCH   1   2
BRANCH   1  21
HETATM   21  C   UNL     1       4.366  -2.477   3.045  1.00  0.00     0.240 C 
HETATM   22  N   UNL     1       4.571  -2.912   4.349  1.00  0.00    -0.325 N 
HETATM   23  H   UNL     1       5.032  -2.251   4.965  1.00  0.00     0.169 HD
HETATM   24  O   UNL     1       4.353  -3.202   2.054  1.00  0.00    -0.271 OA
BRANCH  22  25
HETATM   25  C   UNL     1       4.536  -4.248   4.800  1.00  0.00     0.050 A 
HETATM   26  C   UNL     1       3.654  -5.243   4.356  1.00  0.00     0.058 A 
HETATM   27  C   UNL     1       3.700  -6.534   4.913  1.00  0.00     0.019 A 
HETATM   28  C   UNL     1       4.622  -6.840   5.913  1.00  0.00     0.001 A 
HETATM   29  C   UNL     1       5.484  -5.853   6.377  1.00  0.00     0.002 A 
HETATM   30  C   UNL     1       5.433  -4.566   5.833  1.00  0.00     0.030 A 
BRANCH  26  31
HETATM   31  C   UNL     1       2.480  -4.987   3.498  1.00  0.00     0.254 C 
HETATM   32  N   UNL     1       2.644  -5.344   2.183  1.00  0.00    -0.351 N 
HETATM   33  H   UNL     1       3.585  -5.202   1.824  1.00  0.00     0.163 HD
HETATM   34  O   UNL     1       1.440  -4.582   4.000  1.00  0.00    -0.268 OA
BRANCH  32  35
HETATM   35  C   UNL     1       1.576  -5.118   1.238  1.00  0.00     0.187 C 
BRANCH  35  36
HETATM   36  C   UNL     1       1.882  -5.881   0.002  1.00  0.00     0.070 A 
HETATM   37  O   UNL     1       2.089  -5.159  -1.137  1.00  0.00    -0.325 OA
HETATM   38  C   UNL     1       2.366  -6.047  -2.126  1.00  0.00     0.142 A 
HETATM   39  C   UNL     1       2.341  -7.333  -1.641  1.00  0.00     0.027 A 
HETATM   40  C   UNL     1       2.024  -7.229  -0.266  1.00  0.00     0.036 A 
ENDBRANCH  35  36
ENDBRANCH  32  35
ENDBRANCH  26  31
ENDBRANCH  22  25
ENDBRANCH   1  21
TORSDOF 7
