REMARK  5 active torsions:
REMARK  status: ('A' for Active; 'I' for Inactive)
REMARK    1  A    between atoms: C_2  and  C_3 
REMARK       I    between atoms: C_3  and  N_4 
REMARK    2  A    between atoms: N_4  and  C_5 
REMARK    3  A    between atoms: C_8  and  C_9 
REMARK       I    between atoms: C_9  and  N_10 
REMARK    4  A    between atoms: N_10  and  N_11 
REMARK    5  A    between atoms: C_12  and  C_13 
ROOT
HETATM    1  C   UNL     1      -3.612   1.574  -0.791  1.00  0.00     0.271 C 
HETATM    2  N   UNL     1      -3.964   0.230  -0.769  1.00  0.00    -0.243 N 
HETATM    3  O   UNL     1      -4.351   2.506  -1.092  1.00  0.00    -0.266 OA
HETATM    4  H   UNL     1      -3.397  -0.411  -0.223  1.00  0.00     0.192 HD
ENDROOT
BRANCH   2   5
HETATM    5  N   UNL     1      -5.192  -0.289  -1.101  1.00  0.00    -0.183 NA
HETATM    6  C   UNL     1      -5.917   0.340  -1.971  1.00  0.00     0.153 C 
BRANCH   6   7
HETATM    7  C   UNL     1      -7.230  -0.166  -2.339  1.00  0.00     0.018 A 
HETATM    8  C   UNL     1      -8.147   0.476  -3.238  1.00  0.00     0.004 A 
HETATM    9  C   UNL     1      -9.276  -0.335  -3.338  1.00  0.00     0.043 A 
HETATM   10  C   UNL     1      -8.120   1.678  -3.978  1.00  0.00     0.014 A 
HETATM   11  C   UNL     1     -10.377  -0.010  -4.141  1.00  0.00     0.030 A 
HETATM   12  N   UNL     1      -9.062  -1.423  -2.528  1.00  0.00    -0.358 N 
HETATM   13  C   UNL     1     -10.322   1.183  -4.866  1.00  0.00     0.002 A 
HETATM   14  C   UNL     1      -9.212   2.019  -4.786  1.00  0.00     0.001 A 
HETATM   15  H   UNL     1      -9.723  -2.177  -2.405  1.00  0.00     0.166 HD
HETATM   16  C   UNL     1      -7.835  -1.344  -1.917  1.00  0.00     0.018 A 
HETATM   17  C   UNL     1      -7.367  -2.411  -0.994  1.00  0.00     0.069 C 
ENDBRANCH   6   7
ENDBRANCH   2   5
BRANCH   1  18
HETATM   18  C   UNL     1      -2.211   1.876  -0.378  1.00  0.00     0.033 A 
HETATM   19  C   UNL     1      -1.169   0.957  -0.541  1.00  0.00     0.019 A 
HETATM   20  C   UNL     1       0.142   1.305  -0.186  1.00  0.00     0.030 A 
HETATM   21  C   UNL     1       0.430   2.571   0.328  1.00  0.00     0.034 A 
HETATM   22  C   UNL     1      -0.617   3.487   0.492  1.00  0.00     0.030 A 
HETATM   23  C   UNL     1      -1.926   3.146   0.135  1.00  0.00     0.019 A 
BRANCH  21  24
HETATM   24  N   UNL     1       1.723   3.006   0.682  1.00  0.00    -0.327 N 
HETATM   25  C   UNL     1       2.915   2.323   0.523  1.00  0.00     0.221 C 
HETATM   26  O   UNL     1       3.048   1.184   0.086  1.00  0.00    -0.273 OA
HETATM   27  H   UNL     1       1.781   3.939   1.068  1.00  0.00     0.169 HD
BRANCH  25  28
HETATM   28  C   UNL     1       4.128   3.111   0.993  1.00  0.00     0.098 C 
HETATM   29  C   UNL     1       4.275   4.457   0.303  1.00  0.00     0.014 C 
ENDBRANCH  25  28
ENDBRANCH  21  24
ENDBRANCH   1  18
TORSDOF 5
