REMARK  5 active torsions:
REMARK  status: ('A' for Active; 'I' for Inactive)
REMARK    1  A    between atoms: C_2  and  C_3 
REMARK    2  A    between atoms: C_3  and  N_4 
REMARK       I    between atoms: N_4  and  C_5 
REMARK    3  A    between atoms: C_5  and  C_6 
REMARK    4  A    between atoms: C_19  and  O_20 
REMARK    5  A    between atoms: O_20  and  C_21 
ROOT
HETATM    1  N   UNL     1      -3.664  -0.068   0.948  1.00  0.00    -0.353 N 
HETATM    2  C   UNL     1      -5.036  -0.166   0.924  1.00  0.00     0.254 C 
HETATM    3  O   UNL     1      -5.683  -0.180  -0.119  1.00  0.00    -0.268 OA
HETATM    4  H   UNL     1      -3.190   0.011   1.848  1.00  0.00     0.163 HD
ENDROOT
BRANCH   1   5
HETATM    5  C   UNL     1      -2.930   0.123  -0.275  1.00  0.00     0.161 C 
BRANCH   5   6
HETATM    6  C   UNL     1      -1.444   0.126  -0.062  1.00  0.00    -0.035 A 
HETATM    7  C   UNL     1      -0.748  -1.064   0.168  1.00  0.00     0.028 A 
HETATM    8  C   UNL     1       0.633  -1.014   0.291  1.00  0.00     0.120 A 
HETATM    9  N   UNL     1       1.358   0.120   0.198  1.00  0.00    -0.237 NA
HETATM   10  C   UNL     1       0.663   1.257  -0.004  1.00  0.00     0.164 A 
HETATM   11  C   UNL     1      -0.716   1.318  -0.119  1.00  0.00     0.066 A 
BRANCH  10  12
HETATM   12  O   UNL     1       1.349   2.451  -0.117  1.00  0.00    -0.329 OA
BRANCH  12  13
HETATM   13  C   UNL     1       2.688   2.348  -0.646  1.00  0.00     0.130 C 
HETATM   14  C   UNL     1       3.416   3.708  -0.820  1.00  0.00     0.032 C 
HETATM   15  C   UNL     1       4.713   2.992  -0.405  1.00  0.00     0.005 C 
HETATM   16  C   UNL     1       3.828   1.974   0.338  1.00  0.00     0.032 C 
ENDBRANCH  12  13
ENDBRANCH  10  12
ENDBRANCH   5   6
ENDBRANCH   1   5
BRANCH   2  17
HETATM   17  C   UNL     1      -5.739  -0.244   2.226  1.00  0.00     0.066 A 
HETATM   18  C   UNL     1      -5.053  -0.227   3.457  1.00  0.00     0.100 A 
HETATM   19  C   UNL     1      -5.787  -0.299   4.642  1.00  0.00     0.066 A 
HETATM   20  N   UNL     1      -3.703  -0.145   3.738  1.00  0.00    -0.241 NA
HETATM   21  N   UNL     1      -4.842  -0.260   5.637  1.00  0.00    -0.349 N 
HETATM   22  C   UNL     1      -7.180  -0.385   4.678  1.00  0.00     0.074 A 
HETATM   23  H   UNL     1      -5.021  -0.293   6.631  1.00  0.00     0.167 HD
HETATM   24  C   UNL     1      -3.612  -0.169   5.048  1.00  0.00     0.208 A 
HETATM   25  C   UNL     1      -7.833  -0.398   3.446  1.00  0.00     0.119 A 
HETATM   26  F   UNL     1      -9.171  -0.478   3.426  1.00  0.00    -0.206 F 
HETATM   27  C   UNL     1      -7.143  -0.331   2.241  1.00  0.00     0.061 A 
ENDBRANCH   2  17
TORSDOF 5
