REMARK  5 active torsions:
REMARK  status: ('A' for Active; 'I' for Inactive)
REMARK    1  A    between atoms: C_6  and  N_7 
REMARK       I    between atoms: N_7  and  C_8 
REMARK    2  A    between atoms: C_8  and  C_9 
REMARK    3  A    between atoms: C_9  and  O_10 
REMARK    4  A    between atoms: O_10  and  C_11 
REMARK    5  A    between atoms: C_20  and  C_21 
ROOT
HETATM    1  C   UNL     1       0.925  -0.054  -0.376  1.00  0.00     0.073 C 
HETATM    2  C   UNL     1       2.391  -0.240  -0.516  1.00  0.00     0.065 A 
HETATM    3  N   UNL     1       3.171   0.804  -0.822  1.00  0.00    -0.177 NA
HETATM    4  N   UNL     1       4.408   0.283  -0.873  1.00  0.00    -0.262 N 
HETATM    5  H   UNL     1       5.187   0.918  -1.019  1.00  0.00     0.191 HD
HETATM    6  C   UNL     1       4.454  -1.068  -0.649  1.00  0.00     0.137 A 
HETATM    7  C   UNL     1       3.146  -1.439  -0.387  1.00  0.00     0.046 A 
ENDROOT
BRANCH   6   8
HETATM    8  N   UNL     1       5.599  -1.839  -0.598  1.00  0.00    -0.309 N 
HETATM    9  C   UNL     1       6.817  -1.613  -1.180  1.00  0.00     0.247 C 
HETATM   10  O   UNL     1       7.756  -2.360  -0.890  1.00  0.00    -0.271 OA
HETATM   11  H   UNL     1       5.549  -2.709  -0.077  1.00  0.00     0.170 HD
BRANCH   9  12
HETATM   12  C   UNL     1       6.969  -0.565  -2.279  1.00  0.00     0.278 C 
BRANCH  12  13
HETATM   13  O   UNL     1       7.010   0.755  -1.757  1.00  0.00    -0.339 OA
BRANCH  13  14
HETATM   14  C   UNL     1       7.398   1.733  -2.638  1.00  0.00     0.108 A 
HETATM   15  C   UNL     1       7.852   2.929  -2.067  1.00  0.00     0.152 A 
HETATM   16  F   UNL     1       7.895   3.058  -0.732  1.00  0.00    -0.203 F 
HETATM   17  C   UNL     1       8.274   3.996  -2.853  1.00  0.00     0.087 A 
HETATM   18  C   UNL     1       8.226   3.867  -4.233  1.00  0.00     0.119 A 
HETATM   19  F   UNL     1       8.629   4.883  -5.006  1.00  0.00    -0.206 F 
HETATM   20  C   UNL     1       7.761   2.699  -4.828  1.00  0.00     0.045 A 
HETATM   21  C   UNL     1       7.342   1.629  -4.031  1.00  0.00     0.043 A 
ENDBRANCH  13  14
ENDBRANCH  12  13
ENDBRANCH   9  12
ENDBRANCH   6   8
BRANCH   7  22
HETATM   22  C   UNL     1       2.705  -2.799  -0.132  1.00  0.00    -0.020 A 
HETATM   23  C   UNL     1       1.951  -3.100   1.008  1.00  0.00     0.014 A 
HETATM   24  C   UNL     1       1.511  -4.407   1.236  1.00  0.00     0.020 A 
HETATM   25  C   UNL     1       1.823  -5.414   0.323  1.00  0.00     0.011 A 
HETATM   26 BR   UNL     1       1.223  -7.180   0.629  1.00  0.00    -0.051 Br
HETATM   27  C   UNL     1       2.571  -5.128  -0.816  1.00  0.00     0.020 A 
HETATM   28  C   UNL     1       3.008  -3.820  -1.044  1.00  0.00     0.014 A 
ENDBRANCH   7  22
TORSDOF 5
