REMARK  3 active torsions:
REMARK  status: ('A' for Active; 'I' for Inactive)
REMARK    1  A    between atoms: N_6  and  C_7 
REMARK    2  A    between atoms: C_7  and  C_8 
REMARK    3  A    between atoms: N_10  and  C_11 
ROOT
HETATM    1  C   UNL     1       7.007   0.330   1.715  1.00  0.00     0.073 A 
HETATM    2  C   UNL     1       8.270   0.757   1.241  1.00  0.00     0.062 A 
HETATM    3 CL   UNL     1       8.804   2.403   1.328  1.00  0.00    -0.082 Cl
HETATM    4  C   UNL     1       9.210  -0.155   0.736  1.00  0.00     0.026 A 
HETATM    5  C   UNL     1       8.931  -1.517   0.699  1.00  0.00     0.003 A 
HETATM    6  C   UNL     1       7.713  -1.977   1.184  1.00  0.00     0.025 A 
HETATM    7  C   UNL     1       6.763  -1.073   1.691  1.00  0.00     0.072 A 
HETATM    8  C   UNL     1       5.530  -1.627   2.192  1.00  0.00     0.102 C 
HETATM    9  N   UNL     1       4.566  -2.081   2.660  1.00  0.00    -0.191 NA
ENDROOT
BRANCH   1  10
HETATM   10  N   UNL     1       6.003   1.184   2.182  1.00  0.00    -0.378 N 
HETATM   11  C   UNL     1       5.746   1.207   3.624  1.00  0.00     0.129 C 
HETATM   12  C   UNL     1       4.222   1.339   3.790  1.00  0.00     0.032 C 
HETATM   13  C   UNL     1       3.757   2.662   3.157  1.00  0.00     0.009 C 
HETATM   14  C   UNL     1       4.179   2.726   1.682  1.00  0.00     0.020 C 
HETATM   15  C   UNL     1       5.674   2.436   1.489  1.00  0.00     0.123 C 
BRANCH  12  16
HETATM   16  C   UNL     1       3.813   1.171   5.262  1.00  0.00     0.278 C 
BRANCH  16  17
HETATM   17  N   UNL     1       2.355   1.136   5.517  1.00  0.00     0.092 N 
HETATM   18  C   UNL     1       2.073   0.936   6.956  1.00  0.00     0.300 C 
HETATM   19  C   UNL     1       2.303  -0.503   7.478  1.00  0.00     0.264 C 
HETATM   20  N   UNL     1       1.566  -1.512   6.612  1.00  0.00    -0.072 N 
HETATM   21  C   UNL     1       1.788  -2.922   7.066  1.00  0.00     0.269 C 
HETATM   22  H   UNL     1       0.563  -1.310   6.708  1.00  0.00     0.279 HD
HETATM   23  C   UNL     1       1.901  -1.335   5.135  1.00  0.00     0.264 C 
HETATM   24  C   UNL     1       1.621   0.124   4.725  1.00  0.00     0.300 C 
ENDBRANCH  16  17
ENDBRANCH  12  16
ENDBRANCH   1  10
TORSDOF 3
