REMARK  6 active torsions:
REMARK  status: ('A' for Active; 'I' for Inactive)
REMARK    1  A    between atoms: C_2  and  C_3 
REMARK    2  A    between atoms: C_5  and  N_6 
REMARK       I    between atoms: N_6  and  C_7 
REMARK       I    between atoms: C_7  and  N_8 
REMARK    3  A    between atoms: N_8  and  C_9 
REMARK    4  A    between atoms: C_9  and  C_10 
REMARK    5  A    between atoms: C_10  and  N_11 
REMARK    6  A    between atoms: C_18  and  O_19 
ROOT
HETATM    1  N   UNL     1       2.857   3.699  -3.302  1.00  0.00    -0.306 N 
HETATM    2  C   UNL     1       3.167   4.586  -2.315  1.00  0.00     0.320 C 
HETATM    3  N   UNL     1       2.860   5.891  -2.584  1.00  0.00    -0.341 N 
HETATM    4  O   UNL     1       3.702   4.333  -1.240  1.00  0.00    -0.247 OA
HETATM    5  H   UNL     1       2.810   4.066  -4.245  1.00  0.00     0.171 HD
HETATM    6  H   UNL     1       3.106   6.462  -1.784  1.00  0.00     0.164 HD
ENDROOT
BRANCH   1   7
HETATM    7  C   UNL     1       2.900   2.289  -3.240  1.00  0.00     0.070 A 
HETATM    8  C   UNL     1       2.931   1.584  -2.031  1.00  0.00     0.040 A 
HETATM    9  C   UNL     1       2.933   0.174  -1.994  1.00  0.00    -0.048 A 
HETATM   10  C   UNL     1       2.908  -0.501  -3.223  1.00  0.00     0.011 A 
HETATM   11  C   UNL     1       2.872   0.194  -4.440  1.00  0.00     0.039 A 
HETATM   12  C   UNL     1       2.861   1.588  -4.457  1.00  0.00     0.095 A 
BRANCH   9  13
HETATM   13  C   UNL     1       2.939  -0.557  -0.639  1.00  0.00    -0.024 C 
HETATM   14  C   UNL     1       1.653  -0.201   0.139  1.00  0.00     0.019 C 
HETATM   15  C   UNL     1       4.170  -0.127   0.189  1.00  0.00     0.019 C 
HETATM   16  C   UNL     1       2.988  -2.096  -0.762  1.00  0.00     0.019 C 
ENDBRANCH   9  13
BRANCH  12  17
HETATM   17  O   UNL     1       2.818   2.365  -5.591  1.00  0.00    -0.354 OA
HETATM   18  C   UNL     1       2.815   1.684  -6.840  1.00  0.00     0.210 C 
ENDBRANCH  12  17
ENDBRANCH   1   7
BRANCH   3  19
HETATM   19  C   UNL     1       1.732   6.356  -3.385  1.00  0.00     0.146 C 
BRANCH  19  20
HETATM   20  C   UNL     1       2.089   7.583  -4.216  1.00  0.00     0.170 C 
BRANCH  20  21
HETATM   21  N   UNL     1       0.913   8.206  -4.791  1.00  0.00    -0.278 N 
HETATM   22  N   UNL     1       0.135   7.510  -5.645  1.00  0.00    -0.184 NA
HETATM   23  C   UNL     1      -0.850   8.367  -5.938  1.00  0.00     0.164 A 
HETATM   24  C   UNL     1      -0.693   9.602  -5.286  1.00  0.00     0.070 A 
HETATM   25 CL   UNL     1      -1.718  10.941  -5.396  1.00  0.00    -0.081 Cl
HETATM   26  C   UNL     1       0.460   9.472  -4.551  1.00  0.00     0.137 A 
ENDBRANCH  20  21
ENDBRANCH  19  20
ENDBRANCH   3  19
TORSDOF 6
