REMARK  5 active torsions:
REMARK  status: ('A' for Active; 'I' for Inactive)
REMARK    1  A    between atoms: C_2  and  N_3 
REMARK    2  A    between atoms: N_3  and  C_6 
REMARK    3  A    between atoms: C_6  and  C_7 
REMARK    4  A    between atoms: C_8  and  N_9 
REMARK       I    between atoms: N_9  and  C_10 
REMARK    5  A    between atoms: C_10  and  C_11 
ROOT
HETATM    1  N   UNL     1       3.958   3.451   1.651  1.00  0.00    -0.322 N 
HETATM    2  C   UNL     1       2.818   3.057   0.986  1.00  0.00     0.259 C 
HETATM    3  O   UNL     1       2.436   1.901   0.880  1.00  0.00    -0.267 OA
HETATM    4  H   UNL     1       4.012   4.458   1.795  1.00  0.00     0.169 HD
ENDROOT
BRANCH   1   5
HETATM    5  C   UNL     1       4.882   2.690   2.419  1.00  0.00     0.043 A 
HETATM    6  C   UNL     1       5.139   1.300   2.370  1.00  0.00    -0.006 A 
HETATM    7  C   UNL     1       6.073   0.758   3.289  1.00  0.00     0.011 A 
HETATM    8  C   UNL     1       6.767   1.555   4.196  1.00  0.00     0.001 A 
HETATM    9  C   UNL     1       6.552   2.921   4.203  1.00  0.00     0.002 A 
HETATM   10  C   UNL     1       5.625   3.479   3.323  1.00  0.00     0.030 A 
BRANCH   6  11
HETATM   11  C   UNL     1       4.558   0.302   1.396  1.00  0.00     0.273 C 
BRANCH  11  12
HETATM   12  N   UNL     1       4.807   0.679  -0.025  1.00  0.00    -0.072 N 
HETATM   13  H   UNL     1       5.819   0.756  -0.179  1.00  0.00     0.277 HD
HETATM   14  H   UNL     1       4.414   1.618  -0.141  1.00  0.00     0.277 HD
BRANCH  12  15
HETATM   15  C   UNL     1       4.164  -0.204  -1.033  1.00  0.00     0.228 C 
HETATM   16  C   UNL     1       4.517   0.311  -2.415  1.00  0.00     0.034 C 
ENDBRANCH  12  15
ENDBRANCH  11  12
ENDBRANCH   6  11
ENDBRANCH   1   5
BRANCH   2  17
HETATM   17  C   UNL     1       2.105   4.131   0.333  1.00  0.00     0.067 A 
HETATM   18  C   UNL     1       2.598   5.222  -0.450  1.00  0.00     0.015 A 
HETATM   19  C   UNL     1       1.469   5.894  -0.911  1.00  0.00     0.086 A 
HETATM   20  C   UNL     1       3.862   5.689  -0.863  1.00  0.00     0.015 A 
HETATM   21  C   UNL     1       1.503   7.007  -1.746  1.00  0.00     0.038 A 
HETATM   22  O   UNL     1       0.340   5.295  -0.450  1.00  0.00    -0.321 OA
HETATM   23  C   UNL     1       2.767   7.451  -2.143  1.00  0.00     0.003 A 
HETATM   24  C   UNL     1       3.927   6.805  -1.711  1.00  0.00     0.001 A 
HETATM   25  C   UNL     1       0.728   4.223   0.282  1.00  0.00     0.160 A 
ENDBRANCH   2  17
TORSDOF 5
