REMARK  8 active torsions:
REMARK  status: ('A' for Active; 'I' for Inactive)
REMARK    1  A    between atoms: C_7  and  C_8 
REMARK    2  A    between atoms: C_8  and  O_9 
REMARK    3  A    between atoms: O_9  and  C_10 
REMARK    4  A    between atoms: C_13  and  C_14 
REMARK       I    between atoms: C_14  and  N_15 
REMARK    5  A    between atoms: N_15  and  C_16 
REMARK    6  A    between atoms: C_16  and  C_17 
REMARK    7  A    between atoms: C_20  and  C_21 
REMARK    8  A    between atoms: C_21  and  N_22 
ROOT
HETATM    1  C   UNL     1      -0.912  -7.608  -0.561  1.00  0.00     0.251 C 
HETATM    2  N   UNL     1      -0.468  -8.908  -0.679  1.00  0.00    -0.353 N 
HETATM    3  O   UNL     1      -0.163  -6.649  -0.413  1.00  0.00    -0.268 OA
HETATM    4  H   UNL     1      -1.108  -9.640  -0.951  1.00  0.00     0.163 HD
ENDROOT
BRANCH   1   5
HETATM    5  C   UNL     1      -2.386  -7.407  -0.604  1.00  0.00     0.032 A 
HETATM    6  C   UNL     1      -3.277  -8.391  -0.163  1.00  0.00     0.020 A 
HETATM    7  C   UNL     1      -4.650  -8.134  -0.153  1.00  0.00     0.038 A 
HETATM    8  C   UNL     1      -5.146  -6.895  -0.565  1.00  0.00     0.069 A 
HETATM    9  C   UNL     1      -4.263  -5.920  -1.027  1.00  0.00     0.038 A 
HETATM   10  C   UNL     1      -2.885  -6.171  -1.035  1.00  0.00     0.020 A 
BRANCH   8  11
HETATM   11  O   UNL     1      -6.502  -6.770  -0.467  1.00  0.00    -0.347 OA
BRANCH  11  12
HETATM   12  C   UNL     1      -7.042  -5.448  -0.494  1.00  0.00     0.219 C 
BRANCH  12  13
HETATM   13  C   UNL     1      -8.390  -5.442   0.133  1.00  0.00     0.024 A 
HETATM   14  C   UNL     1      -8.699  -5.447   1.520  1.00  0.00     0.069 A 
HETATM   15  C   UNL     1      -7.762  -5.464   2.667  1.00  0.00     0.073 C 
HETATM   16  N   UNL     1     -10.020  -5.440   1.729  1.00  0.00    -0.133 NA
HETATM   17  O   UNL     1     -10.598  -5.447   0.475  1.00  0.00    -0.217 OA
HETATM   18  C   UNL     1      -9.627  -5.452  -0.475  1.00  0.00     0.085 A 
HETATM   19  C   UNL     1     -10.085  -5.479  -1.876  1.00  0.00     0.079 C 
ENDBRANCH  12  13
ENDBRANCH  11  12
ENDBRANCH   8  11
ENDBRANCH   1   5
BRANCH   2  20
HETATM   20  C   UNL     1       0.927  -9.250  -0.503  1.00  0.00     0.161 C 
BRANCH  20  21
HETATM   21  C   UNL     1       1.320  -9.403   0.952  1.00  0.00    -0.041 A 
HETATM   22  C   UNL     1       0.397  -9.771   1.940  1.00  0.00     0.009 A 
HETATM   23  C   UNL     1       0.780  -9.867   3.279  1.00  0.00     0.009 A 
HETATM   24  C   UNL     1       2.106  -9.628   3.661  1.00  0.00    -0.033 A 
HETATM   25  C   UNL     1       3.044  -9.303   2.672  1.00  0.00     0.009 A 
HETATM   26  C   UNL     1       2.653  -9.191   1.334  1.00  0.00     0.009 A 
BRANCH  24  27
HETATM   27  C   UNL     1       2.507  -9.712   5.108  1.00  0.00     0.273 C 
BRANCH  27  28
HETATM   28  N   UNL     1       3.219 -10.994   5.466  1.00  0.00    -0.067 N 
HETATM   29  H   UNL     1       3.978 -11.103   4.781  1.00  0.00     0.280 HD
HETATM   30  C   UNL     1       2.360 -12.240   5.395  1.00  0.00     0.235 C 
HETATM   31  C   UNL     1       2.043 -12.545   6.843  1.00  0.00     0.029 C 
HETATM   32  C   UNL     1       3.348 -12.223   7.539  1.00  0.00     0.029 C 
HETATM   33  C   UNL     1       3.819 -10.948   6.861  1.00  0.00     0.235 C 
ENDBRANCH  27  28
ENDBRANCH  24  27
ENDBRANCH  20  21
ENDBRANCH   2  20
TORSDOF 8
