REMARK  10 active torsions:
REMARK  status: ('A' for Active; 'I' for Inactive)
REMARK    1  A    between atoms: C_2  and  N_3 
REMARK    2  A    between atoms: N_3  and  C_5 
REMARK    3  A    between atoms: N_3  and  C_34 
REMARK    4  A    between atoms: C_5  and  C_6 
REMARK    5  A    between atoms: C_6  and  C_7 
REMARK    6  A    between atoms: C_7  and  N_8 
REMARK       I    between atoms: N_8  and  C_9 
REMARK    7  A    between atoms: C_9  and  C_10 
REMARK    8  A    between atoms: N_16  and  C_17 
REMARK    9  A    between atoms: C_17  and  C_18 
REMARK       I    between atoms: C_18  and  N_19 
REMARK   10  A    between atoms: N_19  and  C_20 
ROOT
HETATM    1  C   UNL     1      -0.201  -2.615  -5.349  1.00  0.00     0.081 A 
HETATM    2  S   UNL     1       0.382  -4.182  -5.726  1.00  0.00    -0.063 SA
HETATM    3  C   UNL     1       0.975  -3.676  -7.234  1.00  0.00     0.116 A 
HETATM    4  C   UNL     1       0.724  -2.341  -7.468  1.00  0.00     0.075 A 
HETATM    5  C   UNL     1       1.117  -1.807  -8.766  1.00  0.00     0.262 A 
HETATM    6  O   UNL     1       0.916  -0.640  -9.094  1.00  0.00    -0.267 OA
HETATM    7  N   UNL     1       1.688  -2.748  -9.618  1.00  0.00    -0.299 N 
HETATM    8  C   UNL     1       1.929  -4.047  -9.210  1.00  0.00     0.214 A 
HETATM    9  N   UNL     1       1.593  -4.549  -8.065  1.00  0.00    -0.235 NA
HETATM   10  C   UNL     1       0.076  -1.693  -6.351  1.00  0.00    -0.021 A 
HETATM   11  C   UNL     1      -0.304  -0.245  -6.307  1.00  0.00     0.051 C 
ENDROOT
BRANCH   1  12
HETATM   12  C   UNL     1      -0.852  -2.409  -4.069  1.00  0.00     0.259 C 
HETATM   13  N   UNL     1      -1.822  -3.345  -3.758  1.00  0.00    -0.356 N 
HETATM   14  H   UNL     1      -2.057  -4.029  -4.471  1.00  0.00     0.162 HD
HETATM   15  O   UNL     1      -0.568  -1.509  -3.282  1.00  0.00    -0.267 OA
BRANCH  13  16
HETATM   16  C   UNL     1      -2.600  -3.287  -2.541  1.00  0.00     0.124 C 
BRANCH  16  17
HETATM   17  C   UNL     1      -1.994  -4.147  -1.429  1.00  0.00     0.047 C 
BRANCH  17  18
HETATM   18  C   UNL     1      -0.640  -3.616  -0.963  1.00  0.00     0.236 C 
BRANCH  18  19
HETATM   19  N   UNL     1      -0.027  -4.453   0.155  1.00  0.00    -0.072 N 
HETATM   20  H   UNL     1       0.893  -4.022   0.324  1.00  0.00     0.279 HD
BRANCH  19  21
HETATM   21  C   UNL     1       0.274  -5.898  -0.213  1.00  0.00     0.230 C 
HETATM   22  C   UNL     1       1.191  -5.997  -1.418  1.00  0.00     0.034 C 
ENDBRANCH  19  21
BRANCH  19  23
HETATM   23  C   UNL     1      -0.755  -4.383   1.486  1.00  0.00     0.230 C 
HETATM   24  C   UNL     1      -0.770  -2.972   2.041  1.00  0.00     0.034 C 
ENDBRANCH  19  23
ENDBRANCH  18  19
ENDBRANCH  17  18
ENDBRANCH  16  17
ENDBRANCH  13  16
ENDBRANCH   1  12
BRANCH   7  25
HETATM   25  C   UNL     1       2.019  -2.344 -10.973  1.00  0.00     0.236 C 
BRANCH  25  26
HETATM   26  C   UNL     1       3.474  -1.877 -11.089  1.00  0.00     0.240 C 
HETATM   27  N   UNL     1       3.664  -1.028 -12.169  1.00  0.00    -0.326 N 
HETATM   28  H   UNL     1       2.834  -0.670 -12.628  1.00  0.00     0.169 HD
HETATM   29  O   UNL     1       4.343  -2.312 -10.340  1.00  0.00    -0.271 OA
BRANCH  27  30
HETATM   30  C   UNL     1       4.888  -0.565 -12.699  1.00  0.00     0.036 A 
HETATM   31  C   UNL     1       6.143  -0.965 -12.243  1.00  0.00     0.053 A 
HETATM   32  C   UNL     1       7.307  -0.487 -12.863  1.00  0.00     0.042 A 
HETATM   33 CL   UNL     1       8.829  -1.041 -12.256  1.00  0.00    -0.084 Cl
HETATM   34  C   UNL     1       7.236   0.402 -13.946  1.00  0.00    -0.040 A 
HETATM   35  C   UNL     1       8.466   0.915 -14.641  1.00  0.00     0.050 C 
HETATM   36  C   UNL     1       5.972   0.805 -14.393  1.00  0.00     0.011 A 
HETATM   37  C   UNL     1       4.813   0.326 -13.777  1.00  0.00     0.030 A 
ENDBRANCH  27  30
ENDBRANCH  25  26
ENDBRANCH   7  25
TORSDOF 10
