REMARK  8 active torsions:
REMARK  status: ('A' for Active; 'I' for Inactive)
REMARK    1  A    between atoms: O_2  and  C_3 
REMARK    2  A    between atoms: C_3  and  C_4 
REMARK    3  A    between atoms: C_4  and  N_5 
REMARK       I    between atoms: N_5  and  C_6 
REMARK    4  A    between atoms: C_6  and  C_7 
REMARK    5  A    between atoms: C_7  and  N_8 
REMARK       I    between atoms: N_14  and  C_15 
REMARK    6  A    between atoms: C_15  and  C_16 
REMARK    7  A    between atoms: C_19  and  C_20 
REMARK    8  A    between atoms: N_31  and  C_32 
ROOT
HETATM    1  N   UNL     1       6.187  -0.591   0.331  1.00  0.00    -0.325 N 
HETATM    2  C   UNL     1       6.840   0.582   0.615  1.00  0.00     0.250 A 
HETATM    3  O   UNL     1       8.023   0.796   0.399  1.00  0.00    -0.270 OA
HETATM    4  C   UNL     1       5.833   1.533   1.299  1.00  0.00     0.118 A 
HETATM    5  C   UNL     1       5.766   2.834   0.479  1.00  0.00     0.061 C 
HETATM    6  C   UNL     1       6.958   3.754   0.743  1.00  0.00     0.129 C 
HETATM    7  N   UNL     1       7.201   3.898   2.174  1.00  0.00    -0.348 N 
HETATM    8  C   UNL     1       6.835   5.089   2.806  1.00  0.00     0.253 C 
HETATM    9  O   UNL     1       6.273   6.020   2.234  1.00  0.00    -0.267 OA
HETATM   10  C   UNL     1       7.498   2.642   2.861  1.00  0.00     0.129 C 
HETATM   11  C   UNL     1       6.310   1.692   2.754  1.00  0.00     0.061 C 
HETATM   12  N   UNL     1       4.564   0.747   1.225  1.00  0.00    -0.346 N 
HETATM   13  C   UNL     1       4.793  -0.565   0.638  1.00  0.00     0.254 A 
ENDROOT
BRANCH  12  14
HETATM   14  C   UNL     1       3.322   1.067   1.746  1.00  0.00     0.032 A 
HETATM   15  C   UNL     1       3.045   2.283   2.389  1.00  0.00     0.029 A 
HETATM   16  C   UNL     1       1.784   2.587   2.924  1.00  0.00     0.002 A 
HETATM   17  C   UNL     1       0.744   1.675   2.829  1.00  0.00     0.000 A 
HETATM   18  C   UNL     1       0.968   0.465   2.190  1.00  0.00     0.002 A 
HETATM   19  C   UNL     1       2.232   0.176   1.658  1.00  0.00     0.029 A 
ENDBRANCH  12  14
BRANCH   1  20
HETATM   20  C   UNL     1       6.805  -1.756  -0.284  1.00  0.00     0.230 C 
BRANCH  20  21
HETATM   21  C   UNL     1       6.810  -3.000   0.612  1.00  0.00     0.235 C 
HETATM   22  N   UNL     1       6.857  -2.754   1.967  1.00  0.00    -0.358 N 
HETATM   23  H   UNL     1       7.168  -1.834   2.262  1.00  0.00     0.162 HD
HETATM   24  O   UNL     1       6.855  -4.133   0.138  1.00  0.00    -0.272 OA
BRANCH  22  25
HETATM   25  C   UNL     1       7.039  -3.836   2.919  1.00  0.00     0.148 C 
BRANCH  25  26
HETATM   26  C   UNL     1       6.657  -3.419   4.337  1.00  0.00     0.186 C 
BRANCH  26  27
HETATM   27  O   UNL     1       7.533  -2.373   4.771  1.00  0.00    -0.394 OA
HETATM   28  C   UNL     1       7.316  -2.051   6.140  1.00  0.00     0.201 C 
ENDBRANCH  26  27
ENDBRANCH  25  26
ENDBRANCH  22  25
ENDBRANCH  20  21
ENDBRANCH   1  20
BRANCH   8  29
HETATM   29  C   UNL     1       7.109   5.231   4.254  1.00  0.00     0.032 A 
HETATM   30  C   UNL     1       8.394   5.034   4.764  1.00  0.00     0.018 A 
HETATM   31  C   UNL     1       8.594   5.021   6.147  1.00  0.00     0.013 A 
HETATM   32  C   UNL     1       7.530   5.243   7.043  1.00  0.00    -0.026 A 
HETATM   33  C   UNL     1       6.268   5.544   6.493  1.00  0.00     0.013 A 
HETATM   34  C   UNL     1       6.054   5.537   5.112  1.00  0.00     0.018 A 
BRANCH  32  35
HETATM   35  C   UNL     1       7.721   5.111   8.505  1.00  0.00    -0.026 A 
HETATM   36  C   UNL     1       8.894   5.551   9.141  1.00  0.00     0.012 A 
HETATM   37  C   UNL     1       9.088   5.372  10.515  1.00  0.00     0.001 A 
HETATM   38  C   UNL     1       8.105   4.757  11.285  1.00  0.00     0.000 A 
HETATM   39  C   UNL     1       6.930   4.321  10.683  1.00  0.00     0.001 A 
HETATM   40  C   UNL     1       6.743   4.493   9.308  1.00  0.00     0.012 A 
ENDBRANCH  32  35
ENDBRANCH   8  29
TORSDOF 8
