REMARK  5 active torsions:
REMARK  status: ('A' for Active; 'I' for Inactive)
REMARK    1  A    between atoms: C_2  and  O_3 
REMARK    2  A    between atoms: O_3  and  C_4 
REMARK    3  A    between atoms: C_5  and  N_6 
REMARK       I    between atoms: N_6  and  C_7 
REMARK    4  A    between atoms: C_7  and  C_8 
REMARK    5  A    between atoms: C_9  and  C_10 
ROOT
HETATM    1  N   UNL     1       4.943   0.616  -0.900  1.00  0.00    -0.321 N 
HETATM    2  C   UNL     1       5.603   1.473  -1.749  1.00  0.00     0.245 C 
HETATM    3  O   UNL     1       6.292   1.176  -2.715  1.00  0.00    -0.268 OA
HETATM    4  H   UNL     1       4.297   1.007  -0.224  1.00  0.00     0.169 HD
ENDROOT
BRANCH   1   5
HETATM    5  C   UNL     1       5.011  -0.795  -0.880  1.00  0.00     0.071 A 
HETATM    6  C   UNL     1       4.071  -1.474  -0.065  1.00  0.00     0.096 A 
HETATM    7  C   UNL     1       4.114  -2.859   0.113  1.00  0.00     0.049 A 
HETATM    8  C   UNL     1       5.072  -3.563  -0.588  1.00  0.00    -0.020 A 
HETATM    9  C   UNL     1       5.969  -2.909  -1.419  1.00  0.00     0.078 A 
HETATM   10  C   UNL     1       5.394  -5.008  -0.558  1.00  0.00     0.073 C 
HETATM   11  C   UNL     1       5.967  -1.534  -1.579  1.00  0.00     0.069 A 
HETATM   12  O   UNL     1       6.869  -3.751  -2.021  1.00  0.00    -0.345 OA
HETATM   13  C   UNL     1       6.325  -5.075  -1.778  1.00  0.00     0.129 C 
HETATM   14  C   UNL     1       7.471  -6.053  -1.582  1.00  0.00     0.040 C 
BRANCH   6  15
HETATM   15  O   UNL     1       3.101  -0.767   0.608  1.00  0.00    -0.349 OA
BRANCH  15  16
HETATM   16  C   UNL     1       1.965  -0.527  -0.240  1.00  0.00     0.171 C 
HETATM   17  C   UNL     1       0.830  -1.463   0.133  1.00  0.00     0.034 C 
ENDBRANCH  15  16
ENDBRANCH   6  15
ENDBRANCH   1   5
BRANCH   2  18
HETATM   18  C   UNL     1       5.340   2.892  -1.399  1.00  0.00     0.077 C 
HETATM   19  C   UNL     1       5.455   3.837  -2.342  1.00  0.00     0.043 C 
BRANCH  19  20
HETATM   20  C   UNL     1       5.224   5.203  -2.029  1.00  0.00     0.077 A 
HETATM   21  O   UNL     1       5.097   5.687  -0.744  1.00  0.00    -0.310 OA
HETATM   22  C   UNL     1       4.906   7.030  -0.807  1.00  0.00     0.086 A 
HETATM   23  C   UNL     1       4.882   7.451  -2.126  1.00  0.00     0.000 A 
HETATM   24  C   UNL     1       4.756   7.878   0.288  1.00  0.00     0.038 A 
HETATM   25  C   UNL     1       5.090   6.280  -2.899  1.00  0.00     0.051 A 
HETATM   26  C   UNL     1       4.681   8.816  -2.395  1.00  0.00     0.014 A 
HETATM   27  C   UNL     1       4.524   9.697  -1.314  1.00  0.00     0.001 A 
HETATM   28  C   UNL     1       4.565   9.234   0.004  1.00  0.00     0.003 A 
ENDBRANCH  19  20
ENDBRANCH   2  18
TORSDOF 5
