REMARK  7 active torsions:
REMARK  status: ('A' for Active; 'I' for Inactive)
REMARK    1  A    between atoms: C_4  and  C_5 
REMARK    2  A    between atoms: C_5  and  C_6 
REMARK    3  A    between atoms: C_6  and  N_7 
REMARK       I    between atoms: N_7  and  C_8 
REMARK    4  A    between atoms: C_8  and  C_9 
REMARK    5  A    between atoms: C_10  and  N_11 
REMARK    6  A    between atoms: N_12  and  N_13 
REMARK    7  A    between atoms: C_14  and  C_15 
ROOT
HETATM    1  C   UNL     1       3.008  -3.299   0.293  1.00  0.00     0.104 C 
HETATM    2  C   UNL     1       3.910  -4.084   0.994  1.00  0.00     0.123 C 
HETATM    3  N   UNL     1       3.542  -5.420   0.822  1.00  0.00    -0.202 N 
HETATM    4  C   UNL     1       2.237  -5.431   0.364  1.00  0.00     0.183 A 
HETATM    5  C   UNL     1       1.920  -4.137  -0.042  1.00  0.00     0.124 A 
HETATM    6  N   UNL     1       0.721  -3.845  -0.608  1.00  0.00    -0.242 NA
HETATM    7  C   UNL     1      -0.141  -4.879  -0.652  1.00  0.00     0.086 A 
HETATM    8  C   UNL     1       0.200  -6.187  -0.214  1.00  0.00     0.088 A 
HETATM    9  N   UNL     1       1.413  -6.500   0.264  1.00  0.00    -0.225 NA
HETATM   10  C   UNL     1      -1.428  -4.652  -1.127  1.00  0.00     0.034 A 
HETATM   11  C   UNL     1      -2.387  -5.667  -1.165  1.00  0.00     0.002 A 
HETATM   12  C   UNL     1      -2.052  -6.941  -0.730  1.00  0.00     0.002 A 
HETATM   13  C   UNL     1      -0.761  -7.189  -0.265  1.00  0.00     0.034 A 
ENDROOT
BRANCH   1  14
HETATM   14  C   UNL     1       3.202  -1.883   0.078  1.00  0.00     0.257 C 
HETATM   15  N   UNL     1       3.389  -1.541  -1.253  1.00  0.00    -0.356 N 
HETATM   16  H   UNL     1       3.378  -2.311  -1.910  1.00  0.00     0.162 HD
HETATM   17  O   UNL     1       3.396  -1.107   1.008  1.00  0.00    -0.267 OA
BRANCH  15  18
HETATM   18  C   UNL     1       4.295  -0.442  -1.530  1.00  0.00     0.127 C 
BRANCH  18  19
HETATM   19  C   UNL     1       4.314  -0.009  -2.996  1.00  0.00     0.058 C 
BRANCH  19  20
HETATM   20  C   UNL     1       5.449   0.957  -3.254  1.00  0.00    -0.057 A 
HETATM   21  C   UNL     1       6.579   0.554  -3.980  1.00  0.00     0.007 A 
HETATM   22  C   UNL     1       7.652   1.429  -4.162  1.00  0.00     0.001 A 
HETATM   23  C   UNL     1       7.609   2.712  -3.620  1.00  0.00     0.000 A 
HETATM   24  C   UNL     1       6.488   3.125  -2.902  1.00  0.00     0.001 A 
HETATM   25  C   UNL     1       5.412   2.254  -2.723  1.00  0.00     0.007 A 
ENDBRANCH  19  20
ENDBRANCH  18  19
ENDBRANCH  15  18
ENDBRANCH   1  14
BRANCH   2  26
HETATM   26  N   UNL     1       5.004  -3.701   1.717  1.00  0.00    -0.286 NA
HETATM   27  H   UNL     1       5.040  -2.712   1.990  1.00  0.00     0.125 HD
HETATM   28  H   UNL     1       5.270  -4.287   2.511  1.00  0.00     0.125 HD
ENDBRANCH   2  26
BRANCH   3  29
HETATM   29  N   UNL     1       4.287  -6.547   1.075  1.00  0.00    -0.176 NA
HETATM   30  C   UNL     1       5.551  -6.403   0.847  1.00  0.00     0.153 C 
BRANCH  30  31
HETATM   31  C   UNL     1       6.471  -7.488   1.100  1.00  0.00     0.011 A 
HETATM   32  C   UNL     1       7.875  -7.366   1.347  1.00  0.00     0.004 A 
HETATM   33  C   UNL     1       8.385  -8.655   1.494  1.00  0.00     0.043 A 
HETATM   34  C   UNL     1       8.758  -6.272   1.475  1.00  0.00     0.014 A 
HETATM   35  C   UNL     1       9.738  -8.907   1.747  1.00  0.00     0.030 A 
HETATM   36  N   UNL     1       7.329  -9.527   1.347  1.00  0.00    -0.364 N 
HETATM   37  C   UNL     1      10.591  -7.806   1.873  1.00  0.00     0.002 A 
HETATM   38  C   UNL     1      10.110  -6.506   1.743  1.00  0.00     0.001 A 
HETATM   39  H   UNL     1       7.405 -10.533   1.398  1.00  0.00     0.165 HD
HETATM   40  C   UNL     1       6.169  -8.834   1.131  1.00  0.00     0.102 A 
ENDBRANCH  30  31
ENDBRANCH   3  29
TORSDOF 7
