REMARK  5 active torsions:
REMARK  status: ('A' for Active; 'I' for Inactive)
REMARK    1  A    between atoms: O_2  and  C_3 
REMARK    2  A    between atoms: C_5  and  O_6 
REMARK    3  A    between atoms: C_8  and  C_9 
REMARK    4  A    between atoms: C_21  and  N_22 
REMARK       I    between atoms: N_22  and  C_23 
REMARK    5  A    between atoms: C_23  and  C_24 
ROOT
HETATM    1  C   UNL     1       5.329  -2.268   4.245  1.00  0.00    -0.022 A 
HETATM    2  C   UNL     1       6.452  -1.600   4.756  1.00  0.00     0.031 A 
HETATM    3  C   UNL     1       7.259  -2.161   5.766  1.00  0.00     0.059 A 
HETATM    4  C   UNL     1       6.942  -3.431   6.279  1.00  0.00     0.050 A 
HETATM    5  N   UNL     1       7.643  -4.108   7.296  1.00  0.00    -0.324 N 
HETATM    6  C   UNL     1       8.970  -4.007   7.624  1.00  0.00     0.245 C 
HETATM    7  O   UNL     1       9.415  -4.660   8.567  1.00  0.00    -0.271 OA
HETATM    8  C   UNL     1       9.841  -3.134   6.718  1.00  0.00     0.181 C 
HETATM    9  N   UNL     1       9.433  -1.747   6.923  1.00  0.00    -0.334 N 
HETATM   10  C   UNL     1       8.263  -1.241   6.369  1.00  0.00     0.256 C 
HETATM   11  O   UNL     1       8.019  -0.035   6.391  1.00  0.00    -0.267 OA
HETATM   12  C   UNL     1      11.351  -3.381   6.883  1.00  0.00     0.060 C 
HETATM   13  C   UNL     1      12.141  -2.145   7.316  1.00  0.00     0.088 C 
HETATM   14  C   UNL     1      11.403  -1.443   8.447  1.00  0.00     0.045 C 
HETATM   15  C   UNL     1      10.025  -0.971   8.011  1.00  0.00     0.129 C 
HETATM   16  C   UNL     1       5.809  -4.093   5.786  1.00  0.00     0.031 A 
HETATM   17  C   UNL     1       5.022  -3.525   4.778  1.00  0.00     0.014 A 
HETATM   18  H   UNL     1       7.170  -4.859   7.788  1.00  0.00     0.169 HD
ENDROOT
BRANCH  13  19
HETATM   19  N   UNL     1      12.391  -1.239   6.192  1.00  0.00    -0.356 N 
HETATM   20  C   UNL     1      13.382  -1.490   5.275  1.00  0.00     0.222 C 
HETATM   21  O   UNL     1      14.216  -2.380   5.396  1.00  0.00    -0.273 OA
HETATM   22  H   UNL     1      11.608  -0.659   5.903  1.00  0.00     0.162 HD
BRANCH  20  23
HETATM   23  C   UNL     1      13.452  -0.486   4.132  1.00  0.00     0.081 C 
HETATM   24  C   UNL     1      14.186  -1.076   2.917  1.00  0.00     0.041 C 
HETATM   25  C   UNL     1      15.690  -1.220   3.121  1.00  0.00     0.233 C 
HETATM   26  N   UNL     1      16.257   0.073   3.604  1.00  0.00    -0.075 N 
HETATM   27  H   UNL     1      16.193   0.782   2.862  1.00  0.00     0.277 HD
HETATM   28  H   UNL     1      17.263  -0.062   3.774  1.00  0.00     0.277 HD
HETATM   29  C   UNL     1      15.629   0.584   4.858  1.00  0.00     0.233 C 
HETATM   30  C   UNL     1      14.139   0.794   4.622  1.00  0.00     0.041 C 
ENDBRANCH  20  23
ENDBRANCH  13  19
BRANCH   1  31
HETATM   31  C   UNL     1       4.459  -1.630   3.236  1.00  0.00     0.008 A 
HETATM   32  C   UNL     1       4.164  -2.224   1.990  1.00  0.00     0.082 A 
HETATM   33  C   UNL     1       3.325  -1.560   1.084  1.00  0.00     0.074 A 
HETATM   34  C   UNL     1       2.755  -0.321   1.397  1.00  0.00     0.070 A 
HETATM   35  C   UNL     1       3.034   0.267   2.625  1.00  0.00     0.038 A 
HETATM   36  C   UNL     1       3.877  -0.381   3.532  1.00  0.00     0.018 A 
BRANCH  32  37
HETATM   37  O   UNL     1       4.764  -3.433   1.729  1.00  0.00    -0.355 OA
HETATM   38  C   UNL     1       4.266  -4.177   0.622  1.00  0.00     0.210 C 
ENDBRANCH  32  37
BRANCH  34  39
HETATM   39  O   UNL     1       1.955   0.204   0.419  1.00  0.00    -0.356 OA
HETATM   40  C   UNL     1       1.296   1.430   0.715  1.00  0.00     0.210 C 
ENDBRANCH  34  39
ENDBRANCH   1  31
TORSDOF 5
