REMARK  2 active torsions:
REMARK  status: ('A' for Active; 'I' for Inactive)
REMARK    1  A    between atoms: C_2  and  C_3 
REMARK    2  A    between atoms: C_3  and  C_4 
ROOT
HETATM    1  C   UNL     1       3.962  -2.468  -0.163  1.00  0.00     0.085 A 
HETATM    2  S   UNL     1       3.102  -3.259   1.094  1.00  0.00    -0.063 SA
HETATM    3  C   UNL     1       3.738  -4.776   0.671  1.00  0.00     0.111 A 
HETATM    4  C   UNL     1       4.624  -4.711  -0.393  1.00  0.00     0.028 A 
HETATM    5  C   UNL     1       4.771  -3.356  -0.851  1.00  0.00     0.060 A 
HETATM    6  N   UNL     1       5.622  -3.012  -1.848  1.00  0.00    -0.397 N 
HETATM    7  N   UNL     1       3.373  -5.881   1.349  1.00  0.00    -0.245 NA
HETATM    8  C   UNL     1       3.943  -7.033   0.928  1.00  0.00     0.042 A 
HETATM    9  C   UNL     1       4.844  -7.119  -0.136  1.00  0.00    -0.033 A 
HETATM   10  C   UNL     1       5.442  -8.428  -0.581  1.00  0.00     0.040 C 
HETATM   11  C   UNL     1       4.399  -9.409  -1.116  1.00  0.00     0.005 C 
HETATM   12  C   UNL     1       3.628 -10.150  -0.024  1.00  0.00     0.001 C 
HETATM   13  C   UNL     1       2.746  -9.264   0.855  1.00  0.00     0.006 C 
HETATM   14  C   UNL     1       3.530  -8.263   1.701  1.00  0.00     0.060 C 
HETATM   15  C   UNL     1       5.195  -5.935  -0.802  1.00  0.00     0.026 A 
HETATM   16  H   UNL     1       6.315  -3.672  -2.191  1.00  0.00     0.156 HD
HETATM   17  H   UNL     1       5.907  -2.048  -2.010  1.00  0.00     0.156 HD
ENDROOT
BRANCH   1  18
HETATM   18  C   UNL     1       3.761  -1.038  -0.320  1.00  0.00     0.201 C 
HETATM   19  O   UNL     1       3.686  -0.254   0.626  1.00  0.00    -0.286 OA
BRANCH  18  20
HETATM   20  C   UNL     1       3.636  -0.455  -1.689  1.00  0.00     0.018 A 
HETATM   21  C   UNL     1       4.065   0.878  -1.891  1.00  0.00     0.018 A 
HETATM   22  C   UNL     1       3.967   1.480  -3.150  1.00  0.00     0.040 A 
HETATM   23  C   UNL     1       3.429   0.733  -4.174  1.00  0.00     0.105 A 
HETATM   24  C   UNL     1       2.994  -0.558  -3.979  1.00  0.00     0.106 A 
HETATM   25  O   UNL     1       3.256   1.151  -5.456  1.00  0.00    -0.323 OA
HETATM   26  C   UNL     1       3.076  -1.181  -2.751  1.00  0.00     0.055 A 
HETATM   27  O   UNL     1       2.491  -1.111  -5.116  1.00  0.00    -0.323 OA
HETATM   28  C   UNL     1       2.652  -0.020  -6.046  1.00  0.00     0.352 A 
ENDBRANCH  18  20
ENDBRANCH   1  18
TORSDOF 2
