REMARK  8 active torsions:
REMARK  status: ('A' for Active; 'I' for Inactive)
REMARK    1  A    between atoms: C_2  and  C_3 
REMARK    2  A    between atoms: C_6  and  N_7 
REMARK    3  A    between atoms: N_7  and  S_8 
REMARK    4  A    between atoms: S_8  and  C_9 
REMARK    5  A    between atoms: C_15  and  C_16 
REMARK       I    between atoms: C_16  and  N_17 
REMARK    6  A    between atoms: N_17  and  C_18 
REMARK    7  A    between atoms: C_18  and  C_19 
REMARK    8  A    between atoms: C_19  and  O_20 
ROOT
HETATM    1  C   UNL     1       4.205  -0.887   6.654  1.00  0.00     0.081 A 
HETATM    2  C   UNL     1       4.507  -2.250   6.677  1.00  0.00     0.043 A 
HETATM    3  C   UNL     1       3.508  -3.160   7.036  1.00  0.00     0.043 A 
HETATM    4  C   UNL     1       2.207  -2.723   7.340  1.00  0.00     0.046 A 
HETATM    5  N   UNL     1       1.233  -3.654   7.719  1.00  0.00    -0.364 N 
HETATM    6  C   UNL     1       1.503  -5.000   7.696  1.00  0.00     0.109 A 
HETATM    7  C   UNL     1       2.698  -5.552   7.419  1.00  0.00     0.098 A 
HETATM    8  C   UNL     1       3.812  -4.615   7.097  1.00  0.00     0.201 A 
HETATM    9  O   UNL     1       4.955  -5.012   6.888  1.00  0.00    -0.286 OA
HETATM   10  C   UNL     1       1.928  -1.352   7.322  1.00  0.00     0.032 A 
HETATM   11  C   UNL     1       2.922  -0.432   6.970  1.00  0.00     0.027 A 
HETATM   12  H   UNL     1       0.264  -3.360   7.781  1.00  0.00     0.165 HD
ENDROOT
BRANCH   1  13
HETATM   13  S   UNL     1       5.465   0.265   6.148  1.00  0.00     0.263 S 
HETATM   14  O   UNL     1       4.822   1.521   5.829  1.00  0.00    -0.200 OA
HETATM   15  O   UNL     1       6.296  -0.419   5.180  1.00  0.00    -0.200 OA
BRANCH  13  16
HETATM   16  N   UNL     1       6.396   0.434   7.543  1.00  0.00    -0.281 N 
HETATM   17  H   UNL     1       7.077  -0.315   7.654  1.00  0.00     0.179 HD
BRANCH  16  18
HETATM   18  C   UNL     1       5.801   0.971   8.716  1.00  0.00     0.042 A 
HETATM   19  C   UNL     1       5.526   0.138   9.798  1.00  0.00     0.030 A 
HETATM   20  C   UNL     1       4.940   0.666  10.952  1.00  0.00     0.010 A 
HETATM   21  C   UNL     1       4.635   2.033  11.042  1.00  0.00    -0.055 A 
HETATM   22  C   UNL     1       4.900   2.852   9.935  1.00  0.00     0.010 A 
HETATM   23  C   UNL     1       5.475   2.323   8.777  1.00  0.00     0.030 A 
BRANCH  21  24
HETATM   24  C   UNL     1       4.019   2.641  12.291  1.00  0.00     0.010 C 
HETATM   25  C   UNL     1       4.809   2.302  13.558  1.00  0.00     0.015 C 
HETATM   26  C   UNL     1       2.553   2.227  12.434  1.00  0.00     0.015 C 
ENDBRANCH  21  24
ENDBRANCH  16  18
ENDBRANCH  13  16
ENDBRANCH   1  13
BRANCH   7  27
HETATM   27  C   UNL     1       2.822  -7.037   7.468  1.00  0.00     0.257 C 
HETATM   28  N   UNL     1       4.086  -7.531   7.280  1.00  0.00    -0.355 N 
HETATM   29  H   UNL     1       4.828  -6.888   7.000  1.00  0.00     0.162 HD
HETATM   30  O   UNL     1       1.848  -7.759   7.667  1.00  0.00    -0.267 OA
BRANCH  28  31
HETATM   31  C   UNL     1       4.371  -8.953   7.243  1.00  0.00     0.149 C 
BRANCH  31  32
HETATM   32  C   UNL     1       4.141  -9.560   5.858  1.00  0.00     0.186 C 
BRANCH  32  33
HETATM   33  O   UNL     1       5.153  -9.083   4.963  1.00  0.00    -0.394 OA
HETATM   34  C   UNL     1       5.004  -9.640   3.664  1.00  0.00     0.201 C 
ENDBRANCH  32  33
ENDBRANCH  31  32
ENDBRANCH  28  31
ENDBRANCH   7  27
TORSDOF 8
