REMARK  3 active torsions:
REMARK  status: ('A' for Active; 'I' for Inactive)
REMARK    1  A    between atoms: C_6  and  N_7 
REMARK       I    between atoms: N_7  and  C_8 
REMARK    2  A    between atoms: C_8  and  C_9 
REMARK    3  A    between atoms: C_9  and  N_10 
ROOT
HETATM    1  N   UNL     1       8.929  -0.195  -2.109  1.00  0.00    -0.224 N 
HETATM    2  N   UNL     1       9.800   0.916  -2.062  1.00  0.00    -0.180 NA
HETATM    3  C   UNL     1       9.888   1.708  -3.093  1.00  0.00     0.153 A 
HETATM    4  C   UNL     1       9.123   1.461  -4.280  1.00  0.00     0.028 A 
HETATM    5  C   UNL     1       8.315   0.354  -4.327  1.00  0.00     0.116 A 
HETATM    6  N   UNL     1       7.703   0.319  -5.547  1.00  0.00    -0.350 N 
HETATM    7  H   UNL     1       7.055  -0.398  -5.848  1.00  0.00     0.166 HD
HETATM    8  C   UNL     1       8.104   1.407  -6.296  1.00  0.00     0.044 A 
HETATM    9  C   UNL     1       9.006   2.144  -5.517  1.00  0.00     0.005 A 
HETATM   10  C   UNL     1       7.744   1.789  -7.593  1.00  0.00     0.030 A 
HETATM   11  C   UNL     1       8.320   2.953  -8.110  1.00  0.00     0.002 A 
HETATM   12  C   UNL     1       9.221   3.705  -7.359  1.00  0.00     0.001 A 
HETATM   13  C   UNL     1       9.573   3.313  -6.062  1.00  0.00     0.014 A 
HETATM   14  C   UNL     1       8.191  -0.578  -3.246  1.00  0.00     0.291 A 
HETATM   15  O   UNL     1       7.506  -1.592  -3.320  1.00  0.00    -0.264 OA
ENDROOT
BRANCH   1  16
HETATM   16  C   UNL     1       8.989  -1.115  -0.980  1.00  0.00     0.258 C 
BRANCH  16  17
HETATM   17  C   UNL     1       7.678  -1.339  -0.198  1.00  0.00     0.244 C 
HETATM   18  N   UNL     1       6.868  -0.228   0.104  1.00  0.00    -0.321 N 
HETATM   19  C   UNL     1       7.432   1.122   0.069  1.00  0.00     0.159 C 
HETATM   20  O   UNL     1       7.469  -2.486   0.212  1.00  0.00    -0.271 OA
BRANCH  18  21
HETATM   21  C   UNL     1       5.487  -0.346   0.532  1.00  0.00     0.037 A 
HETATM   22  C   UNL     1       4.914  -1.548   0.970  1.00  0.00     0.037 A 
HETATM   23  C   UNL     1       3.570  -1.642   1.397  1.00  0.00    -0.054 A 
HETATM   24  C   UNL     1       2.763  -0.494   1.403  1.00  0.00    -0.056 A 
HETATM   25  C   UNL     1       3.061  -2.968   1.895  1.00  0.00     0.049 C 
HETATM   26  C   UNL     1       1.331  -0.530   1.857  1.00  0.00     0.049 C 
HETATM   27  C   UNL     1       3.306   0.705   0.934  1.00  0.00     0.009 A 
HETATM   28  C   UNL     1       4.639   0.775   0.509  1.00  0.00     0.030 A 
ENDBRANCH  18  21
ENDBRANCH  16  17
ENDBRANCH   1  16
TORSDOF 3
