REMARK  8 active torsions:
REMARK  status: ('A' for Active; 'I' for Inactive)
REMARK    1  A    between atoms: O_2  and  C_3 
REMARK    2  A    between atoms: C_5  and  O_6 
REMARK    3  A    between atoms: C_9  and  C_10 
REMARK    4  A    between atoms: C_10  and  N_11 
REMARK    5  A    between atoms: C_20  and  C_21 
REMARK    6  A    between atoms: C_21  and  N_22 
REMARK    7  A    between atoms: C_26  and  O_27 
REMARK    8  A    between atoms: C_26  and  C_28 
ROOT
HETATM    1  N   UNL     1       4.435  -3.234   2.845  1.00  0.00    -0.061 N 
HETATM    2  H   UNL     1       3.832  -4.036   3.061  1.00  0.00     0.280 HD
HETATM    3  C   UNL     1       3.903  -2.674   1.542  1.00  0.00     0.276 C 
HETATM    4  C   UNL     1       4.506  -1.345   1.173  1.00  0.00     0.002 A 
HETATM    5  C   UNL     1       5.859  -1.280   0.840  1.00  0.00     0.076 A 
HETATM    6  O   UNL     1       6.621  -2.415   0.848  1.00  0.00    -0.349 OA
HETATM    7  C   UNL     1       6.888  -2.844   2.194  1.00  0.00     0.203 C 
HETATM    8  C   UNL     1       5.829  -3.833   2.705  1.00  0.00     0.262 C 
HETATM    9  C   UNL     1       3.771  -0.147   1.234  1.00  0.00     0.020 A 
HETATM   10  C   UNL     1       4.380   1.096   0.965  1.00  0.00    -0.032 A 
HETATM   11  C   UNL     1       5.731   1.115   0.581  1.00  0.00     0.011 A 
HETATM   12  C   UNL     1       6.462  -0.073   0.503  1.00  0.00     0.038 A 
ENDROOT
BRANCH  10  13
HETATM   13  C   UNL     1       3.618   2.381   1.193  1.00  0.00     0.273 C 
BRANCH  13  14
HETATM   14  N   UNL     1       3.526   3.330   0.017  1.00  0.00    -0.067 N 
HETATM   15  H   UNL     1       4.489   3.546  -0.277  1.00  0.00     0.280 HD
HETATM   16  C   UNL     1       2.819   2.720  -1.171  1.00  0.00     0.238 C 
HETATM   17  C   UNL     1       2.753   3.730  -2.302  1.00  0.00     0.071 C 
HETATM   18  C   UNL     1       1.988   5.005  -1.891  1.00  0.00     0.089 C 
HETATM   19  C   UNL     1       2.747   5.604  -0.692  1.00  0.00     0.071 C 
HETATM   20  C   UNL     1       2.895   4.632   0.467  1.00  0.00     0.238 C 
BRANCH  18  21
HETATM   21  O   UNL     1       2.148   5.935  -2.963  1.00  0.00    -0.385 OA
HETATM   22  H   UNL     1       1.302   6.389  -3.144  1.00  0.00     0.211 HD
ENDBRANCH  18  21
BRANCH  18  23
HETATM   23  C   UNL     1       0.498   4.755  -1.694  1.00  0.00    -0.006 A 
HETATM   24  C   UNL     1      -0.223   5.214  -0.593  1.00  0.00     0.126 A 
HETATM   25  N   UNL     1      -1.522   4.937  -0.353  1.00  0.00    -0.272 NA
HETATM   26  C   UNL     1      -2.191   4.240  -1.292  1.00  0.00     0.116 A 
HETATM   27  C   UNL     1      -1.603   3.791  -2.457  1.00  0.00     0.020 A 
HETATM   28  C   UNL     1      -0.249   4.055  -2.657  1.00  0.00     0.013 A 
ENDBRANCH  18  23
ENDBRANCH  13  14
ENDBRANCH  10  13
BRANCH   1  29
HETATM   29  C   UNL     1       4.265  -2.264   3.989  1.00  0.00     0.274 C 
BRANCH  29  30
HETATM   30  C   UNL     1       4.266  -2.855   5.366  1.00  0.00    -0.027 A 
HETATM   31  C   UNL     1       5.066  -2.283   6.365  1.00  0.00     0.045 A 
HETATM   32  C   UNL     1       4.975  -2.708   7.693  1.00  0.00     0.071 A 
HETATM   33  C   UNL     1       4.104  -3.743   8.034  1.00  0.00     0.073 A 
HETATM   34  C   UNL     1       3.302  -4.326   7.051  1.00  0.00     0.071 A 
HETATM   35  C   UNL     1       3.383  -3.880   5.727  1.00  0.00     0.045 A 
BRANCH  32  36
HETATM   36  O   UNL     1       5.786  -2.022   8.554  1.00  0.00    -0.356 OA
HETATM   37  C   UNL     1       5.502  -2.154   9.945  1.00  0.00     0.210 C 
ENDBRANCH  32  36
BRANCH  34  38
HETATM   38  O   UNL     1       2.389  -5.325   7.243  1.00  0.00    -0.356 OA
HETATM   39  C   UNL     1       2.104  -5.691   8.591  1.00  0.00     0.210 C 
ENDBRANCH  34  38
ENDBRANCH  29  30
ENDBRANCH   1  29
TORSDOF 8
