REMARK  3 active torsions:
REMARK  status: ('A' for Active; 'I' for Inactive)
REMARK    1  A    between atoms: C_5  and  C_6 
REMARK    2  A    between atoms: C_10  and  C_11 
REMARK       I    between atoms: C_11  and  N_12 
REMARK    3  A    between atoms: N_12  and  N_13 
ROOT
HETATM    1  C   UNL     1       9.920  -1.458  -1.419  1.00  0.00     0.289 C 
HETATM    2  N   UNL     1       9.868  -2.842  -1.448  1.00  0.00    -0.241 N 
HETATM    3  O   UNL     1      10.930  -0.801  -1.661  1.00  0.00    -0.264 OA
HETATM    4  H   UNL     1       9.004  -3.334  -1.225  1.00  0.00     0.192 HD
ENDROOT
BRANCH   1   5
HETATM    5  C   UNL     1       8.681  -0.813  -1.065  1.00  0.00     0.121 A 
HETATM    6  N   UNL     1       8.603   0.547  -0.953  1.00  0.00    -0.272 N 
HETATM    7  N   UNL     1       7.397   1.002  -0.590  1.00  0.00    -0.174 NA
HETATM    8  H   UNL     1       9.357   1.210  -1.105  1.00  0.00     0.189 HD
HETATM    9  C   UNL     1       6.636  -0.099  -0.479  1.00  0.00     0.089 A 
HETATM   10  C   UNL     1       7.408  -1.261  -0.770  1.00  0.00     0.071 A 
BRANCH   9  11
HETATM   11  C   UNL     1       5.223  -0.018  -0.094  1.00  0.00    -0.006 A 
HETATM   12  C   UNL     1       4.333  -1.066  -0.365  1.00  0.00     0.014 A 
HETATM   13  C   UNL     1       2.988  -0.977   0.012  1.00  0.00     0.007 A 
HETATM   14  C   UNL     1       2.505   0.164   0.660  1.00  0.00    -0.062 A 
HETATM   15  C   UNL     1       1.072   0.256   1.093  1.00  0.00     0.048 C 
HETATM   16  C   UNL     1       3.390   1.209   0.942  1.00  0.00     0.007 A 
HETATM   17  C   UNL     1       4.733   1.120   0.562  1.00  0.00     0.014 A 
ENDBRANCH   9  11
ENDBRANCH   1   5
BRANCH   2  18
HETATM   18  N   UNL     1      10.989  -3.572  -1.735  1.00  0.00    -0.165 NA
HETATM   19  C   UNL     1      10.864  -4.860  -1.711  1.00  0.00     0.157 A 
HETATM   20  C   UNL     1       9.614  -5.691  -1.406  1.00  0.00     0.277 A 
HETATM   21  C   UNL     1      11.927  -5.822  -1.975  1.00  0.00     0.027 A 
HETATM   22  O   UNL     1       8.526  -5.225  -1.137  1.00  0.00    -0.266 OA
HETATM   23  N   UNL     1      10.009  -7.006  -1.505  1.00  0.00    -0.321 N 
HETATM   24  C   UNL     1      11.360  -7.088  -1.836  1.00  0.00     0.048 A 
HETATM   25  H   UNL     1       9.390  -7.788  -1.352  1.00  0.00     0.169 HD
HETATM   26  C   UNL     1      12.111  -8.230  -2.018  1.00  0.00     0.030 A 
HETATM   27  C   UNL     1      13.463  -8.064  -2.347  1.00  0.00     0.002 A 
HETATM   28  C   UNL     1      14.029  -6.778  -2.485  1.00  0.00     0.001 A 
HETATM   29  C   UNL     1      13.254  -5.632  -2.297  1.00  0.00     0.016 A 
ENDBRANCH   2  18
TORSDOF 3
