REMARK  8 active torsions:
REMARK  status: ('A' for Active; 'I' for Inactive)
REMARK    1  A    between atoms: O_2  and  C_3 
REMARK    2  A    between atoms: C_3  and  C_4 
REMARK    3  A    between atoms: C_6  and  C_7 
REMARK    4  A    between atoms: C_7  and  N_8 
REMARK    5  A    between atoms: C_17  and  C_18 
REMARK    6  A    between atoms: C_18  and  N_19 
REMARK    7  A    between atoms: C_23  and  O_24 
REMARK    8  A    between atoms: C_23  and  C_25 
ROOT
HETATM    1  N   UNL     1       9.021   1.050   1.358  1.00  0.00    -0.059 N 
HETATM    2  H   UNL     1       9.754   1.456   0.757  1.00  0.00     0.280 HD
HETATM    3  C   UNL     1       9.299   1.621   2.726  1.00  0.00     0.276 C 
HETATM    4  C   UNL     1       8.202   1.403   3.729  1.00  0.00     0.002 A 
HETATM    5  C   UNL     1       7.845   0.109   4.108  1.00  0.00     0.076 A 
HETATM    6  O   UNL     1       8.513  -0.977   3.615  1.00  0.00    -0.349 OA
HETATM    7  C   UNL     1       8.231  -1.209   2.228  1.00  0.00     0.203 C 
HETATM    8  C   UNL     1       9.205  -0.455   1.310  1.00  0.00     0.262 C 
HETATM    9  C   UNL     1       7.528   2.489   4.319  1.00  0.00     0.020 A 
HETATM   10  C   UNL     1       6.519   2.287   5.280  1.00  0.00    -0.032 A 
HETATM   11  C   UNL     1       6.181   0.973   5.635  1.00  0.00     0.011 A 
HETATM   12  C   UNL     1       6.856  -0.110   5.064  1.00  0.00     0.038 A 
ENDROOT
BRANCH  10  13
HETATM   13  C   UNL     1       5.822   3.472   5.909  1.00  0.00     0.273 C 
BRANCH  13  14
HETATM   14  N   UNL     1       5.974   3.599   7.416  1.00  0.00    -0.067 N 
HETATM   15  H   UNL     1       5.483   2.793   7.828  1.00  0.00     0.280 HD
HETATM   16  C   UNL     1       7.409   3.531   7.885  1.00  0.00     0.238 C 
HETATM   17  C   UNL     1       7.451   3.624   9.400  1.00  0.00     0.071 C 
HETATM   18  C   UNL     1       6.858   4.953   9.908  1.00  0.00     0.089 C 
HETATM   19  C   UNL     1       5.400   5.002   9.410  1.00  0.00     0.071 C 
HETATM   20  C   UNL     1       5.272   4.851   7.902  1.00  0.00     0.238 C 
BRANCH  18  21
HETATM   21  O   UNL     1       6.787   4.844  11.331  1.00  0.00    -0.385 OA
HETATM   22  H   UNL     1       7.096   5.671  11.748  1.00  0.00     0.211 HD
ENDBRANCH  18  21
BRANCH  18  23
HETATM   23  C   UNL     1       7.736   6.150   9.565  1.00  0.00    -0.006 A 
HETATM   24  C   UNL     1       7.244   7.338   9.030  1.00  0.00     0.126 A 
HETATM   25  N   UNL     1       8.008   8.384   8.646  1.00  0.00    -0.272 NA
HETATM   26  C   UNL     1       9.334   8.302   8.877  1.00  0.00     0.116 A 
HETATM   27  C   UNL     1       9.929   7.202   9.461  1.00  0.00     0.020 A 
HETATM   28  C   UNL     1       9.121   6.122   9.808  1.00  0.00     0.013 A 
ENDBRANCH  18  23
ENDBRANCH  13  14
ENDBRANCH  10  13
BRANCH   1  29
HETATM   29  C   UNL     1       7.739   1.523   0.704  1.00  0.00     0.299 C 
BRANCH  29  30
HETATM   30  C   UNL     1       7.629   2.995   0.563  1.00  0.00     0.079 A 
HETATM   31  O   UNL     1       8.800   3.688   0.476  1.00  0.00    -0.316 OA
HETATM   32  C   UNL     1       8.479   5.004   0.289  1.00  0.00     0.077 A 
HETATM   33  C   UNL     1       7.108   5.154   0.303  1.00  0.00     0.037 A 
HETATM   34  C   UNL     1       6.560   3.860   0.478  1.00  0.00     0.037 A 
BRANCH  32  35
HETATM   35  C   UNL     1       9.600   5.965   0.101  1.00  0.00     0.231 C 
BRANCH  35  36
HETATM   36  O   UNL     1      10.490   5.387  -0.849  1.00  0.00    -0.390 OA
HETATM   37  C   UNL     1      11.471   6.325  -1.278  1.00  0.00     0.201 C 
ENDBRANCH  35  36
ENDBRANCH  32  35
ENDBRANCH  29  30
ENDBRANCH   1  29
TORSDOF 8
