REMARK  9 active torsions:
REMARK  status: ('A' for Active; 'I' for Inactive)
REMARK    1  A    between atoms: C_2  and  N_3 
REMARK    2  A    between atoms: C_6  and  C_7 
REMARK    3  A    between atoms: C_7  and  O_8 
REMARK    4  A    between atoms: O_8  and  C_9 
REMARK    5  A    between atoms: C_12  and  C_13 
REMARK    6  A    between atoms: C_14  and  C_15 
REMARK       I    between atoms: C_15  and  N_16 
REMARK    7  A    between atoms: N_16  and  C_17 
REMARK    8  A    between atoms: C_18  and  C_19 
REMARK       I    between atoms: C_19  and  N_20 
REMARK    9  A    between atoms: N_20  and  C_21 
ROOT
HETATM    1  C   UNL     1       4.013  -3.664  -5.878  1.00  0.00     0.245 C 
HETATM    2  N   UNL     1       3.644  -4.981  -5.655  1.00  0.00    -0.323 N 
HETATM    3  O   UNL     1       4.239  -3.149  -6.963  1.00  0.00    -0.268 OA
HETATM    4  H   UNL     1       3.141  -5.131  -4.788  1.00  0.00     0.169 HD
ENDROOT
BRANCH   1   5
HETATM    5  C   UNL     1       3.976  -2.869  -4.625  1.00  0.00     0.075 C 
HETATM    6  C   UNL     1       3.576  -1.591  -4.698  1.00  0.00     0.020 C 
BRANCH   6   7
HETATM    7  C   UNL     1       3.476  -0.674  -3.604  1.00  0.00     0.005 A 
HETATM    8  C   UNL     1       4.022   0.652  -3.567  1.00  0.00     0.073 A 
HETATM    9  C   UNL     1       3.614   1.207  -2.353  1.00  0.00     0.025 A 
HETATM   10  N   UNL     1       2.825   0.282  -1.699  1.00  0.00    -0.353 N 
HETATM   11  C   UNL     1       3.920   2.570  -1.816  1.00  0.00     0.069 C 
HETATM   12  C   UNL     1       2.762  -0.889  -2.435  1.00  0.00     0.019 A 
HETATM   13  C   UNL     1       1.970  -2.068  -1.973  1.00  0.00     0.069 C 
BRANCH   8  14
HETATM   14  C   UNL     1       4.844   1.356  -4.565  1.00  0.00     0.296 C 
HETATM   15  O   UNL     1       5.228   2.514  -4.432  1.00  0.00    -0.259 OA
BRANCH  14  16
HETATM   16  O   UNL     1       5.123   0.593  -5.659  1.00  0.00    -0.318 OA
BRANCH  16  17
HETATM   17  C   UNL     1       5.868   1.222  -6.709  1.00  0.00     0.174 C 
HETATM   18  C   UNL     1       4.933   1.992  -7.623  1.00  0.00     0.034 C 
ENDBRANCH  16  17
ENDBRANCH  14  16
ENDBRANCH   8  14
BRANCH  10  19
HETATM   19  C   UNL     1       2.101   0.527  -0.455  1.00  0.00     0.124 C 
HETATM   20  C   UNL     1       2.952   0.279   0.778  1.00  0.00     0.027 C 
ENDBRANCH  10  19
ENDBRANCH   6   7
ENDBRANCH   1   5
BRANCH   2  21
HETATM   21  C   UNL     1       3.314  -5.861  -6.720  1.00  0.00     0.050 A 
HETATM   22  C   UNL     1       4.060  -6.043  -7.901  1.00  0.00     0.058 A 
HETATM   23  C   UNL     1       3.524  -6.842  -8.931  1.00  0.00     0.019 A 
HETATM   24  C   UNL     1       2.297  -7.487  -8.780  1.00  0.00     0.001 A 
HETATM   25  C   UNL     1       1.596  -7.361  -7.587  1.00  0.00     0.002 A 
HETATM   26  C   UNL     1       2.106  -6.564  -6.561  1.00  0.00     0.030 A 
BRANCH  22  27
HETATM   27  C   UNL     1       5.462  -5.579  -8.131  1.00  0.00     0.254 C 
HETATM   28  N   UNL     1       6.274  -5.502  -7.014  1.00  0.00    -0.352 N 
HETATM   29  H   UNL     1       5.871  -5.689  -6.106  1.00  0.00     0.163 HD
HETATM   30  O   UNL     1       5.874  -5.403  -9.275  1.00  0.00    -0.268 OA
BRANCH  28  31
HETATM   31  C   UNL     1       7.648  -5.129  -7.101  1.00  0.00     0.084 A 
HETATM   32  C   UNL     1       8.044  -3.679  -7.113  1.00  0.00     0.027 A 
HETATM   33  C   UNL     1       8.364  -4.532  -5.921  1.00  0.00     0.027 A 
ENDBRANCH  28  31
ENDBRANCH  22  27
ENDBRANCH   2  21
TORSDOF 9
