REMARK  4 active torsions:
REMARK  status: ('A' for Active; 'I' for Inactive)
REMARK    1  A    between atoms: C_5  and  N_6 
REMARK    2  A    between atoms: N_9  and  C_11 
REMARK    3  A    between atoms: C_11  and  C_12 
REMARK    4  A    between atoms: C_13  and  O_14 
ROOT
HETATM    1  N   UNL     1       6.994   0.040  -0.587  1.00  0.00    -0.363 N 
HETATM    2  C   UNL     1       7.661  -1.221  -0.234  1.00  0.00     0.152 C 
HETATM    3  C   UNL     1       8.118  -1.286   1.237  1.00  0.00     0.255 C 
HETATM    4  N   UNL     1       9.327  -0.379   1.447  1.00  0.00    -0.066 N 
HETATM    5  H   UNL     1       9.849  -0.369   0.553  1.00  0.00     0.280 HD
HETATM    6  C   UNL     1       9.022   1.045   1.800  1.00  0.00     0.237 C 
HETATM    7  C   UNL     1       7.868   1.687   1.039  1.00  0.00     0.047 C 
HETATM    8  C   UNL     1       7.739   1.291  -0.429  1.00  0.00     0.126 C 
ENDROOT
BRANCH   4   9
HETATM    9  C   UNL     1      10.342  -0.979   2.400  1.00  0.00     0.276 C 
BRANCH   9  10
HETATM   10  C   UNL     1      11.051  -2.195   1.859  1.00  0.00     0.002 A 
HETATM   11  C   UNL     1      11.539  -2.245   0.545  1.00  0.00     0.073 A 
HETATM   12  C   UNL     1      12.216  -3.364   0.063  1.00  0.00     0.038 A 
HETATM   13  C   UNL     1      12.427  -4.456   0.905  1.00  0.00     0.022 A 
HETATM   14  C   UNL     1      11.964  -4.416   2.218  1.00  0.00     0.011 A 
HETATM   15 BR   UNL     1      12.259  -5.891   3.362  1.00  0.00    -0.051 Br
HETATM   16  C   UNL     1      11.285  -3.295   2.699  1.00  0.00     0.030 A 
BRANCH  11  17
HETATM   17  O   UNL     1      11.316  -1.169  -0.275  1.00  0.00    -0.360 OA
HETATM   18  H   UNL     1      11.840  -1.307  -1.092  1.00  0.00     0.217 HD
ENDBRANCH  11  17
ENDBRANCH   9  10
ENDBRANCH   4   9
BRANCH   1  19
HETATM   19  C   UNL     1       5.621   0.058  -0.288  1.00  0.00     0.147 A 
HETATM   20  N   UNL     1       5.104  -0.889   0.526  1.00  0.00    -0.132 NA
HETATM   21  N   UNL     1       3.764  -0.928   0.831  1.00  0.00    -0.153 NA
HETATM   22  C   UNL     1       2.928  -0.015   0.302  1.00  0.00     0.053 A 
HETATM   23  C   UNL     1       1.474  -0.116   0.636  1.00  0.00     0.072 C 
HETATM   24  C   UNL     1       3.408   0.985  -0.524  1.00  0.00     0.032 A 
HETATM   25  C   UNL     1       4.771   1.018  -0.821  1.00  0.00     0.054 A 
ENDBRANCH   1  19
TORSDOF 4
