REMARK  3 active torsions:
REMARK  status: ('A' for Active; 'I' for Inactive)
REMARK    1  A    between atoms: C_6  and  C_7 
REMARK       I    between atoms: C_7  and  N_8 
REMARK    2  A    between atoms: N_8  and  C_9 
REMARK    3  A    between atoms: C_13  and  C_14 
ROOT
HETATM    1  C   UNL     1       6.269   2.601  -0.907  1.00  0.00     0.036 A 
HETATM    2  C   UNL     1       4.951   2.693  -1.352  1.00  0.00     0.054 A 
HETATM    3  C   UNL     1       4.306   3.940  -1.455  1.00  0.00     0.050 A 
HETATM    4 CL   UNL     1       2.642   3.892  -1.940  1.00  0.00    -0.083 Cl
HETATM    5  C   UNL     1       4.982   5.124  -1.121  1.00  0.00     0.035 A 
HETATM    6  C   UNL     1       6.318   5.018  -0.692  1.00  0.00     0.019 A 
HETATM    7  C   UNL     1       6.952   3.776  -0.587  1.00  0.00     0.030 A 
ENDROOT
BRANCH   1   8
HETATM    8  N   UNL     1       6.960   1.387  -0.711  1.00  0.00    -0.323 N 
HETATM    9  C   UNL     1       6.500   0.104  -0.922  1.00  0.00     0.261 C 
HETATM   10  O   UNL     1       5.423  -0.193  -1.434  1.00  0.00    -0.267 OA
HETATM   11  H   UNL     1       7.899   1.472  -0.318  1.00  0.00     0.169 HD
BRANCH   9  12
HETATM   12  C   UNL     1       7.427  -0.975  -0.449  1.00  0.00     0.100 A 
HETATM   13  C   UNL     1       8.758  -0.715   0.177  1.00  0.00     0.261 A 
HETATM   14  N   UNL     1       9.464  -1.814   0.611  1.00  0.00    -0.327 N 
HETATM   15  O   UNL     1       9.205   0.423   0.305  1.00  0.00    -0.267 OA
HETATM   16  C   UNL     1       9.027  -3.113   0.496  1.00  0.00     0.008 A 
HETATM   17  H   UNL     1      10.361  -1.618   1.040  1.00  0.00     0.169 HD
HETATM   18  C   UNL     1       9.920  -4.186   1.039  1.00  0.00     0.068 C 
HETATM   19  C   UNL     1       7.841  -3.353  -0.081  1.00  0.00     0.026 A 
HETATM   20  C   UNL     1       7.028  -2.256  -0.560  1.00  0.00     0.025 A 
ENDBRANCH   9  12
ENDBRANCH   1   8
BRANCH   5  21
HETATM   21  C   UNL     1       4.372   6.451  -1.165  1.00  0.00     0.183 A 
HETATM   22  N   UNL     1       4.772   7.470  -0.382  1.00  0.00    -0.152 NA
HETATM   23  N   UNL     1       3.938   8.453  -0.745  1.00  0.00    -0.263 N 
HETATM   24  H   UNL     1       4.002   9.355  -0.287  1.00  0.00     0.190 HD
HETATM   25  C   UNL     1       3.087   8.048  -1.728  1.00  0.00     0.118 A 
HETATM   26  C   UNL     1       2.044   8.914  -2.315  1.00  0.00     0.093 C 
HETATM   27  N   UNL     1       3.358   6.799  -2.028  1.00  0.00    -0.212 NA
ENDBRANCH   5  21
TORSDOF 3
