REMARK  7 active torsions:
REMARK  status: ('A' for Active; 'I' for Inactive)
REMARK    1  A    between atoms: N_8  and  C_9 
REMARK    2  A    between atoms: C_9  and  C_10 
REMARK    3  A    between atoms: C_13  and  C_14 
REMARK       I    between atoms: C_14  and  N_15 
REMARK    4  A    between atoms: N_15  and  N_16 
REMARK    5  A    between atoms: C_17  and  C_18 
REMARK    6  A    between atoms: C_19  and  O_20 
REMARK    7  A    between atoms: C_22  and  O_23 
ROOT
HETATM    1  C   UNL     1      -2.028  -5.018   0.536  1.00  0.00    -0.040 A 
HETATM    2  C   UNL     1      -0.760  -5.421   0.979  1.00  0.00     0.010 A 
HETATM    3  C   UNL     1      -0.434  -6.777   1.065  1.00  0.00     0.017 A 
HETATM    4  C   UNL     1      -1.369  -7.756   0.710  1.00  0.00     0.033 A 
HETATM    5  C   UNL     1      -2.629  -7.360   0.245  1.00  0.00     0.017 A 
HETATM    6  C   UNL     1      -2.956  -6.002   0.165  1.00  0.00     0.010 A 
ENDROOT
BRANCH   4   7
HETATM    7  C   UNL     1      -0.958  -9.188   0.798  1.00  0.00     0.271 C 
HETATM    8  N   UNL     1      -1.984 -10.113   0.940  1.00  0.00    -0.243 N 
HETATM    9  H   UNL     1      -2.942  -9.822   1.082  1.00  0.00     0.192 HD
HETATM   10  O   UNL     1       0.235  -9.479   0.761  1.00  0.00    -0.266 OA
BRANCH   8  11
HETATM   11  N   UNL     1      -1.674 -11.438   0.982  1.00  0.00    -0.183 NA
HETATM   12  C   UNL     1      -2.669 -12.257   1.102  1.00  0.00     0.153 C 
BRANCH  12  13
HETATM   13  C   UNL     1      -2.438 -13.715   1.143  1.00  0.00     0.016 A 
HETATM   14  C   UNL     1      -1.149 -14.266   1.099  1.00  0.00     0.080 A 
HETATM   15  C   UNL     1      -0.972 -15.647   1.132  1.00  0.00     0.074 A 
HETATM   16  C   UNL     1      -2.088 -16.475   1.204  1.00  0.00     0.068 A 
HETATM   17  C   UNL     1      -3.373 -15.942   1.248  1.00  0.00     0.037 A 
HETATM   18  C   UNL     1      -3.553 -14.557   1.218  1.00  0.00     0.018 A 
BRANCH  14  19
HETATM   19  O   UNL     1      -0.009 -13.512   1.024  1.00  0.00    -0.360 OA
HETATM   20  H   UNL     1      -0.261 -12.560   0.985  1.00  0.00     0.217 HD
ENDBRANCH  14  19
BRANCH  16  21
HETATM   21  O   UNL     1      -1.964 -17.832   1.234  1.00  0.00    -0.361 OA
HETATM   22  H   UNL     1      -1.019 -18.056   1.193  1.00  0.00     0.217 HD
ENDBRANCH  16  21
ENDBRANCH  12  13
ENDBRANCH   8  11
ENDBRANCH   4   7
BRANCH   1  23
HETATM   23  C   UNL     1      -2.364  -3.548   0.421  1.00  0.00     0.171 C 
BRANCH  23  24
HETATM   24  N   UNL     1      -1.942  -2.979  -0.837  1.00  0.00    -0.309 N 
HETATM   25  C   UNL     1      -2.694  -2.924  -2.014  1.00  0.00     0.050 A 
HETATM   26  C   UNL     1      -1.897  -2.339  -2.972  1.00  0.00     0.017 A 
HETATM   27  C   UNL     1      -3.988  -3.319  -2.315  1.00  0.00     0.031 A 
HETATM   28  C   UNL     1      -0.670  -2.029  -2.416  1.00  0.00     0.045 A 
HETATM   29  C   UNL     1      -2.268  -2.101  -4.262  1.00  0.00    -0.023 A 
HETATM   30  C   UNL     1       0.306  -1.423  -3.204  1.00  0.00     0.018 A 
HETATM   31  C   UNL     1      -0.651  -2.427  -1.022  1.00  0.00     0.259 A 
HETATM   32  C   UNL     1      -0.034  -1.160  -4.546  1.00  0.00     0.002 A 
HETATM   33  C   UNL     1      -1.299  -1.489  -5.078  1.00  0.00     0.012 A 
HETATM   34  O   UNL     1       0.219  -2.330  -0.165  1.00  0.00    -0.267 OA
HETATM   35  C   UNL     1      -3.574  -2.496  -4.608  1.00  0.00     0.012 A 
HETATM   36  C   UNL     1      -4.413  -3.094  -3.642  1.00  0.00     0.003 A 
ENDBRANCH  23  24
ENDBRANCH   1  23
TORSDOF 7
