REMARK  5 active torsions:
REMARK  status: ('A' for Active; 'I' for Inactive)
REMARK    1  A    between atoms: C_3  and  N_4 
REMARK       I    between atoms: N_4  and  C_5 
REMARK       I    between atoms: C_5  and  N_6 
REMARK    2  A    between atoms: N_6  and  C_7 
REMARK    3  A    between atoms: C_7  and  C_8 
REMARK    4  A    between atoms: C_8  and  O_9 
REMARK    5  A    between atoms: O_9  and  C_10 
ROOT
HETATM    1  N   UNL     1       6.103   5.836  -1.217  1.00  0.00    -0.307 N 
HETATM    2  C   UNL     1       4.848   5.454  -0.849  1.00  0.00     0.320 C 
HETATM    3  N   UNL     1       4.767   4.226  -0.259  1.00  0.00    -0.340 N 
HETATM    4  O   UNL     1       3.826   6.122  -0.948  1.00  0.00    -0.247 OA
HETATM    5  H   UNL     1       6.773   5.575  -0.504  1.00  0.00     0.170 HD
HETATM    6  H   UNL     1       3.804   4.050   0.002  1.00  0.00     0.164 HD
ENDROOT
BRANCH   3   7
HETATM    7  C   UNL     1       5.552   3.024  -0.547  1.00  0.00     0.156 C 
BRANCH   7   8
HETATM    8  C   UNL     1       7.083   3.092  -0.358  1.00  0.00     0.142 C 
HETATM    9  C   UNL     1       7.655   1.673  -0.366  1.00  0.00     0.042 C 
BRANCH   8  10
HETATM   10  O   UNL     1       7.342   3.717   0.904  1.00  0.00    -0.343 OA
BRANCH  10  11
HETATM   11  C   UNL     1       8.588   4.196   1.202  1.00  0.00     0.091 A 
HETATM   12  C   UNL     1       8.819   4.546   2.544  1.00  0.00     0.067 A 
HETATM   13 CL   UNL     1       7.591   4.352   3.747  1.00  0.00    -0.081 Cl
HETATM   14  C   UNL     1      10.056   5.054   2.950  1.00  0.00     0.026 A 
HETATM   15  C   UNL     1      11.075   5.227   2.017  1.00  0.00     0.002 A 
HETATM   16  C   UNL     1      10.854   4.894   0.683  1.00  0.00     0.003 A 
HETATM   17  C   UNL     1       9.617   4.382   0.275  1.00  0.00     0.038 A 
ENDBRANCH  10  11
ENDBRANCH   8  10
ENDBRANCH   7   8
ENDBRANCH   3   7
BRANCH   1  18
HETATM   18  C   UNL     1       6.452   6.962  -1.998  1.00  0.00     0.059 A 
HETATM   19  C   UNL     1       5.719   7.480  -3.077  1.00  0.00    -0.032 A 
HETATM   20  C   UNL     1       4.439   6.897  -3.604  1.00  0.00     0.050 C 
HETATM   21  C   UNL     1       6.215   8.625  -3.727  1.00  0.00     0.028 A 
HETATM   22  C   UNL     1       7.429   9.166  -3.335  1.00  0.00     0.117 A 
HETATM   23  N   UNL     1       8.185   8.656  -2.347  1.00  0.00    -0.271 NA
HETATM   24  C   UNL     1       7.676   7.577  -1.707  1.00  0.00     0.146 A 
ENDBRANCH   1  18
TORSDOF 5
