REMARK  3 active torsions:
REMARK  status: ('A' for Active; 'I' for Inactive)
REMARK    1  A    between atoms: C_9  and  C_10 
REMARK    2  A    between atoms: C_16  and  C_17 
REMARK       I    between atoms: C_17  and  N_18 
REMARK    3  A    between atoms: N_18  and  C_19 
ROOT
HETATM    1  C   UNL     1       0.855   0.169  -0.947  1.00  0.00     0.070 C 
HETATM    2  C   UNL     1       2.268   0.131  -0.419  1.00  0.00     0.037 C 
HETATM    3  N   UNL     1       2.844   1.374  -0.169  1.00  0.00    -0.192 N 
HETATM    4  C   UNL     1       4.171   1.543  -0.002  1.00  0.00     0.725 A 
HETATM    5  N   UNL     1       4.974   0.445   0.134  1.00  0.00    -0.084 N 
HETATM    6  N   UNL     1       6.276   0.793   0.202  1.00  0.00    -0.149 NA
HETATM    7  C   UNL     1       6.176   2.126   0.143  1.00  0.00     0.275 A 
HETATM    8  N   UNL     1       4.904   2.626   0.025  1.00  0.00    -0.054 NA
HETATM    9  C   UNL     1       4.478  -0.936   0.160  1.00  0.00     0.202 C 
HETATM   10  C   UNL     1       3.009  -0.996  -0.259  1.00  0.00     0.062 C 
HETATM   11  H   UNL     1       2.294   2.199  -0.399  1.00  0.00     0.184 HD
ENDROOT
BRANCH  10  12
HETATM   12  C   UNL     1       2.543  -2.365  -0.610  1.00  0.00     0.256 C 
HETATM   13  N   UNL     1       1.334  -2.713  -0.053  1.00  0.00    -0.322 N 
HETATM   14  H   UNL     1       0.909  -2.059   0.593  1.00  0.00     0.169 HD
HETATM   15  O   UNL     1       3.259  -3.072  -1.307  1.00  0.00    -0.267 OA
BRANCH  13  16
HETATM   16  C   UNL     1       0.588  -3.879  -0.339  1.00  0.00     0.052 A 
HETATM   17  C   UNL     1       0.993  -4.901  -1.194  1.00  0.00     0.145 A 
HETATM   18  N   UNL     1       0.239  -5.993  -1.488  1.00  0.00    -0.271 NA
HETATM   19  C   UNL     1      -0.974  -6.072  -0.906  1.00  0.00     0.116 A 
HETATM   20  C   UNL     1      -1.468  -5.114  -0.039  1.00  0.00     0.021 A 
HETATM   21  C   UNL     1      -0.672  -4.006   0.249  1.00  0.00     0.032 A 
ENDBRANCH  13  16
ENDBRANCH  10  12
BRANCH   9  22
HETATM   22  C   UNL     1       4.701  -1.556   1.536  1.00  0.00    -0.025 A 
HETATM   23  C   UNL     1       4.308  -0.913   2.719  1.00  0.00     0.029 A 
HETATM   24  C   UNL     1       4.544  -1.541   3.932  1.00  0.00     0.117 A 
HETATM   25  N   UNL     1       5.116  -2.756   4.049  1.00  0.00    -0.273 NA
HETATM   26  C   UNL     1       5.483  -3.367   2.903  1.00  0.00     0.117 A 
HETATM   27  C   UNL     1       5.296  -2.820   1.643  1.00  0.00     0.029 A 
ENDBRANCH   9  22
TORSDOF 3
