REMARK  5 active torsions:
REMARK  status: ('A' for Active; 'I' for Inactive)
REMARK    1  A    between atoms: C_3  and  N_4 
REMARK       I    between atoms: N_4  and  C_5 
REMARK    2  A    between atoms: C_5  and  C_6 
REMARK    3  A    between atoms: C_6  and  C_7 
REMARK    4  A    between atoms: C_9  and  N_10 
REMARK       I    between atoms: N_10  and  C_11 
REMARK       I    between atoms: C_11  and  N_12 
REMARK    5  A    between atoms: N_12  and  C_13 
ROOT
HETATM    1  C   UNL     1       5.711   2.574  -0.159  1.00  0.00     0.052 A 
HETATM    2  N   UNL     1       6.002   1.609   0.800  1.00  0.00    -0.228 NA
HETATM    3  C   UNL     1       6.639   0.605   0.241  1.00  0.00     0.174 A 
HETATM    4  S   UNL     1       6.981   0.770  -1.418  1.00  0.00    -0.062 SA
HETATM    5  C   UNL     1       6.172   2.281  -1.428  1.00  0.00     0.081 A 
ENDROOT
BRANCH   1   6
HETATM    6  C   UNL     1       4.896   3.756   0.258  1.00  0.00     0.163 C 
BRANCH   6   7
HETATM    7  C   UNL     1       3.403   3.443   0.320  1.00  0.00     0.227 C 
HETATM    8  N   UNL     1       3.117   2.162   0.751  1.00  0.00    -0.326 N 
HETATM    9  H   UNL     1       3.905   1.692   1.195  1.00  0.00     0.169 HD
HETATM   10  O   UNL     1       2.585   4.330   0.091  1.00  0.00    -0.273 OA
BRANCH   8  11
HETATM   11  C   UNL     1       1.898   1.451   0.783  1.00  0.00     0.042 A 
HETATM   12  C   UNL     1       0.753   1.698   0.003  1.00  0.00    -0.035 A 
HETATM   13  C   UNL     1       0.643   2.757  -1.057  1.00  0.00     0.050 C 
HETATM   14  C   UNL     1      -0.382   0.875   0.180  1.00  0.00     0.011 A 
HETATM   15  C   UNL     1      -0.373  -0.201   1.066  1.00  0.00     0.024 A 
HETATM   16  C   UNL     1       0.776  -0.469   1.792  1.00  0.00     0.036 A 
HETATM   17  C   UNL     1       1.900   0.343   1.652  1.00  0.00     0.053 A 
HETATM   18 CL   UNL     1       0.817  -1.809   2.871  1.00  0.00    -0.084 Cl
ENDBRANCH   8  11
ENDBRANCH   6   7
ENDBRANCH   1   6
BRANCH   3  19
HETATM   19  N   UNL     1       7.046  -0.473   0.981  1.00  0.00    -0.287 N 
HETATM   20  C   UNL     1       7.347  -1.714   0.503  1.00  0.00     0.326 C 
HETATM   21  N   UNL     1       7.719  -2.641   1.445  1.00  0.00    -0.309 N 
HETATM   22  O   UNL     1       7.214  -2.099  -0.656  1.00  0.00    -0.247 OA
HETATM   23  H   UNL     1       7.629  -3.586   1.090  1.00  0.00     0.170 HD
HETATM   24  H   UNL     1       6.791  -0.414   1.954  1.00  0.00     0.172 HD
BRANCH  21  25
HETATM   25  C   UNL     1       8.230  -2.494   2.746  1.00  0.00     0.036 A 
HETATM   26  C   UNL     1       8.155  -3.608   3.593  1.00  0.00     0.032 A 
HETATM   27  C   UNL     1       8.650  -3.540   4.897  1.00  0.00     0.044 A 
HETATM   28  C   UNL     1       9.246  -2.368   5.343  1.00  0.00     0.116 A 
HETATM   29  F   UNL     1       9.729  -2.305   6.590  1.00  0.00    -0.206 F 
HETATM   30  C   UNL     1       9.360  -1.266   4.506  1.00  0.00     0.044 A 
HETATM   31  C   UNL     1       8.855  -1.328   3.204  1.00  0.00     0.032 A 
ENDBRANCH  21  25
ENDBRANCH   3  19
TORSDOF 5
