REMARK  6 active torsions:
REMARK  status: ('A' for Active; 'I' for Inactive)
REMARK    1  A    between atoms: C_3  and  C_4 
REMARK    2  A    between atoms: C_4  and  N_5 
REMARK       I    between atoms: N_5  and  C_6 
REMARK    3  A    between atoms: C_6  and  C_7 
REMARK    4  A    between atoms: C_7  and  N_8 
REMARK    5  A    between atoms: C_12  and  N_13 
REMARK       I    between atoms: N_13  and  C_14 
REMARK       I    between atoms: C_14  and  N_15 
REMARK    6  A    between atoms: N_15  and  C_16 
ROOT
HETATM    1  N   UNL     1       1.312   4.591   0.298  1.00  0.00    -0.063 N 
HETATM    2  H   UNL     1       0.508   4.818  -0.300  1.00  0.00     0.280 HD
HETATM    3  C   UNL     1       1.645   3.144   0.009  1.00  0.00     0.237 C 
HETATM    4  C   UNL     1       0.567   2.210   0.527  1.00  0.00     0.053 C 
HETATM    5  C   UNL     1       0.154   2.459   1.978  1.00  0.00     0.089 C 
HETATM    6  C   UNL     1      -0.162   3.934   2.219  1.00  0.00     0.053 C 
HETATM    7  C   UNL     1       0.884   4.908   1.706  1.00  0.00     0.237 C 
ENDROOT
BRANCH   1   8
HETATM    8  C   UNL     1       2.434   5.545  -0.170  1.00  0.00     0.337 C 
BRANCH   8   9
HETATM    9  C   UNL     1       3.868   5.004  -0.102  1.00  0.00     0.243 C 
HETATM   10  N   UNL     1       4.440   4.949   1.147  1.00  0.00    -0.355 N 
HETATM   11  H   UNL     1       3.832   4.766   1.940  1.00  0.00     0.162 HD
HETATM   12  O   UNL     1       4.436   4.614  -1.120  1.00  0.00    -0.272 OA
BRANCH  10  13
HETATM   13  C   UNL     1       5.759   4.367   1.307  1.00  0.00     0.169 C 
BRANCH  13  14
HETATM   14  C   UNL     1       6.310   4.577   2.694  1.00  0.00     0.006 A 
HETATM   15  C   UNL     1       7.646   4.517   3.080  1.00  0.00    -0.047 A 
HETATM   16  C   UNL     1       8.798   4.254   2.162  1.00  0.00     0.049 C 
HETATM   17  C   UNL     1       7.796   4.724   4.491  1.00  0.00     0.015 A 
HETATM   18  C   UNL     1       6.597   4.931   5.128  1.00  0.00     0.051 A 
HETATM   19  S   UNL     1       5.287   4.875   4.045  1.00  0.00    -0.104 SA
ENDBRANCH  13  14
ENDBRANCH  10  13
ENDBRANCH   8   9
ENDBRANCH   1   8
BRANCH   5  20
HETATM   20  N   UNL     1       1.031   1.850   2.980  1.00  0.00    -0.338 N 
HETATM   21  C   UNL     1       2.320   2.177   3.241  1.00  0.00     0.321 C 
HETATM   22  N   UNL     1       2.971   1.512   4.224  1.00  0.00    -0.309 N 
HETATM   23  O   UNL     1       2.894   3.092   2.656  1.00  0.00    -0.247 OA
HETATM   24  H   UNL     1       3.836   1.977   4.482  1.00  0.00     0.170 HD
HETATM   25  H   UNL     1       0.566   1.416   3.770  1.00  0.00     0.164 HD
BRANCH  22  26
HETATM   26  C   UNL     1       2.728   0.292   4.882  1.00  0.00     0.036 A 
HETATM   27  C   UNL     1       1.833  -0.683   4.438  1.00  0.00     0.029 A 
HETATM   28  C   UNL     1       1.675  -1.875   5.154  1.00  0.00     0.002 A 
HETATM   29  C   UNL     1       2.423  -2.108   6.306  1.00  0.00     0.000 A 
HETATM   30  C   UNL     1       3.340  -1.156   6.739  1.00  0.00     0.002 A 
HETATM   31  C   UNL     1       3.497   0.034   6.026  1.00  0.00     0.029 A 
ENDBRANCH  22  26
ENDBRANCH   5  20
TORSDOF 6
