REMARK  8 active torsions:
REMARK  status: ('A' for Active; 'I' for Inactive)
REMARK    1  A    between atoms: C_2  and  C_3 
REMARK    2  A    between atoms: C_3  and  N_4 
REMARK    3  A    between atoms: C_7  and  C_8 
REMARK       I    between atoms: C_8  and  N_9 
REMARK    4  A    between atoms: N_9  and  N_10 
REMARK       I    between atoms: N_10  and  C_11 
REMARK    5  A    between atoms: C_11  and  C_12 
REMARK    6  A    between atoms: C_12  and  O_13 
REMARK    7  A    between atoms: O_13  and  C_14 
REMARK    8  A    between atoms: C_23  and  C_24 
ROOT
HETATM    1  C   UNL     1       2.069   6.156  -0.098  1.00  0.00     0.273 C 
HETATM    2  N   UNL     1       2.324   6.869   1.062  1.00  0.00    -0.263 N 
HETATM    3  O   UNL     1       1.677   6.707  -1.124  1.00  0.00    -0.266 OA
HETATM    4  H   UNL     1       2.913   6.471   1.792  1.00  0.00     0.190 HD
ENDROOT
BRANCH   2   5
HETATM    5  N   UNL     1       2.288   8.272   1.009  1.00  0.00    -0.265 N 
HETATM    6  C   UNL     1       3.351   8.959   1.564  1.00  0.00     0.260 C 
HETATM    7  O   UNL     1       4.243   8.391   2.196  1.00  0.00    -0.269 OA
HETATM    8  H   UNL     1       1.691   8.683   0.292  1.00  0.00     0.190 HD
BRANCH   6   9
HETATM    9  C   UNL     1       3.314  10.463   1.344  1.00  0.00     0.280 C 
BRANCH   9  10
HETATM   10  O   UNL     1       2.426  11.021   2.307  1.00  0.00    -0.342 OA
BRANCH  10  11
HETATM   11  C   UNL     1       2.478  12.379   2.462  1.00  0.00     0.069 A 
HETATM   12  C   UNL     1       1.951  12.857   3.663  1.00  0.00     0.037 A 
HETATM   13  C   UNL     1       1.940  14.226   3.941  1.00  0.00     0.009 A 
HETATM   14  C   UNL     1       2.441  15.139   3.008  1.00  0.00    -0.062 A 
HETATM   15  C   UNL     1       2.458  16.610   3.303  1.00  0.00     0.048 C 
HETATM   16  C   UNL     1       2.965  14.657   1.803  1.00  0.00     0.009 A 
HETATM   17  C   UNL     1       2.979  13.284   1.528  1.00  0.00     0.037 A 
ENDBRANCH  10  11
ENDBRANCH   9  10
ENDBRANCH   6   9
ENDBRANCH   2   5
BRANCH   1  18
HETATM   18  C   UNL     1       2.273   4.725   0.047  1.00  0.00     0.077 A 
HETATM   19  C   UNL     1       1.889   3.968   1.182  1.00  0.00     0.158 A 
HETATM   20  N   UNL     1       2.202   2.680   1.088  1.00  0.00    -0.183 NA
HETATM   21  N   UNL     1       2.732   2.570  -0.145  1.00  0.00    -0.268 N 
HETATM   22  C   UNL     1       2.867   3.786  -0.791  1.00  0.00     0.052 A 
BRANCH  21  23
HETATM   23  C   UNL     1       3.127   1.247  -0.630  1.00  0.00     0.106 C 
HETATM   24  C   UNL     1       4.538   0.911  -0.141  1.00  0.00     0.034 C 
BRANCH  23  25
HETATM   25  C   UNL     1       2.142   0.122  -0.246  1.00  0.00     0.022 C 
HETATM   26  C   UNL     1       0.755   0.310  -0.850  1.00  0.00     0.007 C 
ENDBRANCH  23  25
ENDBRANCH  21  23
BRANCH  22  27
HETATM   27  C   UNL     1       3.599   3.956  -2.125  1.00  0.00     0.038 A 
HETATM   28  C   UNL     1       3.067   4.871  -3.198  1.00  0.00     0.011 A 
HETATM   29  C   UNL     1       4.296   5.258  -2.445  1.00  0.00     0.011 A 
ENDBRANCH  22  27
ENDBRANCH   1  18
TORSDOF 8
