REMARK  6 active torsions:
REMARK  status: ('A' for Active; 'I' for Inactive)
REMARK    1  A    between atoms: C_8  and  N_9 
REMARK       I    between atoms: N_9  and  C_10 
REMARK    2  A    between atoms: C_10  and  C_11 
REMARK    3  A    between atoms: C_11  and  N_12 
REMARK    4  A    between atoms: N_12  and  C_15 
REMARK    5  A    between atoms: C_15  and  C_16 
REMARK    6  A    between atoms: C_16  and  C_17 
ROOT
HETATM    1  N   UNL     1       0.503  -0.581   0.132  1.00  0.00    -0.062 N 
HETATM    2  H   UNL     1       1.175  -0.250   0.839  1.00  0.00     0.278 HD
HETATM    3  H   UNL     1       0.954  -0.419  -0.782  1.00  0.00     0.278 HD
ENDROOT
BRANCH   1   4
HETATM    4  C   UNL     1       0.358  -2.083   0.192  1.00  0.00     0.335 C 
BRANCH   4   5
HETATM    5  C   UNL     1      -0.458  -2.620  -0.984  1.00  0.00     0.248 C 
HETATM    6  N   UNL     1      -1.155  -3.772  -0.704  1.00  0.00    -0.322 N 
HETATM    7  H   UNL     1      -1.009  -4.241   0.183  1.00  0.00     0.169 HD
HETATM    8  O   UNL     1      -0.448  -1.979  -2.032  1.00  0.00    -0.271 OA
BRANCH   6   9
HETATM    9  C   UNL     1      -2.058  -4.420  -1.537  1.00  0.00     0.085 A 
HETATM   10  C   UNL     1      -2.680  -5.593  -1.144  1.00  0.00     0.052 A 
HETATM   11  C   UNL     1      -2.600  -6.418   0.085  1.00  0.00     0.072 C 
HETATM   12  N   UNL     1      -3.497  -5.950  -2.181  1.00  0.00    -0.280 N 
HETATM   13  H   UNL     1      -4.107  -6.759  -2.255  1.00  0.00     0.189 HD
HETATM   14  N   UNL     1      -3.464  -5.095  -3.203  1.00  0.00    -0.177 NA
HETATM   15  C   UNL     1      -2.584  -4.154  -2.836  1.00  0.00     0.079 A 
HETATM   16  C   UNL     1      -2.331  -3.047  -3.791  1.00  0.00     0.075 C 
ENDBRANCH   6   9
ENDBRANCH   4   5
ENDBRANCH   1   4
BRANCH   1  17
HETATM   17  C   UNL     1      -0.752   0.291   0.151  1.00  0.00     0.194 C 
HETATM   18  C   UNL     1      -0.377   1.559  -0.631  1.00  0.00     0.041 C 
BRANCH  17  19
HETATM   19  C   UNL     1      -1.322   0.535   1.611  1.00  0.00     0.007 C 
HETATM   20  C   UNL     1      -2.295   1.748   1.626  1.00  0.00     0.022 C 
HETATM   21  C   UNL     1      -2.241  -0.660   1.998  1.00  0.00     0.022 C 
BRANCH  19  22
HETATM   22  C   UNL     1      -0.184   0.758   2.630  1.00  0.00    -0.048 A 
HETATM   23  C   UNL     1       0.500   1.988   2.690  1.00  0.00     0.008 A 
HETATM   24  C   UNL     1       1.559   2.193   3.580  1.00  0.00     0.001 A 
HETATM   25  C   UNL     1       1.964   1.174   4.431  1.00  0.00     0.000 A 
HETATM   26  C   UNL     1       1.304  -0.048   4.399  1.00  0.00     0.001 A 
HETATM   27  C   UNL     1       0.241  -0.253   3.513  1.00  0.00     0.008 A 
ENDBRANCH  19  22
ENDBRANCH  17  19
ENDBRANCH   1  17
TORSDOF 6
