REMARK  9 active torsions:
REMARK  status: ('A' for Active; 'I' for Inactive)
REMARK    1  A    between atoms: C_2  and  N_3 
REMARK    2  A    between atoms: C_4  and  S_5 
REMARK    3  A    between atoms: S_5  and  C_6 
REMARK    4  A    between atoms: C_6  and  C_7 
REMARK       I    between atoms: C_7  and  N_8 
REMARK    5  A    between atoms: N_8  and  C_9 
REMARK    6  A    between atoms: C_9  and  C_10 
REMARK    7  A    between atoms: C_10  and  C_11 
REMARK    8  A    between atoms: C_20  and  C_21 
REMARK    9  A    between atoms: C_24  and  O_25 
ROOT
HETATM    1  N   UNL     1       2.853   1.142  -0.921  1.00  0.00    -0.308 N 
HETATM    2  C   UNL     1       2.916   2.512  -0.843  1.00  0.00     0.192 A 
HETATM    3  N   UNL     1       3.781   2.975  -1.708  1.00  0.00    -0.122 NA
HETATM    4  N   UNL     1       4.272   1.909  -2.402  1.00  0.00    -0.128 NA
HETATM    5  C   UNL     1       3.720   0.791  -1.948  1.00  0.00     0.164 A 
ENDROOT
BRANCH   2   6
HETATM    6  S   UNL     1       1.972   3.487   0.230  1.00  0.00    -0.081 SA
BRANCH   6   7
HETATM    7  C   UNL     1       3.003   4.975   0.345  1.00  0.00     0.185 C 
BRANCH   7   8
HETATM    8  C   UNL     1       2.633   6.003  -0.707  1.00  0.00     0.227 C 
HETATM    9  N   UNL     1       3.078   5.725  -1.982  1.00  0.00    -0.360 N 
HETATM   10  H   UNL     1       3.611   4.867  -2.132  1.00  0.00     0.162 HD
HETATM   11  O   UNL     1       2.024   7.032  -0.421  1.00  0.00    -0.273 OA
BRANCH   9  12
HETATM   12  C   UNL     1       3.002   6.709  -3.042  1.00  0.00     0.127 C 
BRANCH  12  13
HETATM   13  C   UNL     1       3.260   6.102  -4.420  1.00  0.00     0.058 C 
BRANCH  13  14
HETATM   14  C   UNL     1       3.346   7.163  -5.488  1.00  0.00    -0.057 A 
HETATM   15  C   UNL     1       4.588   7.701  -5.853  1.00  0.00     0.007 A 
HETATM   16  C   UNL     1       4.669   8.706  -6.818  1.00  0.00     0.001 A 
HETATM   17  C   UNL     1       3.510   9.185  -7.425  1.00  0.00     0.000 A 
HETATM   18  C   UNL     1       2.270   8.660  -7.067  1.00  0.00     0.001 A 
HETATM   19  C   UNL     1       2.187   7.655  -6.102  1.00  0.00     0.007 A 
ENDBRANCH  13  14
ENDBRANCH  12  13
ENDBRANCH   9  12
ENDBRANCH   7   8
ENDBRANCH   6   7
ENDBRANCH   2   6
BRANCH   1  20
HETATM   20  C   UNL     1       2.041   0.282  -0.087  1.00  0.00     0.128 C 
HETATM   21  C   UNL     1       0.795  -0.240  -0.778  1.00  0.00     0.027 C 
ENDBRANCH   1  20
BRANCH   5  22
HETATM   22  C   UNL     1       3.991  -0.526  -2.552  1.00  0.00     0.012 A 
HETATM   23  C   UNL     1       4.359  -0.559  -3.908  1.00  0.00     0.018 A 
HETATM   24  C   UNL     1       4.670  -1.761  -4.553  1.00  0.00     0.037 A 
HETATM   25  C   UNL     1       4.622  -2.968  -3.861  1.00  0.00     0.068 A 
HETATM   26  C   UNL     1       4.264  -2.956  -2.515  1.00  0.00     0.037 A 
HETATM   27  C   UNL     1       3.967  -1.745  -1.866  1.00  0.00     0.018 A 
BRANCH  25  28
HETATM   28  O   UNL     1       4.954  -4.068  -4.600  1.00  0.00    -0.356 OA
HETATM   29  C   UNL     1       4.980  -5.318  -3.922  1.00  0.00     0.210 C 
ENDBRANCH  25  28
ENDBRANCH   5  22
TORSDOF 9
