REMARK  6 active torsions:
REMARK  status: ('A' for Active; 'I' for Inactive)
REMARK    1  A    between atoms: C_4  and  C_5 
REMARK    2  A    between atoms: C_5  and  O_6 
REMARK    3  A    between atoms: O_6  and  C_7 
REMARK    4  A    between atoms: C_10  and  C_11 
REMARK    5  A    between atoms: C_17  and  C_18 
REMARK    6  A    between atoms: C_26  and  N_27 
ROOT
HETATM    1  C   UNL     1       8.976  -1.759  -1.368  1.00  0.00     0.072 A 
HETATM    2  N   UNL     1       9.758  -2.748  -0.805  1.00  0.00    -0.274 N 
HETATM    3  H   UNL     1       9.469  -3.463  -0.145  1.00  0.00     0.189 HD
HETATM    4  N   UNL     1      11.049  -2.721  -1.191  1.00  0.00    -0.148 NA
HETATM    5  C   UNL     1      11.078  -1.677  -2.007  1.00  0.00     0.199 A 
HETATM    6  C   UNL     1       9.846  -1.044  -2.174  1.00  0.00     0.040 A 
HETATM    7  C   UNL     1       9.704   0.121  -3.093  1.00  0.00     0.108 A 
HETATM    8  C   UNL     1      11.071   0.544  -3.633  1.00  0.00     0.081 A 
HETATM    9  C   UNL     1      11.113   1.756  -4.385  1.00  0.00     0.100 C 
HETATM   10  N   UNL     1      11.141   2.741  -4.996  1.00  0.00    -0.191 NA
HETATM   11  C   UNL     1      12.214  -0.149  -3.383  1.00  0.00     0.140 A 
HETATM   12  O   UNL     1      12.228  -1.310  -2.599  1.00  0.00    -0.277 OA
ENDROOT
BRANCH   7  13
HETATM   13  C   UNL     1       8.737  -0.174  -4.210  1.00  0.00    -0.020 A 
HETATM   14  C   UNL     1       8.790  -1.205  -5.131  1.00  0.00     0.149 A 
HETATM   15  O   UNL     1       7.743  -1.141  -5.992  1.00  0.00    -0.334 OA
HETATM   16  C   UNL     1       7.001  -0.065  -5.631  1.00  0.00     0.142 A 
HETATM   17  C   UNL     1       7.563   0.563  -4.546  1.00  0.00     0.034 A 
ENDBRANCH   7  13
BRANCH  11  18
HETATM   18  N   UNL     1      13.467   0.193  -3.844  1.00  0.00    -0.282 NA
HETATM   19  H   UNL     1      13.491   0.735  -4.705  1.00  0.00     0.126 HD
HETATM   20  H   UNL     1      14.100  -0.604  -3.856  1.00  0.00     0.126 HD
ENDBRANCH  11  18
BRANCH   1  21
HETATM   21  C   UNL     1       7.550  -1.621  -1.099  1.00  0.00    -0.007 A 
HETATM   22  C   UNL     1       6.992  -0.364  -0.846  1.00  0.00     0.016 A 
HETATM   23  C   UNL     1       5.618  -0.230  -0.629  1.00  0.00     0.037 A 
HETATM   24  C   UNL     1       4.779  -1.344  -0.660  1.00  0.00     0.069 A 
HETATM   25  C   UNL     1       5.332  -2.605  -0.879  1.00  0.00     0.037 A 
HETATM   26  C   UNL     1       6.708  -2.740  -1.103  1.00  0.00     0.016 A 
BRANCH  24  27
HETATM   27  O   UNL     1       3.455  -1.068  -0.463  1.00  0.00    -0.347 OA
BRANCH  27  28
HETATM   28  C   UNL     1       2.527  -2.125  -0.712  1.00  0.00     0.214 C 
BRANCH  28  29
HETATM   29  C   UNL     1       1.119  -1.576  -0.739  1.00  0.00    -0.034 A 
HETATM   30  C   UNL     1       0.191  -2.067  -1.670  1.00  0.00     0.009 A 
HETATM   31  C   UNL     1      -1.118  -1.582  -1.693  1.00  0.00     0.001 A 
HETATM   32  C   UNL     1      -1.518  -0.610  -0.780  1.00  0.00     0.000 A 
HETATM   33  C   UNL     1      -0.612  -0.125   0.161  1.00  0.00     0.001 A 
HETATM   34  C   UNL     1       0.697  -0.609   0.186  1.00  0.00     0.009 A 
ENDBRANCH  28  29
ENDBRANCH  27  28
ENDBRANCH  24  27
ENDBRANCH   1  21
TORSDOF 6
