REMARK  6 active torsions:
REMARK  status: ('A' for Active; 'I' for Inactive)
REMARK       I    between atoms: N_2  and  C_3 
REMARK    1  A    between atoms: N_2  and  C_15 
REMARK       I    between atoms: C_3  and  N_4 
REMARK    2  A    between atoms: N_4  and  C_5 
REMARK    3  A    between atoms: C_15  and  C_16 
REMARK    4  A    between atoms: C_16  and  C_17 
REMARK    5  A    between atoms: C_17  and  C_18 
REMARK    6  A    between atoms: C_22  and  C_23 
ROOT
HETATM    1  C   UNL     1       2.412   0.622   1.257  1.00  0.00     0.127 C 
ENDROOT
BRANCH   1   2
HETATM    2  N   UNL     1       1.840  -0.374   0.345  1.00  0.00    -0.338 N 
HETATM    3  C   UNL     1       2.203  -0.227  -1.061  1.00  0.00     0.154 C 
HETATM    4  C   UNL     1       1.379  -1.634   0.730  1.00  0.00     0.322 C 
HETATM    5  N   UNL     1       0.948  -1.722   2.030  1.00  0.00    -0.309 N 
HETATM    6  O   UNL     1       1.448  -2.584  -0.046  1.00  0.00    -0.247 OA
HETATM    7  H   UNL     1       0.716  -0.853   2.480  1.00  0.00     0.170 HD
BRANCH   5   8
HETATM    8  C   UNL     1       0.637  -2.890   2.762  1.00  0.00     0.036 A 
HETATM    9  C   UNL     1       0.725  -4.184   2.241  1.00  0.00     0.039 A 
HETATM   10  C   UNL     1       0.409  -5.258   3.062  1.00  0.00    -0.024 A 
HETATM   11  C   UNL     1       0.038  -5.075   4.383  1.00  0.00    -0.026 A 
HETATM   12  C   UNL     1       0.419  -6.709   2.749  1.00  0.00     0.207 C 
HETATM   13  C   UNL     1      -0.191  -6.398   5.013  1.00  0.00     0.207 C 
HETATM   14  C   UNL     1      -0.044  -3.808   4.928  1.00  0.00     0.012 A 
HETATM   15  O   UNL     1      -0.176  -7.335   3.911  1.00  0.00    -0.382 OA
HETATM   16  C   UNL     1       0.248  -2.714   4.106  1.00  0.00     0.030 A 
ENDBRANCH   5   8
ENDBRANCH   1   2
BRANCH   1  17
HETATM   17  C   UNL     1       3.904   0.408   1.556  1.00  0.00     0.026 C 
BRANCH  17  18
HETATM   18  C   UNL     1       4.183  -0.695   2.582  1.00  0.00     0.060 C 
BRANCH  18  19
HETATM   19  C   UNL     1       4.963  -1.841   2.039  1.00  0.00     0.030 A 
HETATM   20  N   UNL     1       4.457  -2.776   1.178  1.00  0.00    -0.282 N 
HETATM   21  H   UNL     1       3.528  -2.831   0.767  1.00  0.00     0.189 HD
HETATM   22  N   UNL     1       5.333  -3.743   0.863  1.00  0.00    -0.174 NA
HETATM   23  C   UNL     1       6.444  -3.452   1.558  1.00  0.00     0.089 A 
HETATM   24  C   UNL     1       6.256  -2.248   2.291  1.00  0.00     0.060 A 
BRANCH  23  25
HETATM   25  C   UNL     1       7.626  -4.323   1.517  1.00  0.00    -0.005 A 
HETATM   26  C   UNL     1       8.753  -4.063   2.316  1.00  0.00     0.017 A 
HETATM   27  C   UNL     1       9.862  -4.914   2.281  1.00  0.00     0.043 A 
HETATM   28  C   UNL     1       9.851  -6.026   1.448  1.00  0.00     0.116 A 
HETATM   29  F   UNL     1      10.914  -6.840   1.420  1.00  0.00    -0.206 F 
HETATM   30  C   UNL     1       8.752  -6.305   0.648  1.00  0.00     0.043 A 
HETATM   31  C   UNL     1       7.643  -5.455   0.683  1.00  0.00     0.017 A 
ENDBRANCH  23  25
ENDBRANCH  18  19
ENDBRANCH  17  18
ENDBRANCH   1  17
TORSDOF 6
