REMARK  7 active torsions:
REMARK  status: ('A' for Active; 'I' for Inactive)
REMARK    1  A    between atoms: O_2  and  C_3 
REMARK    2  A    between atoms: C_3  and  C_4 
REMARK    3  A    between atoms: C_4  and  N_5 
REMARK    4  A    between atoms: C_4  and  C_21 
REMARK    5  A    between atoms: N_5  and  C_6 
REMARK    6  A    between atoms: C_21  and  C_22 
REMARK    7  A    between atoms: C_25  and  O_26 
ROOT
HETATM    1  N   UNL     1       2.859   2.641   2.284  1.00  0.00    -0.277 NA
HETATM    2  H   UNL     1       2.394   3.202   3.007  1.00  0.00     0.128 HD
ENDROOT
BRANCH   1   3
HETATM    3  C   UNL     1       2.401   1.226   2.383  1.00  0.00     0.164 C 
BRANCH   3   4
HETATM    4  C   UNL     1       1.924   0.896   3.812  1.00  0.00     0.276 C 
HETATM    5  O   UNL     1       1.773  -0.240   4.238  1.00  0.00    -0.263 OA
BRANCH   4   6
HETATM    6  O   UNL     1       1.710   2.039   4.532  1.00  0.00    -0.325 OA
HETATM    7  C   UNL     1       1.319   1.815   5.889  1.00  0.00     0.213 C 
ENDBRANCH   4   6
ENDBRANCH   3   4
BRANCH   3   8
HETATM    8  C   UNL     1       1.171   0.992   1.484  1.00  0.00     0.068 C 
BRANCH   8   9
HETATM    9  C   UNL     1       1.416   1.097  -0.003  1.00  0.00    -0.056 A 
HETATM   10  C   UNL     1       2.240   0.177  -0.667  1.00  0.00     0.010 A 
HETATM   11  C   UNL     1       2.413   0.249  -2.052  1.00  0.00     0.037 A 
HETATM   12  C   UNL     1       1.759   1.242  -2.773  1.00  0.00     0.065 A 
HETATM   13  C   UNL     1       0.938   2.161  -2.134  1.00  0.00     0.037 A 
HETATM   14  C   UNL     1       0.759   2.084  -0.753  1.00  0.00     0.010 A 
BRANCH  12  15
HETATM   15  O   UNL     1       1.890   1.345  -4.126  1.00  0.00    -0.361 OA
HETATM   16  H   UNL     1       2.349   0.555  -4.457  1.00  0.00     0.217 HD
ENDBRANCH  12  15
ENDBRANCH   8   9
ENDBRANCH   3   8
ENDBRANCH   1   3
BRANCH   1  17
HETATM   17  C   UNL     1       4.204   3.030   2.144  1.00  0.00     0.034 A 
HETATM   18  C   UNL     1       4.448   4.092   1.219  1.00  0.00     0.013 A 
HETATM   19  C   UNL     1       5.731   4.667   1.147  1.00  0.00     0.044 A 
HETATM   20  C   UNL     1       3.469   4.613   0.343  1.00  0.00     0.015 A 
HETATM   21  C   UNL     1       6.015   5.716   0.256  1.00  0.00     0.030 A 
HETATM   22  N   UNL     1       6.695   4.215   1.957  1.00  0.00    -0.355 N 
HETATM   23  C   UNL     1       5.025   6.206  -0.591  1.00  0.00     0.002 A 
HETATM   24  C   UNL     1       3.754   5.650  -0.551  1.00  0.00     0.001 A 
HETATM   25  H   UNL     1       7.609   4.655   1.891  1.00  0.00     0.166 HD
HETATM   26  C   UNL     1       6.532   3.239   2.861  1.00  0.00     0.044 A 
HETATM   27  C   UNL     1       5.274   2.602   2.997  1.00  0.00     0.013 A 
HETATM   28  C   UNL     1       7.633   2.898   3.673  1.00  0.00     0.030 A 
HETATM   29  C   UNL     1       5.210   1.605   4.004  1.00  0.00     0.015 A 
HETATM   30  C   UNL     1       6.307   1.262   4.804  1.00  0.00     0.001 A 
HETATM   31  C   UNL     1       7.519   1.910   4.643  1.00  0.00     0.002 A 
ENDBRANCH   1  17
TORSDOF 7
