REMARK  5 active torsions:
REMARK  status: ('A' for Active; 'I' for Inactive)
REMARK    1  A    between atoms: C_6  and  O_7 
REMARK    2  A    between atoms: O_7  and  C_8 
REMARK    3  A    between atoms: C_8  and  C_9 
REMARK    4  A    between atoms: C_11  and  C_12 
REMARK       I    between atoms: C_12  and  N_13 
REMARK    5  A    between atoms: N_13  and  C_14 
ROOT
HETATM    1  C   UNL     1       8.541  -1.327  -1.518  1.00  0.00     0.078 A 
HETATM    2  O   UNL     1       9.027  -0.120  -1.117  1.00  0.00    -0.307 OA
HETATM    3  C   UNL     1      10.274   0.040  -1.663  1.00  0.00     0.143 A 
HETATM    4  C   UNL     1      10.582  -1.088  -2.406  1.00  0.00     0.045 A 
HETATM    5  C   UNL     1       9.469  -1.964  -2.311  1.00  0.00     0.038 A 
ENDROOT
BRANCH   3   6
HETATM    6  C   UNL     1      10.974   1.280  -1.360  1.00  0.00     0.279 C 
HETATM    7  N   UNL     1      12.232   1.392  -1.946  1.00  0.00    -0.321 N 
HETATM    8  H   UNL     1      12.532   0.617  -2.521  1.00  0.00     0.169 HD
HETATM    9  O   UNL     1      10.487   2.145  -0.636  1.00  0.00    -0.265 OA
BRANCH   7  10
HETATM   10  C   UNL     1      13.154   2.451  -1.798  1.00  0.00     0.035 A 
HETATM   11  C   UNL     1      12.901   3.600  -1.044  1.00  0.00     0.039 A 
HETATM   12  C   UNL     1      13.891   4.565  -0.931  1.00  0.00    -0.022 A 
HETATM   13  C   UNL     1      15.128   4.412  -1.554  1.00  0.00    -0.025 A 
HETATM   14  C   UNL     1      13.840   5.827  -0.142  1.00  0.00     0.274 C 
HETATM   15  C   UNL     1      16.023   5.557  -1.223  1.00  0.00     0.273 C 
HETATM   16  C   UNL     1      15.398   3.291  -2.318  1.00  0.00     0.012 A 
HETATM   17  N   UNL     1      15.139   6.552  -0.477  1.00  0.00    -0.067 N 
HETATM   18  H   UNL     1      14.890   7.280  -1.155  1.00  0.00     0.280 HD
HETATM   19  C   UNL     1      15.792   7.193   0.696  1.00  0.00     0.270 C 
HETATM   20  C   UNL     1      14.402   2.313  -2.440  1.00  0.00     0.030 A 
ENDBRANCH   7  10
ENDBRANCH   3   6
BRANCH   1  21
HETATM   21  C   UNL     1       7.180  -1.687  -1.041  1.00  0.00     0.240 C 
BRANCH  21  22
HETATM   22  O   UNL     1       6.319  -1.573  -2.170  1.00  0.00    -0.344 OA
BRANCH  22  23
HETATM   23  C   UNL     1       4.979  -1.774  -1.962  1.00  0.00     0.075 A 
HETATM   24  C   UNL     1       4.150  -1.553  -3.075  1.00  0.00    -0.028 A 
HETATM   25  C   UNL     1       2.759  -1.709  -2.943  1.00  0.00     0.016 A 
HETATM   26  C   UNL     1       4.713  -1.092  -4.391  1.00  0.00     0.051 C 
HETATM   27  C   UNL     1       2.188  -2.094  -1.725  1.00  0.00    -0.061 A 
HETATM   28  C   UNL     1       0.707  -2.294  -1.607  1.00  0.00     0.048 C 
HETATM   29  C   UNL     1       3.027  -2.344  -0.637  1.00  0.00     0.009 A 
HETATM   30  C   UNL     1       4.410  -2.180  -0.751  1.00  0.00     0.038 A 
ENDBRANCH  22  23
ENDBRANCH  21  22
ENDBRANCH   1  21
TORSDOF 5
