REMARK  6 active torsions:
REMARK  status: ('A' for Active; 'I' for Inactive)
REMARK    1  A    between atoms: C_2  and  O_3 
REMARK    2  A    between atoms: O_3  and  C_4 
REMARK    3  A    between atoms: C_4  and  C_5 
REMARK    4  A    between atoms: C_6  and  O_7 
REMARK    5  A    between atoms: C_12  and  O_13 
REMARK    6  A    between atoms: C_17  and  C_18 
ROOT
HETATM    1  C   UNL     1       5.337   0.873  -0.178  1.00  0.00     0.133 C 
HETATM    2  C   UNL     1       5.391  -0.486  -0.972  1.00  0.00     0.073 C 
HETATM    3  C   UNL     1       6.821  -0.726  -1.507  1.00  0.00     0.047 C 
HETATM    4  C   UNL     1       4.948  -1.707  -0.121  1.00  0.00     0.097 C 
HETATM    5  C   UNL     1       5.676  -1.669   1.164  1.00  0.00     0.042 A 
HETATM    6  C   UNL     1       6.052  -0.526   1.832  1.00  0.00     0.030 A 
HETATM    7  C   UNL     1       6.753  -1.017   2.941  1.00  0.00     0.190 A 
HETATM    8  N   UNL     1       6.834  -2.342   2.976  1.00  0.00    -0.149 NA
HETATM    9  N   UNL     1       6.154  -2.727   1.880  1.00  0.00    -0.279 N 
HETATM   10  H   UNL     1       6.078  -3.720   1.684  1.00  0.00     0.189 HD
HETATM   11  C   UNL     1       5.738   0.848   1.336  1.00  0.00     0.074 C 
ENDROOT
BRANCH  11  12
HETATM   12  C   UNL     1       4.746   1.427   2.341  1.00  0.00    -0.048 A 
HETATM   13  C   UNL     1       4.924   2.743   2.798  1.00  0.00     0.009 A 
HETATM   14  C   UNL     1       4.039   3.308   3.721  1.00  0.00     0.024 A 
HETATM   15  C   UNL     1       2.961   2.566   4.198  1.00  0.00     0.034 A 
HETATM   16 CL   UNL     1       1.871   3.264   5.329  1.00  0.00    -0.084 Cl
HETATM   17  C   UNL     1       2.756   1.265   3.752  1.00  0.00     0.024 A 
HETATM   18  C   UNL     1       3.636   0.705   2.824  1.00  0.00     0.009 A 
ENDBRANCH  11  12
BRANCH   1  19
HETATM   19  C   UNL     1       4.089   1.678  -0.467  1.00  0.00     0.267 C 
HETATM   20  O   UNL     1       4.143   2.808  -0.944  1.00  0.00    -0.265 OA
BRANCH  19  21
HETATM   21  O   UNL     1       2.943   1.015  -0.171  1.00  0.00    -0.321 OA
BRANCH  21  22
HETATM   22  C   UNL     1       1.734   1.687  -0.557  1.00  0.00     0.174 C 
HETATM   23  C   UNL     1       1.318   2.719   0.477  1.00  0.00     0.034 C 
ENDBRANCH  21  22
ENDBRANCH  19  21
ENDBRANCH   1  19
BRANCH   2  24
HETATM   24  O   UNL     1       4.552  -0.448  -2.137  1.00  0.00    -0.389 OA
HETATM   25  H   UNL     1       4.893   0.226  -2.753  1.00  0.00     0.210 HD
ENDBRANCH   2  24
BRANCH   7  26
HETATM   26  O   UNL     1       7.330  -0.354   3.946  1.00  0.00    -0.343 OA
HETATM   27  H   UNL     1       7.060   0.575   3.917  1.00  0.00     0.219 HD
ENDBRANCH   7  26
TORSDOF 6
