REMARK  5 active torsions:
REMARK  status: ('A' for Active; 'I' for Inactive)
REMARK    1  A    between atoms: C_2  and  N_3 
REMARK    2  A    between atoms: C_6  and  C_7 
REMARK    3  A    between atoms: C_7  and  N_8 
REMARK    4  A    between atoms: C_11  and  O_12 
REMARK    5  A    between atoms: C_13  and  N_14 
ROOT
HETATM    1  N   UNL     1       3.832   6.264  -0.771  1.00  0.00    -0.065 N 
HETATM    2  H   UNL     1       2.816   6.292  -0.605  1.00  0.00     0.280 HD
HETATM    3  C   UNL     1       4.525   7.081   0.303  1.00  0.00     0.268 C 
HETATM    4  C   UNL     1       4.038   8.539   0.241  1.00  0.00     0.174 C 
HETATM    5  C   UNL     1       4.254   9.099  -1.185  1.00  0.00     0.220 C 
HETATM    6  C   UNL     1       3.594   8.233  -2.255  1.00  0.00     0.063 C 
HETATM    7  C   UNL     1       4.092   6.788  -2.160  1.00  0.00     0.237 C 
ENDROOT
BRANCH   1   8
HETATM    8  C   UNL     1       4.150   4.767  -0.646  1.00  0.00     0.276 C 
BRANCH   8   9
HETATM    9  C   UNL     1       3.390   4.178   0.482  1.00  0.00     0.004 A 
HETATM   10  C   UNL     1       3.899   3.594   1.656  1.00  0.00     0.149 A 
HETATM   11  N   UNL     1       2.940   3.256   2.511  1.00  0.00    -0.180 NA
HETATM   12  N   UNL     1       1.772   3.520   1.879  1.00  0.00    -0.245 N 
HETATM   13  C   UNL     1       2.018   4.085   0.637  1.00  0.00     0.129 A 
BRANCH  12  14
HETATM   14  C   UNL     1       0.517   3.293   2.510  1.00  0.00     0.058 A 
HETATM   15  C   UNL     1       0.487   2.750   3.806  1.00  0.00     0.034 A 
HETATM   16  C   UNL     1      -0.732   2.548   4.457  1.00  0.00     0.044 A 
HETATM   17  C   UNL     1      -1.916   2.886   3.815  1.00  0.00     0.116 A 
HETATM   18  C   UNL     1      -1.906   3.416   2.530  1.00  0.00     0.044 A 
HETATM   19  F   UNL     1      -3.085   2.703   4.441  1.00  0.00    -0.206 F 
HETATM   20  C   UNL     1      -0.690   3.619   1.870  1.00  0.00     0.034 A 
ENDBRANCH  12  14
ENDBRANCH   8   9
ENDBRANCH   1   8
BRANCH   4  21
HETATM   21  O   UNL     1       4.742   9.400   1.132  1.00  0.00    -0.392 OA
HETATM   22  H   UNL     1       4.602   9.117   2.061  1.00  0.00     0.210 HD
ENDBRANCH   4  21
BRANCH   5  23
HETATM   23  N   UNL     1       3.802  10.577  -1.230  1.00  0.00    -0.064 N 
HETATM   24  H   UNL     1       4.186  10.952  -0.341  1.00  0.00     0.280 HD
HETATM   25  C   UNL     1       4.511  11.362  -2.319  1.00  0.00     0.235 C 
HETATM   26  C   UNL     1       4.354  12.871  -2.158  1.00  0.00     0.028 C 
HETATM   27  C   UNL     1       2.968  13.378  -2.541  1.00  0.00     0.002 C 
HETATM   28  C   UNL     1       1.941  13.340  -1.415  1.00  0.00     0.002 C 
HETATM   29  C   UNL     1       1.982  12.128  -0.491  1.00  0.00     0.028 C 
HETATM   30  C   UNL     1       2.300  10.810  -1.180  1.00  0.00     0.235 C 
ENDBRANCH   5  23
TORSDOF 5
