REMARK  7 active torsions:
REMARK  status: ('A' for Active; 'I' for Inactive)
REMARK    1  A    between atoms: C_2  and  C_3 
REMARK    2  A    between atoms: C_4  and  O_5 
REMARK    3  A    between atoms: C_7  and  O_8 
REMARK    4  A    between atoms: C_9  and  C_10 
REMARK    5  A    between atoms: C_14  and  C_15 
REMARK    6  A    between atoms: C_19  and  C_20 
REMARK    7  A    between atoms: N_22  and  C_23 
ROOT
HETATM    1  C   UNL     1       3.300  -3.255  -3.856  1.00  0.00     0.103 A 
HETATM    2  N   UNL     1       3.651  -4.345  -3.144  1.00  0.00    -0.173 NA
HETATM    3  N   UNL     1       3.435  -5.376  -3.968  1.00  0.00    -0.272 N 
HETATM    4  H   UNL     1       3.660  -6.310  -3.636  1.00  0.00     0.189 HD
HETATM    5  C   UNL     1       2.900  -5.022  -5.167  1.00  0.00     0.147 A 
HETATM    6  C   UNL     1       2.778  -3.649  -5.130  1.00  0.00     0.042 A 
ENDROOT
BRANCH   1   7
HETATM    7  C   UNL     1       3.456  -1.924  -3.262  1.00  0.00     0.029 A 
HETATM    8  C   UNL     1       4.025  -0.845  -3.948  1.00  0.00     0.081 A 
HETATM    9  C   UNL     1       4.114   0.412  -3.347  1.00  0.00     0.074 A 
HETATM   10  C   UNL     1       3.665   0.594  -2.039  1.00  0.00     0.074 A 
HETATM   11  C   UNL     1       3.143  -0.472  -1.300  1.00  0.00    -0.024 A 
HETATM   12  C   UNL     1       3.033  -1.723  -1.935  1.00  0.00     0.026 A 
BRANCH   8  13
HETATM   13  O   UNL     1       4.520  -1.012  -5.213  1.00  0.00    -0.360 OA
HETATM   14  H   UNL     1       4.788  -0.147  -5.565  1.00  0.00     0.217 HD
ENDBRANCH   8  13
BRANCH  10  15
HETATM   15  O   UNL     1       3.779   1.862  -1.545  1.00  0.00    -0.360 OA
HETATM   16  H   UNL     1       3.323   1.919  -0.691  1.00  0.00     0.217 HD
ENDBRANCH  10  15
BRANCH  11  17
HETATM   17  C   UNL     1       2.693  -0.350   0.135  1.00  0.00     0.037 C 
HETATM   18  C   UNL     1       1.239   0.082   0.243  1.00  0.00     0.010 C 
ENDBRANCH  11  17
ENDBRANCH   1   7
BRANCH   6  19
HETATM   19  C   UNL     1       2.224  -2.796  -6.171  1.00  0.00     0.016 A 
HETATM   20  C   UNL     1       2.371  -2.913  -7.532  1.00  0.00     0.132 A 
HETATM   21  N   UNL     1       1.700  -1.851  -8.104  1.00  0.00    -0.245 N 
HETATM   22  N   UNL     1       1.086  -1.090  -7.157  1.00  0.00    -0.179 NA
HETATM   23  C   UNL     1       1.412  -1.665  -5.998  1.00  0.00     0.153 A 
BRANCH  21  24
HETATM   24  C   UNL     1       1.620  -1.510  -9.484  1.00  0.00     0.058 A 
HETATM   25  C   UNL     1       2.243  -2.294 -10.466  1.00  0.00     0.031 A 
HETATM   26  C   UNL     1       2.160  -1.927 -11.813  1.00  0.00     0.002 A 
HETATM   27  C   UNL     1       1.461  -0.781 -12.187  1.00  0.00     0.000 A 
HETATM   28  C   UNL     1       0.838   0.002 -11.218  1.00  0.00     0.002 A 
HETATM   29  C   UNL     1       0.914  -0.360  -9.871  1.00  0.00     0.031 A 
ENDBRANCH  21  24
ENDBRANCH   6  19
BRANCH   5  30
HETATM   30  C   UNL     1       2.563  -6.047  -6.157  1.00  0.00     0.435 C 
HETATM   31  F   UNL     1       2.742  -7.297  -5.654  1.00  0.00    -0.165 F 
HETATM   32  F   UNL     1       1.272  -5.972  -6.561  1.00  0.00    -0.165 F 
HETATM   33  F   UNL     1       3.338  -5.963  -7.266  1.00  0.00    -0.165 F 
ENDBRANCH   5  30
TORSDOF 7
