REMARK  10 active torsions:
REMARK  status: ('A' for Active; 'I' for Inactive)
REMARK    1  A    between atoms: C_4  and  C_5 
REMARK    2  A    between atoms: C_7  and  C_8 
REMARK    3  A    between atoms: C_8  and  C_9 
REMARK       I    between atoms: C_9  and  N_10 
REMARK    4  A    between atoms: N_10  and  C_11 
REMARK    5  A    between atoms: C_11  and  C_12 
REMARK    6  A    between atoms: C_12  and  N_13 
REMARK    7  A    between atoms: C_24  and  C_25 
REMARK    8  A    between atoms: C_25  and  O_26 
REMARK    9  A    between atoms: O_26  and  C_27 
REMARK   10  A    between atoms: C_27  and  C_28 
ROOT
HETATM    1  C   UNL     1       3.317   6.770  -0.570  1.00  0.00     0.166 C 
HETATM    2  N   UNL     1       3.365   5.291  -0.292  1.00  0.00    -0.318 N 
HETATM    3  C   UNL     1       2.535   4.324  -0.021  1.00  0.00     0.011 C 
HETATM    4  C   UNL     1       4.795   4.713  -0.530  1.00  0.00     0.170 C 
HETATM    5  S   UNL     1       4.821   2.989  -0.641  1.00  0.00    -0.086 SA
HETATM    6  C   UNL     1       3.086   2.914  -0.196  1.00  0.00     0.135 C 
HETATM    7  N   UNL     1       5.877   5.392  -0.602  1.00  0.00    -0.229 NA
HETATM    8  C   UNL     1       5.825   6.755  -0.462  1.00  0.00     0.048 C 
HETATM    9  C   UNL     1       7.197   7.392  -0.486  1.00  0.00     0.071 C 
HETATM   10  C   UNL     1       4.661   7.440  -0.413  1.00  0.00     0.069 C 
ENDROOT
BRANCH   3  11
HETATM   11  C   UNL     1       1.081   4.491   0.346  1.00  0.00     0.156 C 
BRANCH  11  12
HETATM   12  C   UNL     1       0.657   3.575   1.487  1.00  0.00     0.223 C 
HETATM   13  N   UNL     1      -0.642   3.141   1.448  1.00  0.00    -0.359 N 
HETATM   14  H   UNL     1      -1.279   3.627   0.819  1.00  0.00     0.162 HD
HETATM   15  O   UNL     1       1.440   3.223   2.367  1.00  0.00    -0.273 OA
BRANCH  13  16
HETATM   16  C   UNL     1      -1.295   2.409   2.540  1.00  0.00     0.150 C 
BRANCH  16  17
HETATM   17  C   UNL     1      -0.681   1.037   2.912  1.00  0.00     0.253 C 
BRANCH  17  18
HETATM   18  N   UNL     1       0.573   1.161   3.757  1.00  0.00    -0.077 N 
HETATM   19  H   UNL     1       1.126   1.945   3.356  1.00  0.00     0.279 HD
HETATM   20  C   UNL     1       0.302   1.522   5.193  1.00  0.00     0.269 C 
HETATM   21  C   UNL     1       1.436  -0.068   3.672  1.00  0.00     0.269 C 
ENDBRANCH  17  18
ENDBRANCH  16  17
ENDBRANCH  13  16
ENDBRANCH  11  12
ENDBRANCH   3  11
BRANCH   1  22
HETATM   22  C   UNL     1       2.119   7.462   0.069  1.00  0.00    -0.024 A 
HETATM   23  C   UNL     1       1.026   7.755  -0.790  1.00  0.00     0.017 A 
HETATM   24  C   UNL     1      -0.161   8.323  -0.316  1.00  0.00    -0.061 A 
HETATM   25  C   UNL     1      -1.291   8.629  -1.258  1.00  0.00     0.048 C 
HETATM   26  C   UNL     1      -0.244   8.667   1.030  1.00  0.00     0.007 A 
HETATM   27  C   UNL     1       0.828   8.415   1.890  1.00  0.00     0.008 A 
HETATM   28  C   UNL     1       2.007   7.793   1.437  1.00  0.00    -0.053 A 
HETATM   29  C   UNL     1       3.105   7.596   2.448  1.00  0.00     0.049 C 
ENDBRANCH   1  22
BRANCH  10  30
HETATM   30  C   UNL     1       4.670   8.922  -0.399  1.00  0.00     0.294 C 
HETATM   31  O   UNL     1       3.991   9.581  -1.166  1.00  0.00    -0.259 OA
BRANCH  30  32
HETATM   32  O   UNL     1       5.473   9.375   0.585  1.00  0.00    -0.313 OA
BRANCH  32  33
HETATM   33  C   UNL     1       5.648  10.801   0.628  1.00  0.00     0.217 C 
BRANCH  33  34
HETATM   34  C   UNL     1       6.868  11.098   1.467  1.00  0.00    -0.034 A 
HETATM   35  C   UNL     1       8.142  10.691   1.040  1.00  0.00     0.009 A 
HETATM   36  C   UNL     1       9.275  10.963   1.809  1.00  0.00     0.001 A 
HETATM   37  C   UNL     1       9.151  11.659   3.008  1.00  0.00     0.000 A 
HETATM   38  C   UNL     1       7.895  12.083   3.438  1.00  0.00     0.001 A 
HETATM   39  C   UNL     1       6.759  11.802   2.674  1.00  0.00     0.009 A 
ENDBRANCH  33  34
ENDBRANCH  32  33
ENDBRANCH  30  32
ENDBRANCH  10  30
TORSDOF 10
