REMARK  7 active torsions:
REMARK  status: ('A' for Active; 'I' for Inactive)
REMARK    1  A    between atoms: O_2  and  C_3 
REMARK    2  A    between atoms: C_6  and  N_7 
REMARK       I    between atoms: N_7  and  C_8 
REMARK    3  A    between atoms: C_8  and  C_9 
REMARK    4  A    between atoms: C_9  and  C_10 
REMARK    5  A    between atoms: C_10  and  N_11 
REMARK    6  A    between atoms: C_10  and  C_20 
REMARK       I    between atoms: N_11  and  C_12 
REMARK    7  A    between atoms: C_12  and  C_13 
ROOT
HETATM    1  C   UNL     1       2.827   5.140   0.926  1.00  0.00     0.126 C 
ENDROOT
BRANCH   1   2
HETATM    2  C   UNL     1       3.602   6.315   0.298  1.00  0.00     0.133 C 
BRANCH   2   3
HETATM    3  C   UNL     1       4.912   5.856  -0.293  1.00  0.00     0.224 C 
HETATM    4  N   UNL     1       5.947   6.706  -0.541  1.00  0.00    -0.326 N 
HETATM    5  H   UNL     1       6.731   6.178  -0.909  1.00  0.00     0.169 HD
HETATM    6  O   UNL     1       5.085   4.678  -0.631  1.00  0.00    -0.273 OA
BRANCH   4   7
HETATM    7  C   UNL     1       6.184   8.076  -0.337  1.00  0.00     0.052 A 
HETATM    8  C   UNL     1       5.276   9.042   0.080  1.00  0.00     0.149 A 
HETATM    9  N   UNL     1       5.590  10.345   0.312  1.00  0.00    -0.235 NA
HETATM   10  C   UNL     1       6.871  10.710   0.110  1.00  0.00     0.163 A 
HETATM   11  C   UNL     1       7.842   9.848  -0.361  1.00  0.00     0.060 A 
HETATM   12  C   UNL     1       7.490   8.518  -0.583  1.00  0.00     0.035 A 
BRANCH  10  13
HETATM   13  O   UNL     1       7.270  12.007   0.360  1.00  0.00    -0.339 OA
HETATM   14  C   UNL     1       6.315  12.736   1.124  1.00  0.00     0.211 C 
ENDBRANCH  10  13
ENDBRANCH   4   7
ENDBRANCH   2   3
ENDBRANCH   1   2
BRANCH   1  15
HETATM   15  N   UNL     1       3.371   4.629   2.191  1.00  0.00    -0.348 N 
HETATM   16  C   UNL     1       3.866   5.389   3.228  1.00  0.00     0.252 C 
HETATM   17  O   UNL     1       3.896   6.614   3.231  1.00  0.00    -0.268 OA
HETATM   18  H   UNL     1       3.189   3.652   2.365  1.00  0.00     0.163 HD
BRANCH  16  19
HETATM   19  C   UNL     1       4.384   4.654   4.418  1.00  0.00     0.032 A 
HETATM   20  C   UNL     1       4.845   3.334   4.345  1.00  0.00     0.017 A 
HETATM   21  C   UNL     1       5.355   2.708   5.486  1.00  0.00     0.001 A 
HETATM   22  C   UNL     1       5.419   3.398   6.697  1.00  0.00     0.000 A 
HETATM   23  C   UNL     1       4.977   4.717   6.773  1.00  0.00     0.001 A 
HETATM   24  C   UNL     1       4.463   5.344   5.637  1.00  0.00     0.017 A 
ENDBRANCH  16  19
ENDBRANCH   1  15
BRANCH   1  25
HETATM   25  C   UNL     1       1.334   5.427   1.011  1.00  0.00    -0.035 A 
HETATM   26  C   UNL     1       0.481   4.912   0.018  1.00  0.00     0.009 A 
HETATM   27  C   UNL     1      -0.891   5.168   0.045  1.00  0.00     0.001 A 
HETATM   28  C   UNL     1      -1.432   5.943   1.067  1.00  0.00     0.000 A 
HETATM   29  C   UNL     1      -0.600   6.469   2.053  1.00  0.00     0.001 A 
HETATM   30  C   UNL     1       0.774   6.219   2.022  1.00  0.00     0.009 A 
ENDBRANCH   1  25
TORSDOF 7
