REMARK  5 active torsions:
REMARK  status: ('A' for Active; 'I' for Inactive)
REMARK    1  A    between atoms: C_2  and  N_3 
REMARK       I    between atoms: N_3  and  C_4 
REMARK    2  A    between atoms: C_4  and  C_5 
REMARK    3  A    between atoms: C_5  and  N_6 
REMARK    4  A    between atoms: N_6  and  C_7 
REMARK    5  A    between atoms: C_11  and  C_12 
ROOT
HETATM    1  C   UNL     1       5.674  -0.666  -1.724  1.00  0.00     0.022 A 
HETATM    2  C   UNL     1       5.422  -2.040  -2.020  1.00  0.00     0.012 A 
HETATM    3  C   UNL     1       6.174  -2.669  -3.045  1.00  0.00     0.044 A 
HETATM    4  C   UNL     1       5.989  -4.026  -3.360  1.00  0.00     0.046 A 
HETATM    5  C   UNL     1       5.041  -4.800  -2.675  1.00  0.00     0.050 A 
HETATM    6  C   UNL     1       4.278  -4.190  -1.675  1.00  0.00     0.017 A 
HETATM    7  C   UNL     1       4.462  -2.839  -1.357  1.00  0.00     0.016 A 
HETATM    8  N   UNL     1       7.076  -1.948  -3.736  1.00  0.00    -0.365 N 
HETATM    9  H   UNL     1       7.608  -2.409  -4.475  1.00  0.00     0.165 HD
HETATM   10  C   UNL     1       7.293  -0.648  -3.517  1.00  0.00     0.090 A 
HETATM   11  C   UNL     1       6.594   0.019  -2.524  1.00  0.00     0.041 A 
ENDROOT
BRANCH   1  12
HETATM   12  N   UNL     1       4.905   0.003  -0.756  1.00  0.00    -0.283 NA
HETATM   13  H   UNL     1       4.633  -0.609   0.015  1.00  0.00     0.128 HD
BRANCH  12  14
HETATM   14  C   UNL     1       5.370   1.298  -0.202  1.00  0.00     0.195 C 
BRANCH  14  15
HETATM   15  C   UNL     1       4.401   1.810   0.870  1.00  0.00     0.230 C 
HETATM   16  N   UNL     1       3.073   1.595   0.565  1.00  0.00    -0.360 N 
HETATM   17  H   UNL     1       2.859   1.068  -0.275  1.00  0.00     0.162 HD
HETATM   18  O   UNL     1       4.789   2.391   1.877  1.00  0.00    -0.272 OA
BRANCH  16  19
HETATM   19  C   UNL     1       1.997   2.025   1.433  1.00  0.00     0.118 C 
HETATM   20  C   UNL     1       1.683   0.984   2.491  1.00  0.00     0.026 C 
ENDBRANCH  16  19
ENDBRANCH  14  15
ENDBRANCH  12  14
ENDBRANCH   1  12
BRANCH   5  21
HETATM   21  C   UNL     1       4.836  -6.266  -3.001  1.00  0.00     0.417 C 
HETATM   22  F   UNL     1       5.623  -6.681  -4.030  1.00  0.00    -0.166 F 
HETATM   23  F   UNL     1       5.127  -7.071  -1.949  1.00  0.00    -0.166 F 
HETATM   24  F   UNL     1       3.557  -6.539  -3.364  1.00  0.00    -0.166 F 
ENDBRANCH   5  21
TORSDOF 5
