REMARK  7 active torsions:
REMARK  status: ('A' for Active; 'I' for Inactive)
REMARK    1  A    between atoms: C_3  and  C_4 
REMARK       I    between atoms: C_4  and  N_5 
REMARK    2  A    between atoms: N_8  and  C_9 
REMARK    3  A    between atoms: C_12  and  N_13 
REMARK    4  A    between atoms: N_13  and  C_14 
REMARK    5  A    between atoms: C_14  and  N_15 
REMARK       I    between atoms: N_15  and  C_16 
REMARK    6  A    between atoms: C_16  and  C_17 
REMARK    7  A    between atoms: C_19  and  O_20 
ROOT
HETATM    1  C   UNL     1      -3.385   2.992  -1.806  1.00  0.00     0.030 A 
HETATM    2  C   UNL     1      -4.206   1.869  -1.981  1.00  0.00     0.031 A 
HETATM    3  C   UNL     1      -5.553   1.994  -2.341  1.00  0.00     0.026 A 
HETATM    4  C   UNL     1      -6.114   3.257  -2.540  1.00  0.00     0.014 A 
HETATM    5  C   UNL     1      -5.292   4.380  -2.461  1.00  0.00     0.026 A 
HETATM    6  C   UNL     1      -3.945   4.245  -2.085  1.00  0.00     0.031 A 
ENDROOT
BRANCH   4   7
HETATM    7  N   UNL     1      -7.532   3.332  -2.709  1.00  0.00    -0.236 NA
HETATM    8  H   UNL     1      -7.951   2.493  -2.315  1.00  0.00     0.136 HD
BRANCH   7   9
HETATM    9  C   UNL     1      -8.217   4.455  -2.338  1.00  0.00     0.157 C 
HETATM   10  S   UNL     1      -8.858   4.618  -0.804  1.00  0.00    -0.047 SA
BRANCH   9  11
HETATM   11  N   UNL     1      -8.452   5.430  -3.276  1.00  0.00    -0.304 N 
HETATM   12  C   UNL     1      -8.130   5.458  -4.621  1.00  0.00     0.257 C 
HETATM   13  O   UNL     1      -7.360   6.313  -5.053  1.00  0.00    -0.267 OA
HETATM   14  H   UNL     1      -8.374   6.346  -2.851  1.00  0.00     0.171 HD
BRANCH  12  15
HETATM   15  C   UNL     1      -8.897   4.568  -5.555  1.00  0.00     0.035 A 
HETATM   16  C   UNL     1      -8.881   4.899  -6.922  1.00  0.00     0.053 A 
HETATM   17  C   UNL     1      -9.668   4.191  -7.835  1.00  0.00     0.069 A 
HETATM   18  C   UNL     1     -10.425   3.105  -7.397  1.00  0.00     0.037 A 
HETATM   19  C   UNL     1     -10.450   2.767  -6.046  1.00  0.00     0.004 A 
HETATM   20  C   UNL     1      -9.709   3.510  -5.126  1.00  0.00     0.017 A 
BRANCH  17  21
HETATM   21  O   UNL     1      -9.766   4.465  -9.172  1.00  0.00    -0.356 OA
HETATM   22  C   UNL     1      -9.576   5.830  -9.531  1.00  0.00     0.210 C 
ENDBRANCH  17  21
ENDBRANCH  12  15
ENDBRANCH   9  11
ENDBRANCH   7   9
ENDBRANCH   4   7
BRANCH   1  23
HETATM   23  N   UNL     1      -2.094   2.808  -1.306  1.00  0.00    -0.378 N 
HETATM   24  C   UNL     1      -1.476   3.908  -0.538  1.00  0.00     0.143 C 
HETATM   25  C   UNL     1      -0.282   3.370   0.268  1.00  0.00     0.146 C 
HETATM   26  N   UNL     1       0.677   2.618  -0.551  1.00  0.00    -0.345 N 
HETATM   27  C   UNL     1       1.983   2.532  -0.068  1.00  0.00     0.254 C 
HETATM   28  C   UNL     1       0.085   1.642  -1.482  1.00  0.00     0.146 C 
HETATM   29  O   UNL     1       2.408   3.192   0.877  1.00  0.00    -0.267 OA
HETATM   30  C   UNL     1      -1.145   2.177  -2.246  1.00  0.00     0.143 C 
BRANCH  27  31
HETATM   31  C   UNL     1       2.931   1.625  -0.748  1.00  0.00     0.038 A 
HETATM   32  C   UNL     1       3.028   0.262  -0.419  1.00  0.00    -0.046 A 
HETATM   33  C   UNL     1       2.156  -0.389   0.616  1.00  0.00     0.049 C 
HETATM   34  C   UNL     1       3.957  -0.524  -1.118  1.00  0.00     0.007 A 
HETATM   35  C   UNL     1       4.793   0.045  -2.083  1.00  0.00     0.001 A 
HETATM   36  C   UNL     1       4.712   1.406  -2.370  1.00  0.00     0.001 A 
HETATM   37  C   UNL     1       3.780   2.199  -1.703  1.00  0.00     0.017 A 
ENDBRANCH  27  31
ENDBRANCH   1  23
TORSDOF 7
