REMARK  2 active torsions:
REMARK  status: ('A' for Active; 'I' for Inactive)
REMARK    1  A    between atoms: C_5  and  C_7 
REMARK    2  A    between atoms: C_5  and  O_6 
ROOT
HETATM    1  C   UNL     1       1.096  -0.021  -0.055  1.00  0.00     0.050 C 
HETATM    2  C   UNL     1       2.588   0.073   0.017  1.00  0.00    -0.035 A 
HETATM    3  C   UNL     1       3.288   1.269   0.006  1.00  0.00     0.051 A 
HETATM    4  C   UNL     1       4.687   1.323   0.080  1.00  0.00     0.018 A 
HETATM    5  C   UNL     1       5.140   2.769   0.112  1.00  0.00     0.199 A 
HETATM    6  C   UNL     1       3.777   3.525  -0.052  1.00  0.00     0.266 A 
HETATM    7  O   UNL     1       3.569   4.728  -0.096  1.00  0.00    -0.269 OA
HETATM    8  N   UNL     1       2.771   2.557  -0.069  1.00  0.00    -0.323 N 
HETATM    9  C   UNL     1       5.434   0.159   0.176  1.00  0.00     0.013 A 
HETATM   10  C   UNL     1       4.757  -1.060   0.180  1.00  0.00     0.001 A 
HETATM   11  C   UNL     1       3.353  -1.102   0.102  1.00  0.00     0.009 A 
HETATM   12  H   UNL     1       1.797   2.805  -0.146  1.00  0.00     0.169 HD
ENDROOT
BRANCH   5  13
HETATM   13  C   UNL     1       6.097   2.981  -1.039  1.00  0.00     0.025 A 
HETATM   14  C   UNL     1       5.803   2.916  -2.456  1.00  0.00     0.003 A 
HETATM   15  C   UNL     1       6.981   3.197  -3.148  1.00  0.00     0.043 A 
HETATM   16  C   UNL     1       4.646   2.647  -3.222  1.00  0.00     0.014 A 
HETATM   17  C   UNL     1       7.063   3.227  -4.546  1.00  0.00     0.030 A 
HETATM   18  N   UNL     1       7.956   3.424  -2.212  1.00  0.00    -0.359 N 
HETATM   19  C   UNL     1       5.902   2.960  -5.272  1.00  0.00     0.002 A 
HETATM   20  C   UNL     1       4.708   2.673  -4.621  1.00  0.00     0.001 A 
HETATM   21  H   UNL     1       8.912   3.664  -2.436  1.00  0.00     0.166 HD
HETATM   22  C   UNL     1       7.454   3.294  -0.944  1.00  0.00     0.016 A 
HETATM   23  C   UNL     1       8.330   3.506   0.241  1.00  0.00     0.069 C 
ENDBRANCH   5  13
BRANCH   5  24
HETATM   24  O   UNL     1       5.708   3.037   1.393  1.00  0.00    -0.371 OA
HETATM   25  H   UNL     1       5.152   2.578   2.043  1.00  0.00     0.212 HD
ENDBRANCH   5  24
TORSDOF 2
