REMARK  5 active torsions:
REMARK  status: ('A' for Active; 'I' for Inactive)
REMARK    1  A    between atoms: C_6  and  C_7 
REMARK    2  A    between atoms: C_7  and  N_8 
REMARK    3  A    between atoms: C_17  and  C_18 
REMARK    4  A    between atoms: C_18  and  N_19 
REMARK    5  A    between atoms: C_22  and  C_23 
REMARK       I    between atoms: C_23  and  N_24 
ROOT
HETATM    1  N   UNL     1       7.044   0.813  -0.731  1.00  0.00    -0.061 N 
HETATM    2  H   UNL     1       7.010   1.755  -0.326  1.00  0.00     0.280 HD
HETATM    3  C   UNL     1       8.312   0.166  -0.194  1.00  0.00     0.276 C 
HETATM    4  C   UNL     1       8.367  -1.314  -0.472  1.00  0.00     0.002 A 
HETATM    5  C   UNL     1       8.486  -1.752  -1.790  1.00  0.00     0.076 A 
HETATM    6  O   UNL     1       8.584  -0.842  -2.806  1.00  0.00    -0.349 OA
HETATM    7  C   UNL     1       7.306  -0.231  -3.061  1.00  0.00     0.203 C 
HETATM    8  C   UNL     1       7.109   1.048  -2.236  1.00  0.00     0.262 C 
HETATM    9  C   UNL     1       8.141  -2.270   0.537  1.00  0.00     0.020 A 
HETATM   10  C   UNL     1       8.021  -3.642   0.230  1.00  0.00    -0.032 A 
HETATM   11  C   UNL     1       8.197  -4.044  -1.104  1.00  0.00     0.011 A 
HETATM   12  C   UNL     1       8.454  -3.105  -2.106  1.00  0.00     0.038 A 
ENDROOT
BRANCH  10  13
HETATM   13  C   UNL     1       7.537  -4.601   1.299  1.00  0.00     0.273 C 
BRANCH  13  14
HETATM   14  N   UNL     1       8.140  -5.978   1.323  1.00  0.00    -0.066 N 
HETATM   15  H   UNL     1       8.109  -6.350   0.354  1.00  0.00     0.280 HD
HETATM   16  C   UNL     1       9.609  -5.987   1.699  1.00  0.00     0.249 C 
HETATM   17  C   UNL     1      10.184  -7.401   1.582  1.00  0.00     0.103 C 
HETATM   18  C   UNL     1       9.370  -8.393   2.417  1.00  0.00     0.017 C 
HETATM   19  C   UNL     1       7.878  -8.330   2.091  1.00  0.00     0.029 C 
HETATM   20  C   UNL     1       7.324  -6.916   2.182  1.00  0.00     0.235 C 
BRANCH  17  21
HETATM   21  C   UNL     1      10.195  -7.812   0.121  1.00  0.00     0.221 C 
HETATM   22  N   UNL     1      10.986  -8.864  -0.203  1.00  0.00    -0.370 N 
HETATM   23  H   UNL     1      11.612  -9.332   0.442  1.00  0.00     0.159 HD
HETATM   24  H   UNL     1      11.013  -9.180  -1.168  1.00  0.00     0.159 HD
HETATM   25  O   UNL     1       9.459  -7.267  -0.700  1.00  0.00    -0.273 OA
ENDBRANCH  17  21
ENDBRANCH  13  14
ENDBRANCH  10  13
BRANCH   1  26
HETATM   26  C   UNL     1       5.812   0.103  -0.226  1.00  0.00     0.274 C 
BRANCH  26  27
HETATM   27  C   UNL     1       4.480   0.722  -0.536  1.00  0.00    -0.026 A 
HETATM   28  C   UNL     1       3.644   0.047  -1.450  1.00  0.00     0.016 A 
HETATM   29  C   UNL     1       2.332   0.465  -1.703  1.00  0.00    -0.056 A 
HETATM   30  C   UNL     1       1.832   1.579  -1.012  1.00  0.00    -0.056 A 
HETATM   31  C   UNL     1       1.472  -0.344  -2.637  1.00  0.00     0.049 C 
HETATM   32  C   UNL     1       0.408   2.039  -1.187  1.00  0.00     0.049 C 
HETATM   33  C   UNL     1       2.679   2.286  -0.144  1.00  0.00     0.014 A 
HETATM   34  C   UNL     1       3.995   1.868   0.117  1.00  0.00    -0.053 A 
HETATM   35  C   UNL     1       4.815   2.672   1.089  1.00  0.00     0.049 C 
ENDBRANCH  26  27
ENDBRANCH   1  26
TORSDOF 5
