REMARK  5 active torsions:
REMARK  status: ('A' for Active; 'I' for Inactive)
REMARK    1  A    between atoms: C_7  and  O_8 
REMARK    2  A    between atoms: O_8  and  C_9 
REMARK    3  A    between atoms: C_12  and  N_13 
REMARK    4  A    between atoms: N_13  and  C_16 
REMARK    5  A    between atoms: C_16  and  C_17 
ROOT
HETATM    1  C   UNL     1       4.510   3.263   0.851  1.00  0.00     0.028 A 
HETATM    2  C   UNL     1       5.814   2.778   0.816  1.00  0.00     0.062 A 
HETATM    3  C   UNL     1       6.935   3.636   1.032  1.00  0.00     0.101 C 
HETATM    4  N   UNL     1       7.860   4.313   1.206  1.00  0.00    -0.191 NA
HETATM    5  C   UNL     1       6.001   1.423   0.565  1.00  0.00     0.142 A 
HETATM    6  N   UNL     1       4.995   0.532   0.352  1.00  0.00    -0.236 NA
HETATM    7  C   UNL     1       3.742   1.041   0.395  1.00  0.00     0.164 A 
HETATM    8  C   UNL     1       3.456   2.379   0.636  1.00  0.00     0.059 A 
ENDROOT
BRANCH   7   9
HETATM    9  O   UNL     1       2.647   0.235   0.199  1.00  0.00    -0.329 OA
BRANCH   9  10
HETATM   10  C   UNL     1       2.813  -1.159  -0.040  1.00  0.00     0.130 C 
HETATM   11  C   UNL     1       3.402  -1.931   1.149  1.00  0.00     0.034 C 
HETATM   12  C   UNL     1       3.439  -3.433   0.870  1.00  0.00     0.035 C 
HETATM   13  C   UNL     1       4.119  -3.788  -0.457  1.00  0.00     0.186 C 
HETATM   14  C   UNL     1       3.526  -2.993  -1.627  1.00  0.00     0.035 C 
HETATM   15  C   UNL     1       3.493  -1.485  -1.376  1.00  0.00     0.034 C 
BRANCH  13  16
HETATM   16  N   UNL     1       5.595  -3.524  -0.393  1.00  0.00    -0.067 N 
HETATM   17  H   UNL     1       5.989  -3.621  -1.339  1.00  0.00     0.278 HD
HETATM   18  H   UNL     1       5.794  -2.548  -0.126  1.00  0.00     0.278 HD
BRANCH  16  19
HETATM   19  C   UNL     1       6.381  -4.430   0.504  1.00  0.00     0.278 C 
BRANCH  19  20
HETATM   20  C   UNL     1       7.827  -4.462   0.130  1.00  0.00     0.009 A 
HETATM   21  S   UNL     1       8.792  -3.055   0.295  1.00  0.00    -0.103 SA
HETATM   22  C   UNL     1      10.190  -3.863  -0.274  1.00  0.00     0.072 A 
HETATM   23  C   UNL     1       9.934  -5.180  -0.588  1.00  0.00     0.052 A 
HETATM   24  C   UNL     1      10.935  -6.078  -1.085  1.00  0.00     0.100 C 
HETATM   25  C   UNL     1       8.566  -5.525  -0.357  1.00  0.00     0.039 A 
HETATM   26  N   UNL     1      11.727  -6.817  -1.497  1.00  0.00    -0.191 NA
ENDBRANCH  19  20
ENDBRANCH  16  19
ENDBRANCH  13  16
ENDBRANCH   9  10
ENDBRANCH   7   9
TORSDOF 5
