REMARK  7 active torsions:
REMARK  status: ('A' for Active; 'I' for Inactive)
REMARK    1  A    between atoms: N_7  and  C_8 
REMARK    2  A    between atoms: C_8  and  C_9 
REMARK       I    between atoms: C_9  and  N_10 
REMARK    3  A    between atoms: N_10  and  C_11 
REMARK    4  A    between atoms: C_11  and  C_12 
REMARK    5  A    between atoms: C_12  and  C_13 
REMARK    6  A    between atoms: C_12  and  C_23 
REMARK    7  A    between atoms: C_26  and  O_27 
ROOT
HETATM    1  C   UNL     1      -0.437   4.535  -3.843  1.00  0.00     0.136 C 
ENDROOT
BRANCH   1   2
HETATM    2  N   UNL     1      -1.204   4.488  -5.081  1.00  0.00    -0.359 N 
HETATM    3  C   UNL     1      -2.531   4.895  -5.011  1.00  0.00     0.236 C 
HETATM    4  O   UNL     1      -3.120   5.030  -3.938  1.00  0.00    -0.272 OA
HETATM    5  H   UNL     1      -0.718   4.702  -5.946  1.00  0.00     0.162 HD
BRANCH   3   6
HETATM    6  C   UNL     1      -3.152   5.391  -6.310  1.00  0.00     0.239 C 
BRANCH   6   7
HETATM    7  N   UNL     1      -3.108   4.467  -7.421  1.00  0.00    -0.259 N 
HETATM    8  C   UNL     1      -4.197   3.793  -7.877  1.00  0.00     0.326 C 
HETATM    9  N   UNL     1      -3.861   3.170  -9.054  1.00  0.00    -0.324 N 
HETATM   10  O   UNL     1      -5.313   3.755  -7.390  1.00  0.00    -0.247 OA
HETATM   11  C   UNL     1      -2.572   3.607  -9.567  1.00  0.00     0.119 C 
HETATM   12  H   UNL     1      -4.590   2.726  -9.599  1.00  0.00     0.165 HD
HETATM   13  C   UNL     1      -1.734   2.396 -10.024  1.00  0.00     0.019 C 
HETATM   14  C   UNL     1      -2.072   4.351  -8.302  1.00  0.00     0.257 C 
HETATM   15  C   UNL     1      -2.771   4.654 -10.680  1.00  0.00     0.041 C 
HETATM   16  C   UNL     1      -0.246   2.710 -10.218  1.00  0.00     0.013 C 
HETATM   17  C   UNL     1      -2.322   1.808 -11.327  1.00  0.00     0.007 C 
HETATM   18  C   UNL     1      -2.495   2.851 -12.432  1.00  0.00     0.001 C 
HETATM   19  C   UNL     1      -3.323   4.043 -11.966  1.00  0.00     0.003 C 
HETATM   20  O   UNL     1      -0.969   4.863  -8.151  1.00  0.00    -0.270 OA
ENDBRANCH   6   7
ENDBRANCH   3   6
ENDBRANCH   1   2
BRANCH   1  21
HETATM   21  C   UNL     1       0.982   3.941  -3.786  1.00  0.00     0.071 C 
BRANCH  21  22
HETATM   22  C   UNL     1       2.040   4.544  -4.681  1.00  0.00    -0.020 A 
HETATM   23  C   UNL     1       3.364   4.930  -4.249  1.00  0.00    -0.001 A 
HETATM   24  C   UNL     1       4.032   5.471  -5.347  1.00  0.00     0.042 A 
HETATM   25  C   UNL     1       4.054   4.867  -3.019  1.00  0.00     0.014 A 
HETATM   26  C   UNL     1       5.344   5.957  -5.278  1.00  0.00     0.030 A 
HETATM   27  N   UNL     1       3.170   5.408  -6.412  1.00  0.00    -0.365 N 
HETATM   28  C   UNL     1       6.000   5.883  -4.046  1.00  0.00     0.002 A 
HETATM   29  C   UNL     1       5.367   5.344  -2.931  1.00  0.00     0.001 A 
HETATM   30  H   UNL     1       3.390   5.724  -7.347  1.00  0.00     0.165 HD
HETATM   31  C   UNL     1       1.980   4.846  -6.030  1.00  0.00     0.097 A 
ENDBRANCH  21  22
BRANCH  21  32
HETATM   32  C   UNL     1       1.082   2.431  -3.900  1.00  0.00    -0.048 A 
HETATM   33  C   UNL     1       1.470   1.690  -2.770  1.00  0.00     0.011 A 
HETATM   34  C   UNL     1       1.561   0.299  -2.817  1.00  0.00     0.037 A 
HETATM   35  C   UNL     1       1.266  -0.391  -3.991  1.00  0.00     0.068 A 
HETATM   36  C   UNL     1       0.883   0.329  -5.123  1.00  0.00     0.037 A 
HETATM   37  C   UNL     1       0.784   1.728  -5.075  1.00  0.00     0.011 A 
BRANCH  35  38
HETATM   38  O   UNL     1       1.395  -1.749  -3.898  1.00  0.00    -0.356 OA
HETATM   39  C   UNL     1       0.993  -2.510  -5.028  1.00  0.00     0.210 C 
ENDBRANCH  35  38
ENDBRANCH  21  32
ENDBRANCH   1  21
TORSDOF 7
