REMARK  9 active torsions:
REMARK  status: ('A' for Active; 'I' for Inactive)
REMARK    1  A    between atoms: C_3  and  O_4 
REMARK    2  A    between atoms: O_4  and  C_5 
REMARK    3  A    between atoms: C_5  and  C_6 
REMARK    4  A    between atoms: N_7  and  C_8 
REMARK    5  A    between atoms: C_8  and  C_9 
REMARK    6  A    between atoms: C_9  and  C_10 
REMARK    7  A    between atoms: C_16  and  S_17 
REMARK    8  A    between atoms: S_17  and  C_18 
REMARK    9  A    between atoms: C_18  and  C_19 
REMARK       I    between atoms: C_19  and  N_20 
ROOT
HETATM    1  C   UNL     1       2.404   4.685  -0.009  1.00  0.00     0.155 A 
HETATM    2  N   UNL     1       1.102   4.750  -0.470  1.00  0.00    -0.309 N 
HETATM    3  C   UNL     1       0.711   6.044  -0.225  1.00  0.00     0.192 A 
HETATM    4  N   UNL     1       1.675   6.698   0.378  1.00  0.00    -0.123 NA
HETATM    5  N   UNL     1       2.737   5.854   0.507  1.00  0.00    -0.132 NA
ENDROOT
BRANCH   1   6
HETATM    6  C   UNL     1       3.294   3.490  -0.008  1.00  0.00     0.256 C 
BRANCH   6   7
HETATM    7  O   UNL     1       3.310   2.953  -1.328  1.00  0.00    -0.343 OA
BRANCH   7   8
HETATM    8  C   UNL     1       4.311   2.048  -1.573  1.00  0.00     0.075 A 
HETATM    9  C   UNL     1       4.787   1.980  -2.893  1.00  0.00    -0.029 A 
HETATM   10  C   UNL     1       4.253   2.893  -3.961  1.00  0.00     0.051 C 
HETATM   11  C   UNL     1       5.829   1.092  -3.200  1.00  0.00     0.009 A 
HETATM   12  C   UNL     1       6.365   0.258  -2.219  1.00  0.00     0.001 A 
HETATM   13  C   UNL     1       5.864   0.303  -0.921  1.00  0.00     0.003 A 
HETATM   14  C   UNL     1       4.837   1.191  -0.598  1.00  0.00     0.037 A 
ENDBRANCH   7   8
ENDBRANCH   6   7
ENDBRANCH   1   6
BRANCH   2  15
HETATM   15  C   UNL     1       0.320   3.680  -1.073  1.00  0.00     0.137 C 
BRANCH  15  16
HETATM   16  C   UNL     1       0.109   2.482  -0.136  1.00  0.00     0.059 C 
BRANCH  16  17
HETATM   17  C   UNL     1      -0.985   1.517  -0.527  1.00  0.00    -0.057 A 
HETATM   18  C   UNL     1      -2.301   1.945  -0.744  1.00  0.00     0.007 A 
HETATM   19  C   UNL     1      -3.315   1.024  -1.014  1.00  0.00     0.001 A 
HETATM   20  C   UNL     1      -3.032  -0.340  -1.058  1.00  0.00     0.000 A 
HETATM   21  C   UNL     1      -1.731  -0.783  -0.839  1.00  0.00     0.001 A 
HETATM   22  C   UNL     1      -0.714   0.138  -0.576  1.00  0.00     0.007 A 
ENDBRANCH  16  17
ENDBRANCH  15  16
ENDBRANCH   2  15
BRANCH   3  23
HETATM   23  S   UNL     1      -0.825   6.721  -0.637  1.00  0.00    -0.081 SA
BRANCH  23  24
HETATM   24  C   UNL     1      -0.740   8.329   0.208  1.00  0.00     0.185 C 
BRANCH  24  25
HETATM   25  C   UNL     1       0.054   9.344  -0.598  1.00  0.00     0.226 C 
HETATM   26  N   UNL     1       1.390   9.428  -0.262  1.00  0.00    -0.365 N 
HETATM   27  C   UNL     1       2.279  10.310  -0.974  1.00  0.00     0.149 C 
HETATM   28  H   UNL     1       1.800   8.602   0.175  1.00  0.00     0.161 HD
HETATM   29  O   UNL     1      -0.469  10.053  -1.456  1.00  0.00    -0.273 OA
ENDBRANCH  24  25
ENDBRANCH  23  24
ENDBRANCH   3  23
TORSDOF 9
