REMARK  2 active torsions:
REMARK  status: ('A' for Active; 'I' for Inactive)
REMARK    1  A    between atoms: C_7  and  C_8 
REMARK    2  A    between atoms: C_8  and  O_9 
ROOT
HETATM    1  C   UNL     1       3.140  -2.545  -0.236  1.00  0.00     0.199 A 
HETATM    2  C   UNL     1       4.228  -3.535  -0.793  1.00  0.00     0.266 A 
HETATM    3  O   UNL     1       4.957  -3.406  -1.765  1.00  0.00    -0.269 OA
HETATM    4  N   UNL     1       4.277  -4.625   0.080  1.00  0.00    -0.323 N 
HETATM    5  C   UNL     1       3.348  -4.502   1.101  1.00  0.00     0.045 A 
HETATM    6  C   UNL     1       2.629  -3.311   0.967  1.00  0.00     0.017 A 
HETATM    7  C   UNL     1       3.121  -5.394   2.127  1.00  0.00     0.030 A 
HETATM    8  C   UNL     1       2.134  -5.064   3.059  1.00  0.00     0.002 A 
HETATM    9  C   UNL     1       1.408  -3.864   2.945  1.00  0.00     0.001 A 
HETATM   10  C   UNL     1       1.656  -2.973   1.896  1.00  0.00     0.013 A 
HETATM   11  H   UNL     1       4.912  -5.398  -0.055  1.00  0.00     0.169 HD
ENDROOT
BRANCH   1  12
HETATM   12  C   UNL     1       1.980  -2.351  -1.193  1.00  0.00     0.025 A 
HETATM   13  C   UNL     1       1.154  -3.328  -1.760  1.00  0.00     0.016 A 
HETATM   14  C   UNL     1       1.123  -4.810  -1.621  1.00  0.00     0.069 C 
HETATM   15  N   UNL     1       0.247  -2.700  -2.575  1.00  0.00    -0.359 N 
HETATM   16  H   UNL     1      -0.469  -3.166  -3.115  1.00  0.00     0.166 HD
HETATM   17  C   UNL     1       0.449  -1.346  -2.584  1.00  0.00     0.043 A 
HETATM   18  C   UNL     1       1.525  -1.088  -1.735  1.00  0.00     0.003 A 
HETATM   19  C   UNL     1      -0.235  -0.345  -3.285  1.00  0.00     0.030 A 
HETATM   20  C   UNL     1       1.929   0.259  -1.591  1.00  0.00     0.014 A 
HETATM   21  C   UNL     1       1.259   1.275  -2.283  1.00  0.00     0.001 A 
HETATM   22  C   UNL     1       0.190   0.974  -3.120  1.00  0.00     0.002 A 
ENDBRANCH   1  12
BRANCH   1  23
HETATM   23  O   UNL     1       3.735  -1.337   0.227  1.00  0.00    -0.371 OA
HETATM   24  H   UNL     1       4.224  -1.559   1.036  1.00  0.00     0.212 HD
ENDBRANCH   1  23
TORSDOF 2
