REMARK  8 active torsions:
REMARK  status: ('A' for Active; 'I' for Inactive)
REMARK    1  A    between atoms: C_3  and  O_4 
REMARK    2  A    between atoms: C_11  and  C_12 
REMARK    3  A    between atoms: C_12  and  C_13 
REMARK    4  A    between atoms: C_13  and  S_14 
REMARK    5  A    between atoms: S_14  and  C_15 
REMARK    6  A    between atoms: N_16  and  C_17 
REMARK    7  A    between atoms: C_18  and  O_19 
REMARK    8  A    between atoms: C_25  and  N_26 
ROOT
HETATM    1  C   UNL     1      -0.792  -5.162   0.354  1.00  0.00     0.197 A 
HETATM    2  N   UNL     1      -1.134  -6.490   0.161  1.00  0.00    -0.259 N 
HETATM    3  C   UNL     1      -2.534  -6.463   0.075  1.00  0.00     0.211 A 
HETATM    4  N   UNL     1      -2.944  -5.212   0.192  1.00  0.00    -0.116 NA
HETATM    5  N   UNL     1      -1.860  -4.399   0.341  1.00  0.00    -0.121 NA
ENDROOT
BRANCH   1   6
HETATM    6  S   UNL     1       0.796  -4.585   0.769  1.00  0.00    -0.082 SA
BRANCH   6   7
HETATM    7  C   UNL     1       0.354  -2.923   1.354  1.00  0.00     0.166 C 
BRANCH   7   8
HETATM    8  C   UNL     1       1.545  -2.166   1.909  1.00  0.00     0.169 C 
HETATM    9  O   UNL     1       2.566  -2.708   2.331  1.00  0.00    -0.291 OA
BRANCH   8  10
HETATM   10  C   UNL     1       1.448  -0.673   1.973  1.00  0.00     0.011 A 
HETATM   11  C   UNL     1       0.234   0.002   1.796  1.00  0.00     0.017 A 
HETATM   12  C   UNL     1       0.171   1.400   1.821  1.00  0.00     0.031 A 
HETATM   13  C   UNL     1       1.362   2.098   2.040  1.00  0.00     0.045 A 
HETATM   14  N   UNL     1       1.598   3.450   2.105  1.00  0.00    -0.336 N 
HETATM   15  C   UNL     1       2.586   1.465   2.244  1.00  0.00     0.002 A 
HETATM   16  C   UNL     1       2.919   3.696   2.350  1.00  0.00     0.147 A 
HETATM   17  H   UNL     1       0.902   4.172   1.991  1.00  0.00     0.168 HD
HETATM   18  C   UNL     1       3.575   2.484   2.447  1.00  0.00     0.001 A 
HETATM   19  C   UNL     1       5.018   2.251   2.717  1.00  0.00     0.054 C 
HETATM   20  C   UNL     1       2.626   0.055   2.214  1.00  0.00     0.029 A 
BRANCH  16  21
HETATM   21  O   UNL     1       3.330   4.953   2.449  1.00  0.00    -0.346 OA
HETATM   22  H   UNL     1       4.287   4.934   2.626  1.00  0.00     0.219 HD
ENDBRANCH  16  21
ENDBRANCH   8  10
ENDBRANCH   7   8
ENDBRANCH   6   7
ENDBRANCH   1   6
BRANCH   2  23
HETATM   23  C   UNL     1      -0.254  -7.600   0.053  1.00  0.00     0.077 A 
HETATM   24  C   UNL     1      -0.451  -8.765   0.812  1.00  0.00     0.095 A 
HETATM   25  C   UNL     1       0.417  -9.846   0.617  1.00  0.00     0.039 A 
HETATM   26  C   UNL     1       1.464  -9.767  -0.307  1.00  0.00     0.003 A 
HETATM   27  C   UNL     1       1.665  -8.603  -1.041  1.00  0.00     0.002 A 
HETATM   28  C   UNL     1       0.811  -7.517  -0.862  1.00  0.00     0.033 A 
BRANCH  24  29
HETATM   29  O   UNL     1      -1.429  -8.736   1.768  1.00  0.00    -0.354 OA
HETATM   30  C   UNL     1      -1.765  -9.959   2.406  1.00  0.00     0.210 C 
ENDBRANCH  24  29
ENDBRANCH   2  23
BRANCH   3  31
HETATM   31  N   UNL     1      -3.344  -7.556  -0.118  1.00  0.00    -0.251 NA
HETATM   32  C   UNL     1      -3.192  -8.293  -1.381  1.00  0.00     0.098 C 
HETATM   33  C   UNL     1      -3.881  -9.653  -1.266  1.00  0.00     0.015 C 
HETATM   34  C   UNL     1      -5.348  -9.500  -0.872  1.00  0.00     0.002 C 
HETATM   35  C   UNL     1      -5.482  -8.658   0.392  1.00  0.00     0.015 C 
HETATM   36  C   UNL     1      -4.754  -7.323   0.246  1.00  0.00     0.098 C 
ENDBRANCH   3  31
TORSDOF 8
