REMARK  8 active torsions:
REMARK  status: ('A' for Active; 'I' for Inactive)
REMARK    1  A    between atoms: C_2  and  N_3 
REMARK       I    between atoms: N_3  and  C_4 
REMARK       I    between atoms: C_4  and  N_5 
REMARK       I    between atoms: N_5  and  C_6 
REMARK    2  A    between atoms: C_6  and  C_7 
REMARK    3  A    between atoms: C_7  and  S_8 
REMARK    4  A    between atoms: C_7  and  C_29 
REMARK    5  A    between atoms: S_8  and  C_9 
REMARK    6  A    between atoms: N_10  and  C_11 
REMARK    7  A    between atoms: C_18  and  C_19 
REMARK    8  A    between atoms: C_19  and  N_20 
ROOT
HETATM    1  C   UNL     1       3.723  -2.079   3.757  1.00  0.00     0.197 A 
HETATM    2  N   UNL     1       4.820  -1.903   4.582  1.00  0.00    -0.274 N 
HETATM    3  C   UNL     1       5.253  -3.200   4.832  1.00  0.00     0.161 A 
HETATM    4  N   UNL     1       4.494  -4.059   4.178  1.00  0.00    -0.132 NA
HETATM    5  N   UNL     1       3.552  -3.355   3.497  1.00  0.00    -0.122 NA
ENDROOT
BRANCH   1   6
HETATM    6  S   UNL     1       2.855  -0.827   2.937  1.00  0.00    -0.070 SA
BRANCH   6   7
HETATM    7  C   UNL     1       1.102  -1.318   3.165  1.00  0.00     0.180 C 
BRANCH   7   8
HETATM    8  C   UNL     1       0.577  -2.310   2.114  1.00  0.00     0.244 C 
HETATM    9  N   UNL     1       1.460  -3.265   1.648  1.00  0.00    -0.278 N 
HETATM   10  C   UNL     1       1.407  -3.943   0.460  1.00  0.00     0.322 C 
HETATM   11  H   UNL     1       2.402  -3.264   2.017  1.00  0.00     0.173 HD
HETATM   12  N   UNL     1       0.197  -3.982  -0.157  1.00  0.00    -0.343 N 
HETATM   13  O   UNL     1       2.434  -4.438   0.002  1.00  0.00    -0.247 OA
HETATM   14  H   UNL     1      -0.591  -3.557   0.328  1.00  0.00     0.164 HD
HETATM   15  O   UNL     1      -0.615  -2.311   1.792  1.00  0.00    -0.271 OA
BRANCH  12  16
HETATM   16  C   UNL     1      -0.020  -4.611  -1.441  1.00  0.00     0.120 C 
HETATM   17  C   UNL     1      -0.068  -6.125  -1.341  1.00  0.00     0.026 C 
ENDBRANCH  12  16
ENDBRANCH   7   8
BRANCH   7  18
HETATM   18  C   UNL     1       0.764  -1.650   4.611  1.00  0.00    -0.035 A 
HETATM   19  C   UNL     1       0.535  -0.600   5.520  1.00  0.00     0.009 A 
HETATM   20  C   UNL     1       0.257  -0.860   6.862  1.00  0.00     0.001 A 
HETATM   21  C   UNL     1       0.200  -2.174   7.318  1.00  0.00     0.000 A 
HETATM   22  C   UNL     1       0.421  -3.226   6.433  1.00  0.00     0.001 A 
HETATM   23  C   UNL     1       0.702  -2.968   5.089  1.00  0.00     0.009 A 
ENDBRANCH   7  18
ENDBRANCH   6   7
ENDBRANCH   1   6
BRANCH   2  24
HETATM   24  C   UNL     1       5.377  -0.702   5.085  1.00  0.00     0.043 A 
HETATM   25  C   UNL     1       4.543   0.291   5.616  1.00  0.00     0.033 A 
HETATM   26  C   UNL     1       5.099   1.470   6.117  1.00  0.00     0.044 A 
HETATM   27  C   UNL     1       6.476   1.654   6.077  1.00  0.00     0.116 A 
HETATM   28  F   UNL     1       7.006   2.785   6.556  1.00  0.00    -0.206 F 
HETATM   29  C   UNL     1       7.312   0.681   5.542  1.00  0.00     0.044 A 
HETATM   30  C   UNL     1       6.766  -0.503   5.041  1.00  0.00     0.033 A 
ENDBRANCH   2  24
BRANCH   3  31
HETATM   31  C   UNL     1       6.284  -3.627   5.815  1.00  0.00     0.315 C 
BRANCH  31  32
HETATM   32  N   UNL     1       6.711  -5.071   5.563  1.00  0.00    -0.064 N 
HETATM   33  H   UNL     1       5.836  -5.550   5.285  1.00  0.00     0.280 HD
HETATM   34  C   UNL     1       7.650  -5.191   4.384  1.00  0.00     0.235 C 
HETATM   35  C   UNL     1       7.916  -6.659   4.088  1.00  0.00     0.028 C 
HETATM   36  C   UNL     1       8.447  -7.390   5.315  1.00  0.00     0.003 C 
HETATM   37  C   UNL     1       7.511  -7.214   6.506  1.00  0.00     0.028 C 
HETATM   38  C   UNL     1       7.238  -5.746   6.799  1.00  0.00     0.235 C 
ENDBRANCH  31  32
ENDBRANCH   3  31
TORSDOF 8
