REMARK  8 active torsions:
REMARK  status: ('A' for Active; 'I' for Inactive)
REMARK    1  A    between atoms: C_4  and  C_5 
REMARK    2  A    between atoms: C_5  and  N_6 
REMARK    3  A    between atoms: C_5  and  C_31 
REMARK       I    between atoms: N_6  and  C_7 
REMARK    4  A    between atoms: N_6  and  C_21 
REMARK    5  A    between atoms: C_7  and  C_8 
REMARK    6  A    between atoms: C_11  and  C_12 
REMARK    7  A    between atoms: C_21  and  C_22 
REMARK       I    between atoms: C_31  and  N_32 
REMARK    8  A    between atoms: N_32  and  C_33 
ROOT
HETATM    1  N   UNL     1       5.639   2.424   1.531  1.00  0.00    -0.323 N 
HETATM    2  C   UNL     1       6.571   2.286   2.561  1.00  0.00     0.271 C 
HETATM    3  O   UNL     1       7.393   1.369   2.550  1.00  0.00    -0.266 OA
ENDROOT
BRANCH   1   4
HETATM    4  C   UNL     1       5.655   1.383   0.482  1.00  0.00     0.237 C 
BRANCH   4   5
HETATM    5  C   UNL     1       5.882   2.013  -0.866  1.00  0.00     0.085 A 
HETATM    6  O   UNL     1       4.823   2.192  -1.713  1.00  0.00    -0.317 OA
HETATM    7  C   UNL     1       5.303   2.758  -2.855  1.00  0.00     0.049 A 
HETATM    8  C   UNL     1       4.323   2.997  -3.933  1.00  0.00     0.076 C 
HETATM    9  C   UNL     1       6.656   2.987  -2.737  1.00  0.00     0.035 A 
HETATM   10  C   UNL     1       7.029   2.510  -1.458  1.00  0.00     0.038 A 
ENDBRANCH   4   5
BRANCH   4  11
HETATM   11  C   UNL     1       4.478   0.380   0.631  1.00  0.00     0.247 C 
HETATM   12  N   UNL     1       3.528   0.344  -0.360  1.00  0.00    -0.354 N 
HETATM   13  H   UNL     1       3.667   0.985  -1.136  1.00  0.00     0.162 HD
HETATM   14  O   UNL     1       4.392  -0.317   1.644  1.00  0.00    -0.271 OA
BRANCH  12  15
HETATM   15  C   UNL     1       2.335  -0.496  -0.433  1.00  0.00     0.084 C 
HETATM   16  C   UNL     1       2.634  -1.998  -0.554  1.00  0.00     0.025 C 
HETATM   17  C   UNL     1       2.650  -2.768   0.764  1.00  0.00     0.002 C 
HETATM   18  C   UNL     1       1.437  -2.450   1.628  1.00  0.00     0.000 C 
HETATM   19  C   UNL     1       1.315  -0.956   1.895  1.00  0.00     0.002 C 
HETATM   20  C   UNL     1       1.259  -0.146   0.603  1.00  0.00     0.025 C 
ENDBRANCH  12  15
ENDBRANCH   4  11
ENDBRANCH   1   4
BRANCH   1  21
HETATM   21  C   UNL     1       4.549   3.403   1.495  1.00  0.00     0.166 C 
BRANCH  21  22
HETATM   22  C   UNL     1       3.324   3.141   2.347  1.00  0.00    -0.037 A 
HETATM   23  C   UNL     1       2.196   3.959   2.128  1.00  0.00     0.048 A 
HETATM   24  C   UNL     1       1.076   3.770   2.910  1.00  0.00     0.105 A 
HETATM   25  C   UNL     1       1.036   2.818   3.897  1.00  0.00     0.105 A 
HETATM   26  O   UNL     1      -0.085   4.472   2.816  1.00  0.00    -0.323 OA
HETATM   27  O   UNL     1      -0.156   2.795   4.550  1.00  0.00    -0.323 OA
HETATM   28  C   UNL     1       2.113   2.001   4.152  1.00  0.00     0.040 A 
HETATM   29  C   UNL     1      -0.859   3.850   3.864  1.00  0.00     0.352 A 
HETATM   30  C   UNL     1       3.262   2.166   3.367  1.00  0.00     0.012 A 
ENDBRANCH  21  22
ENDBRANCH   1  21
BRANCH   2  31
HETATM   31  C   UNL     1       6.536   3.168   3.710  1.00  0.00     0.101 A 
HETATM   32  N   UNL     1       6.730   2.652   4.975  1.00  0.00    -0.351 N 
HETATM   33  H   UNL     1       6.921   1.673   5.149  1.00  0.00     0.166 HD
HETATM   34  C   UNL     1       6.607   3.621   5.943  1.00  0.00     0.043 A 
HETATM   35  C   UNL     1       6.451   4.816   5.264  1.00  0.00     0.033 A 
HETATM   36  C   UNL     1       6.426   4.537   3.872  1.00  0.00     0.037 A 
BRANCH  34  37
HETATM   37  C   UNL     1       6.694   3.326   7.375  1.00  0.00    -0.009 A 
HETATM   38  C   UNL     1       7.225   4.268   8.266  1.00  0.00     0.013 A 
HETATM   39  C   UNL     1       7.315   3.988   9.633  1.00  0.00     0.001 A 
HETATM   40  C   UNL     1       6.871   2.763  10.126  1.00  0.00     0.000 A 
HETATM   41  C   UNL     1       6.334   1.819   9.255  1.00  0.00     0.001 A 
HETATM   42  C   UNL     1       6.244   2.099   7.889  1.00  0.00     0.013 A 
ENDBRANCH  34  37
ENDBRANCH   2  31
TORSDOF 8
