REMARK  6 active torsions:
REMARK  status: ('A' for Active; 'I' for Inactive)
REMARK    1  A    between atoms: C_6  and  N_7 
REMARK       I    between atoms: N_7  and  C_8 
REMARK    2  A    between atoms: C_8  and  C_9 
REMARK    3  A    between atoms: C_11  and  N_12 
REMARK    4  A    between atoms: N_12  and  N_13 
REMARK       I    between atoms: N_13  and  C_14 
REMARK    5  A    between atoms: C_14  and  C_15 
REMARK    6  A    between atoms: C_16  and  C_17 
ROOT
HETATM    1  C   UNL     1       6.852   2.801  -0.349  1.00  0.00     0.151 A 
HETATM    2  N   UNL     1       5.727   2.712   0.431  1.00  0.00    -0.210 NA
HETATM    3  C   UNL     1       5.077   3.849   0.697  1.00  0.00     0.220 A 
HETATM    4  N   UNL     1       5.456   5.050   0.222  1.00  0.00    -0.228 NA
HETATM    5  C   UNL     1       6.563   5.088  -0.551  1.00  0.00     0.146 A 
HETATM    6  C   UNL     1       7.321   3.987  -0.878  1.00  0.00     0.086 A 
HETATM    7 CL   UNL     1       8.701   4.214  -1.870  1.00  0.00    -0.080 Cl
ENDROOT
BRANCH   3   8
HETATM    8  N   UNL     1       3.954   3.777   1.532  1.00  0.00    -0.169 NA
HETATM    9  H   UNL     1       3.545   2.842   1.484  1.00  0.00     0.156 HD
BRANCH   8  10
HETATM   10  N   UNL     1       3.027   4.810   1.304  1.00  0.00    -0.281 N 
HETATM   11  C   UNL     1       1.697   4.474   1.208  1.00  0.00     0.255 C 
HETATM   12  O   UNL     1       1.268   3.337   1.369  1.00  0.00    -0.267 OA
HETATM   13  H   UNL     1       3.423   5.720   1.081  1.00  0.00     0.184 HD
BRANCH  11  14
HETATM   14  C   UNL     1       0.833   5.635   0.874  1.00  0.00     0.076 C 
HETATM   15  C   UNL     1      -0.502   5.512   0.937  1.00  0.00     0.017 C 
BRANCH  15  16
HETATM   16  C   UNL     1      -1.478   6.568   0.618  1.00  0.00    -0.036 A 
HETATM   17  C   UNL     1      -2.810   6.193   0.382  1.00  0.00     0.013 A 
HETATM   18  C   UNL     1      -3.787   7.151   0.090  1.00  0.00     0.024 A 
HETATM   19  C   UNL     1      -3.439   8.497   0.037  1.00  0.00     0.034 A 
HETATM   20 CL   UNL     1      -4.636   9.678  -0.326  1.00  0.00    -0.084 Cl
HETATM   21  C   UNL     1      -2.127   8.892   0.280  1.00  0.00     0.024 A 
HETATM   22  C   UNL     1      -1.152   7.932   0.576  1.00  0.00     0.013 A 
ENDBRANCH  15  16
ENDBRANCH  11  14
ENDBRANCH   8  10
ENDBRANCH   3   8
BRANCH   1  23
HETATM   23  C   UNL     1       7.541   1.476  -0.564  1.00  0.00     0.276 C 
HETATM   24  N   UNL     1       6.880   0.419   0.043  1.00  0.00    -0.322 N 
HETATM   25  H   UNL     1       6.027   0.678   0.531  1.00  0.00     0.169 HD
HETATM   26  O   UNL     1       8.574   1.396  -1.213  1.00  0.00    -0.266 OA
BRANCH  24  27
HETATM   27  C   UNL     1       7.245  -0.941   0.065  1.00  0.00     0.035 A 
HETATM   28  C   UNL     1       8.407  -1.448  -0.518  1.00  0.00     0.037 A 
HETATM   29  C   UNL     1       8.721  -2.819  -0.453  1.00  0.00    -0.054 A 
HETATM   30  C   UNL     1       7.831  -3.704   0.184  1.00  0.00    -0.056 A 
HETATM   31  C   UNL     1       9.986  -3.306  -1.109  1.00  0.00     0.049 C 
HETATM   32  C   UNL     1       8.111  -5.179   0.270  1.00  0.00     0.049 C 
HETATM   33  C   UNL     1       6.672  -3.189   0.778  1.00  0.00     0.009 A 
HETATM   34  C   UNL     1       6.383  -1.823   0.720  1.00  0.00     0.030 A 
ENDBRANCH  24  27
ENDBRANCH   1  23
TORSDOF 6
