REMARK  7 active torsions:
REMARK  status: ('A' for Active; 'I' for Inactive)
REMARK    1  A    between atoms: C_5  and  N_6 
REMARK    2  A    between atoms: N_6  and  C_7 
REMARK    3  A    between atoms: C_7  and  N_8 
REMARK    4  A    between atoms: N_8  and  C_9 
REMARK    5  A    between atoms: C_9  and  C_10 
REMARK    6  A    between atoms: C_10  and  C_11 
REMARK    7  A    between atoms: C_14  and  C_15 
ROOT
HETATM    1  C   UNL     1       7.221  -1.071  -0.568  1.00  0.00     0.102 C 
HETATM    2  C   UNL     1       8.581  -1.042  -0.468  1.00  0.00     0.139 C 
HETATM    3  C   UNL     1       9.324   0.240  -0.522  1.00  0.00     0.270 C 
HETATM    4  O   UNL     1       9.006   1.172  -1.256  1.00  0.00    -0.267 OA
HETATM    5  N   UNL     1      10.458   0.264   0.268  1.00  0.00    -0.270 N 
HETATM    6  C   UNL     1      11.087   1.554   0.484  1.00  0.00     0.164 C 
HETATM    7  C   UNL     1      11.204  -0.863   0.568  1.00  0.00     0.333 C 
HETATM    8  O   UNL     1      12.292  -0.784   1.143  1.00  0.00    -0.246 OA
HETATM    9  N   UNL     1      10.675  -2.082   0.168  1.00  0.00    -0.270 N 
HETATM   10  C   UNL     1      11.465  -3.275   0.422  1.00  0.00     0.164 C 
HETATM   11  C   UNL     1       9.364  -2.278  -0.239  1.00  0.00     0.270 C 
HETATM   12  O   UNL     1       8.864  -3.400  -0.347  1.00  0.00    -0.267 OA
ENDROOT
BRANCH   1  13
HETATM   13  N   UNL     1       6.483   0.104  -0.624  1.00  0.00    -0.245 NA
HETATM   14  H   UNL     1       5.697  -0.019  -1.258  1.00  0.00     0.135 HD
BRANCH  13  15
HETATM   15  C   UNL     1       6.045   0.819   0.524  1.00  0.00     0.014 A 
HETATM   16  C   UNL     1       6.531   0.578   1.815  1.00  0.00     0.024 A 
HETATM   17  C   UNL     1       6.085   1.334   2.904  1.00  0.00     0.008 A 
HETATM   18  C   UNL     1       5.166   2.372   2.720  1.00  0.00    -0.062 A 
HETATM   19  C   UNL     1       4.654   3.151   3.895  1.00  0.00     0.048 C 
HETATM   20  C   UNL     1       4.694   2.634   1.431  1.00  0.00     0.008 A 
HETATM   21  C   UNL     1       5.143   1.876   0.345  1.00  0.00     0.024 A 
ENDBRANCH  13  15
ENDBRANCH   1  13
BRANCH   1  22
HETATM   22  N   UNL     1       6.500  -2.264  -0.664  1.00  0.00    -0.379 N 
HETATM   23  H   UNL     1       7.114  -3.087  -0.588  1.00  0.00     0.160 HD
BRANCH  22  24
HETATM   24  C   UNL     1       5.205  -2.490  -0.020  1.00  0.00     0.125 C 
BRANCH  24  25
HETATM   25  C   UNL     1       4.524  -3.730  -0.608  1.00  0.00     0.061 C 
BRANCH  25  26
HETATM   26  C   UNL     1       3.194  -3.995   0.033  1.00  0.00    -0.022 A 
HETATM   27  C   UNL     1       1.968  -3.309  -0.252  1.00  0.00    -0.000 A 
HETATM   28  C   UNL     1       0.983  -3.842   0.577  1.00  0.00     0.058 A 
HETATM   29  C   UNL     1       1.616  -2.272  -1.139  1.00  0.00     0.014 A 
HETATM   30  C   UNL     1      -0.355  -3.393   0.577  1.00  0.00     0.075 A 
HETATM   31  N   UNL     1       1.587  -4.828   1.328  1.00  0.00    -0.358 N 
HETATM   32  C   UNL     1      -0.662  -2.352  -0.324  1.00  0.00     0.018 A 
HETATM   33  C   UNL     1       0.301  -1.801  -1.166  1.00  0.00     0.002 A 
HETATM   34  H   UNL     1       1.107  -5.392   2.018  1.00  0.00     0.166 HD
HETATM   35  C   UNL     1       2.920  -4.927   1.020  1.00  0.00     0.013 A 
HETATM   36  C   UNL     1       3.803  -5.910   1.700  1.00  0.00     0.068 C 
BRANCH  30  37
HETATM   37  C   UNL     1      -1.435  -3.953   1.466  1.00  0.00     0.419 C 
HETATM   38  F   UNL     1      -0.994  -4.950   2.288  1.00  0.00    -0.166 F 
HETATM   39  F   UNL     1      -1.981  -3.013   2.287  1.00  0.00    -0.166 F 
HETATM   40  F   UNL     1      -2.473  -4.485   0.763  1.00  0.00    -0.166 F 
ENDBRANCH  30  37
ENDBRANCH  25  26
ENDBRANCH  24  25
ENDBRANCH  22  24
ENDBRANCH   1  22
TORSDOF 7
