REMARK  9 active torsions:
REMARK  status: ('A' for Active; 'I' for Inactive)
REMARK    1  A    between atoms: C_5  and  C_6 
REMARK    2  A    between atoms: C_8  and  C_9 
REMARK    3  A    between atoms: C_9  and  C_10 
REMARK       I    between atoms: C_10  and  N_11 
REMARK    4  A    between atoms: N_11  and  C_12 
REMARK    5  A    between atoms: C_12  and  C_13 
REMARK    6  A    between atoms: C_13  and  N_14 
REMARK    7  A    between atoms: C_28  and  C_29 
REMARK    8  A    between atoms: C_29  and  O_30 
REMARK    9  A    between atoms: O_30  and  C_31 
ROOT
HETATM    1  C   UNL     1       6.762  -4.366  -0.023  1.00  0.00     0.166 C 
HETATM    2  N   UNL     1       7.445  -3.082  -0.265  1.00  0.00    -0.319 N 
HETATM    3  C   UNL     1       8.628  -2.570  -0.353  1.00  0.00     0.011 C 
HETATM    4  C   UNL     1       6.361  -2.014  -0.572  1.00  0.00     0.170 C 
HETATM    5  S   UNL     1       6.938  -0.426  -0.233  1.00  0.00    -0.086 SA
HETATM    6  C   UNL     1       8.658  -1.048  -0.269  1.00  0.00     0.135 C 
HETATM    7  N   UNL     1       5.236  -2.301  -1.136  1.00  0.00    -0.229 NA
HETATM    8  C   UNL     1       5.099  -3.597  -1.640  1.00  0.00     0.048 C 
HETATM    9  C   UNL     1       4.145  -3.687  -2.809  1.00  0.00     0.071 C 
HETATM   10  C   UNL     1       5.865  -4.624  -1.188  1.00  0.00     0.069 C 
ENDROOT
BRANCH   3  11
HETATM   11  C   UNL     1       9.860  -3.413  -0.538  1.00  0.00     0.156 C 
BRANCH  11  12
HETATM   12  C   UNL     1      10.678  -3.021  -1.766  1.00  0.00     0.223 C 
HETATM   13  N   UNL     1      11.745  -3.833  -2.044  1.00  0.00    -0.359 N 
HETATM   14  H   UNL     1      11.956  -4.578  -1.382  1.00  0.00     0.162 HD
HETATM   15  O   UNL     1      10.397  -2.051  -2.464  1.00  0.00    -0.273 OA
BRANCH  13  16
HETATM   16  C   UNL     1      12.831  -3.526  -2.986  1.00  0.00     0.150 C 
BRANCH  16  17
HETATM   17  C   UNL     1      12.462  -3.072  -4.421  1.00  0.00     0.254 C 
BRANCH  17  18
HETATM   18  N   UNL     1      11.945  -1.645  -4.506  1.00  0.00    -0.070 N 
HETATM   19  H   UNL     1      11.191  -1.585  -3.793  1.00  0.00     0.279 HD
HETATM   20  C   UNL     1      12.972  -0.589  -4.170  1.00  0.00     0.235 C 
HETATM   21  C   UNL     1      12.305   0.780  -4.139  1.00  0.00     0.028 C 
HETATM   22  C   UNL     1      11.613   1.099  -5.457  1.00  0.00     0.003 C 
HETATM   23  C   UNL     1      10.637  -0.005  -5.842  1.00  0.00     0.028 C 
HETATM   24  C   UNL     1      11.304  -1.374  -5.853  1.00  0.00     0.235 C 
ENDBRANCH  17  18
ENDBRANCH  16  17
ENDBRANCH  13  16
ENDBRANCH  11  12
ENDBRANCH   3  11
BRANCH   1  25
HETATM   25  C   UNL     1       7.527  -5.374   0.819  1.00  0.00    -0.030 A 
HETATM   26  C   UNL     1       7.751  -5.042   2.179  1.00  0.00     0.010 A 
HETATM   27  C   UNL     1       8.331  -5.943   3.075  1.00  0.00     0.007 A 
HETATM   28  C   UNL     1       8.718  -7.208   2.644  1.00  0.00    -0.062 A 
HETATM   29  C   UNL     1       9.222  -8.229   3.623  1.00  0.00     0.048 C 
HETATM   30  C   UNL     1       8.539  -7.541   1.298  1.00  0.00     0.007 A 
HETATM   31  C   UNL     1       7.967  -6.632   0.395  1.00  0.00     0.010 A 
ENDBRANCH   1  25
BRANCH  10  32
HETATM   32  C   UNL     1       5.992  -5.849  -1.968  1.00  0.00     0.294 C 
HETATM   33  O   UNL     1       7.016  -6.071  -2.596  1.00  0.00    -0.259 OA
BRANCH  32  34
HETATM   34  O   UNL     1       4.884  -6.599  -1.858  1.00  0.00    -0.313 OA
BRANCH  34  35
HETATM   35  C   UNL     1       4.787  -7.862  -2.563  1.00  0.00     0.124 C 
HETATM   36  C   UNL     1       4.953  -7.710  -4.073  1.00  0.00     0.040 C 
HETATM   37  C   UNL     1       5.729  -8.903  -1.968  1.00  0.00     0.040 C 
ENDBRANCH  34  35
ENDBRANCH  32  34
ENDBRANCH  10  32
TORSDOF 9
