REMARK  2 active torsions:
REMARK  status: ('A' for Active; 'I' for Inactive)
REMARK    1  A    between atoms: C_8  and  S_9 
REMARK    2  A    between atoms: S_9  and  C_10 
ROOT
HETATM    1  C   UNL     1       4.426   5.220   3.718  1.00  0.00     0.002 A 
HETATM    2  C   UNL     1       4.044   4.222   2.820  1.00  0.00     0.034 A 
HETATM    3  C   UNL     1       3.166   3.211   3.194  1.00  0.00     0.087 A 
HETATM    4  C   UNL     1       2.663   3.196   4.522  1.00  0.00     0.087 A 
HETATM    5  N   UNL     1       1.827   2.231   4.943  1.00  0.00    -0.232 NA
HETATM    6  C   UNL     1       1.495   1.276   4.047  1.00  0.00     0.164 A 
HETATM    7 CL   UNL     1       0.482   0.055   4.697  1.00  0.00    -0.059 Cl
HETATM    8  C   UNL     1       1.970   1.297   2.745  1.00  0.00     0.165 A 
HETATM    9  N   UNL     1       2.810   2.267   2.293  1.00  0.00    -0.234 NA
HETATM   10  C   UNL     1       3.046   4.198   5.403  1.00  0.00     0.034 A 
HETATM   11  C   UNL     1       3.922   5.210   5.012  1.00  0.00     0.002 A 
ENDROOT
BRANCH   8  12
HETATM   12  S   UNL     1       1.588   0.053   1.511  1.00  0.00     0.078 S 
HETATM   13  O   UNL     1       0.090  -0.012   1.441  1.00  0.00    -0.251 OA
BRANCH  12  14
HETATM   14  C   UNL     1       2.121   0.883  -0.032  1.00  0.00     0.112 C 
HETATM   15  C   UNL     1       1.170   2.038  -0.363  1.00  0.00     0.250 C 
HETATM   16  N   UNL     1       1.518   2.632  -1.700  1.00  0.00    -0.074 N 
HETATM   17  H   UNL     1       2.445   3.080  -1.655  1.00  0.00     0.277 HD
HETATM   18  H   UNL     1       0.854   3.394  -1.901  1.00  0.00     0.277 HD
HETATM   19  C   UNL     1       1.475   1.649  -2.823  1.00  0.00     0.232 C 
HETATM   20  C   UNL     1       2.434   0.508  -2.520  1.00  0.00     0.029 C 
HETATM   21  C   UNL     1       2.125  -0.147  -1.173  1.00  0.00     0.021 C 
ENDBRANCH  12  14
ENDBRANCH   8  12
TORSDOF 2
