REMARK  6 active torsions:
REMARK  status: ('A' for Active; 'I' for Inactive)
REMARK    1  A    between atoms: C_2  and  O_3 
REMARK    2  A    between atoms: C_2  and  C_4 
REMARK    3  A    between atoms: C_6  and  N_7 
REMARK       I    between atoms: N_7  and  C_8 
REMARK    4  A    between atoms: C_8  and  C_9 
REMARK    5  A    between atoms: C_12  and  C_13 
REMARK    6  A    between atoms: C_18  and  C_19 
ROOT
HETATM    1  C   UNL     1       2.056   4.042   1.474  1.00  0.00     0.096 C 
HETATM    2  C   UNL     1       3.106   3.486   2.182  1.00  0.00     0.138 C 
HETATM    3  N   UNL     1       2.561   2.448   2.905  1.00  0.00    -0.240 N 
HETATM    4  C   UNL     1       3.311   1.592   3.807  1.00  0.00     0.221 C 
HETATM    5  C   UNL     1       4.820   1.732   3.534  1.00  0.00     0.066 C 
HETATM    6  C   UNL     1       5.226   3.204   3.374  1.00  0.00     0.118 C 
HETATM    7  N   UNL     1       4.429   3.800   2.289  1.00  0.00    -0.365 N 
HETATM    8  N   UNL     1       1.221   2.408   2.852  1.00  0.00    -0.181 NA
HETATM    9  C   UNL     1       0.918   3.358   1.963  1.00  0.00     0.160 C 
HETATM   10  H   UNL     1       4.717   4.760   2.087  1.00  0.00     0.161 HD
ENDROOT
BRANCH   1  11
HETATM   11  C   UNL     1       2.062   5.104   0.483  1.00  0.00     0.261 C 
HETATM   12  N   UNL     1       3.260   5.207  -0.200  1.00  0.00    -0.323 N 
HETATM   13  H   UNL     1       3.948   4.496   0.024  1.00  0.00     0.169 HD
HETATM   14  O   UNL     1       1.054   5.771   0.282  1.00  0.00    -0.267 OA
BRANCH  12  15
HETATM   15  C   UNL     1       3.571   6.072  -1.268  1.00  0.00     0.035 A 
HETATM   16  C   UNL     1       2.734   7.104  -1.703  1.00  0.00     0.039 A 
HETATM   17  C   UNL     1       3.088   7.914  -2.798  1.00  0.00    -0.028 A 
HETATM   18  C   UNL     1       4.298   7.666  -3.461  1.00  0.00     0.010 A 
HETATM   19  C   UNL     1       5.147   6.652  -3.022  1.00  0.00     0.003 A 
HETATM   20  C   UNL     1       4.787   5.864  -1.927  1.00  0.00     0.029 A 
BRANCH  17  21
HETATM   21  C   UNL     1       2.143   9.002  -3.262  1.00  0.00     0.147 C 
HETATM   22  C   UNL     1       1.266   8.540  -4.417  1.00  0.00     0.044 C 
BRANCH  21  23
HETATM   23  O   UNL     1       2.872  10.159  -3.671  1.00  0.00    -0.391 OA
HETATM   24  H   UNL     1       3.564  10.301  -3.003  1.00  0.00     0.210 HD
ENDBRANCH  21  23
ENDBRANCH  17  21
ENDBRANCH  12  15
ENDBRANCH   1  11
BRANCH   4  25
HETATM   25  C   UNL     1       2.908   0.140   3.667  1.00  0.00     0.409 C 
HETATM   26  F   UNL     1       1.641  -0.114   4.052  1.00  0.00    -0.169 F 
HETATM   27  F   UNL     1       3.070  -0.318   2.405  1.00  0.00    -0.169 F 
HETATM   28  F   UNL     1       3.704  -0.630   4.459  1.00  0.00    -0.169 F 
ENDBRANCH   4  25
BRANCH   6  29
HETATM   29  C   UNL     1       5.165   3.978   4.686  1.00  0.00    -0.035 A 
HETATM   30  C   UNL     1       6.062   3.633   5.716  1.00  0.00     0.009 A 
HETATM   31  C   UNL     1       6.029   4.283   6.952  1.00  0.00     0.001 A 
HETATM   32  C   UNL     1       5.106   5.298   7.180  1.00  0.00     0.000 A 
HETATM   33  C   UNL     1       4.219   5.664   6.173  1.00  0.00     0.001 A 
HETATM   34  C   UNL     1       4.249   5.012   4.937  1.00  0.00     0.009 A 
ENDBRANCH   6  29
TORSDOF 6
