REMARK  10 active torsions:
REMARK  status: ('A' for Active; 'I' for Inactive)
REMARK    1  A    between atoms: C_2  and  O_3 
REMARK    2  A    between atoms: O_3  and  C_4 
REMARK    3  A    between atoms: C_4  and  C_5 
REMARK    4  A    between atoms: C_6  and  C_7 
REMARK    5  A    between atoms: C_7  and  O_8 
REMARK    6  A    between atoms: O_8  and  C_9 
REMARK    7  A    between atoms: C_9  and  C_10 
REMARK       I    between atoms: C_10  and  N_11 
REMARK    8  A    between atoms: N_11  and  C_12 
REMARK    9  A    between atoms: C_13  and  C_14 
REMARK       I    between atoms: C_14  and  N_15 
REMARK   10  A    between atoms: N_15  and  C_16 
ROOT
HETATM    1  C   UNL     1       7.550   2.932  -4.207  1.00  0.00     0.282 C 
ENDROOT
BRANCH   1   2
HETATM    2  O   UNL     1       7.203   2.833  -2.821  1.00  0.00    -0.307 OA
BRANCH   2   3
HETATM    3  C   UNL     1       5.959   2.369  -2.517  1.00  0.00     0.318 C 
HETATM    4  O   UNL     1       5.136   1.983  -3.337  1.00  0.00    -0.257 OA
BRANCH   3   5
HETATM    5  C   UNL     1       5.752   2.461  -1.090  1.00  0.00     0.160 A 
HETATM    6  C   UNL     1       4.787   1.894  -0.265  1.00  0.00     0.018 A 
HETATM    7  C   UNL     1       5.072   2.356   1.058  1.00  0.00     0.009 A 
HETATM    8  C   UNL     1       6.181   3.182   0.944  1.00  0.00     0.087 A 
HETATM    9  C   UNL     1       4.516   2.163   2.338  1.00  0.00     0.015 A 
HETATM   10  O   UNL     1       6.590   3.252  -0.348  1.00  0.00    -0.303 OA
HETATM   11  C   UNL     1       6.784   3.843   2.013  1.00  0.00     0.038 A 
HETATM   12  C   UNL     1       6.215   3.639   3.273  1.00  0.00     0.003 A 
HETATM   13  C   UNL     1       5.100   2.813   3.435  1.00  0.00     0.001 A 
BRANCH   6  14
HETATM   14  C   UNL     1       3.704   0.967  -0.691  1.00  0.00     0.210 C 
BRANCH  14  15
HETATM   15  O   UNL     1       4.262  -0.277  -1.113  1.00  0.00    -0.387 OA
BRANCH  15  16
HETATM   16  C   UNL     1       3.267  -1.151  -1.636  1.00  0.00     0.163 C 
HETATM   17  C   UNL     1       3.948  -2.413  -2.126  1.00  0.00     0.033 C 
ENDBRANCH  15  16
ENDBRANCH  14  15
ENDBRANCH   6  14
ENDBRANCH   3   5
ENDBRANCH   2   3
ENDBRANCH   1   2
BRANCH   1  18
HETATM   18  C   UNL     1       7.637   4.394  -4.643  1.00  0.00     0.246 C 
HETATM   19  N   UNL     1       7.742   5.273  -3.575  1.00  0.00    -0.324 N 
HETATM   20  H   UNL     1       7.425   4.909  -2.682  1.00  0.00     0.169 HD
HETATM   21  O   UNL     1       7.582   4.721  -5.826  1.00  0.00    -0.271 OA
BRANCH  19  22
HETATM   22  C   UNL     1       7.926   6.665  -3.692  1.00  0.00     0.050 A 
HETATM   23  C   UNL     1       8.741   7.289  -4.653  1.00  0.00     0.058 A 
HETATM   24  C   UNL     1       8.797   8.693  -4.719  1.00  0.00     0.019 A 
HETATM   25  C   UNL     1       8.059   9.471  -3.827  1.00  0.00     0.001 A 
HETATM   26  C   UNL     1       7.292   8.855  -2.842  1.00  0.00     0.002 A 
HETATM   27  C   UNL     1       7.237   7.461  -2.766  1.00  0.00     0.030 A 
BRANCH  23  28
HETATM   28  C   UNL     1       9.745   6.539  -5.452  1.00  0.00     0.254 C 
HETATM   29  N   UNL     1       9.793   6.870  -6.794  1.00  0.00    -0.352 N 
HETATM   30  H   UNL     1       9.007   7.378  -7.181  1.00  0.00     0.163 HD
HETATM   31  O   UNL     1      10.497   5.740  -4.903  1.00  0.00    -0.268 OA
BRANCH  29  32
HETATM   32  C   UNL     1      10.720   6.259  -7.692  1.00  0.00     0.084 A 
HETATM   33  C   UNL     1      10.272   5.183  -8.639  1.00  0.00     0.027 A 
HETATM   34  C   UNL     1      10.650   6.535  -9.169  1.00  0.00     0.027 A 
ENDBRANCH  29  32
ENDBRANCH  23  28
ENDBRANCH  19  22
ENDBRANCH   1  18
TORSDOF 10
