REMARK  9 active torsions:
REMARK  status: ('A' for Active; 'I' for Inactive)
REMARK    1  A    between atoms: C_4  and  C_5 
REMARK    2  A    between atoms: C_7  and  N_8 
REMARK       I    between atoms: N_8  and  C_9 
REMARK    3  A    between atoms: C_9  and  C_10 
REMARK    4  A    between atoms: C_10  and  O_11 
REMARK    5  A    between atoms: C_18  and  C_19 
REMARK    6  A    between atoms: C_19  and  N_20 
REMARK       I    between atoms: N_20  and  C_21 
REMARK    7  A    between atoms: C_21  and  C_22 
REMARK    8  A    between atoms: C_24  and  C_25 
REMARK    9  A    between atoms: C_25  and  O_26 
ROOT
HETATM    1  C   UNL     1       1.679   0.605  -0.015  1.00  0.00     0.079 C 
HETATM    2  C   UNL     1       3.028   0.014  -0.044  1.00  0.00     0.078 A 
HETATM    3  O   UNL     1       4.089   0.874  -0.062  1.00  0.00    -0.294 OA
HETATM    4  C   UNL     1       5.190   0.060  -0.099  1.00  0.00     0.180 A 
HETATM    5  N   UNL     1       4.906  -1.230  -0.077  1.00  0.00    -0.224 NA
HETATM    6  C   UNL     1       3.525  -1.272  -0.079  1.00  0.00     0.084 A 
ENDROOT
BRANCH   4   7
HETATM    7  C   UNL     1       6.492   0.715  -0.187  1.00  0.00     0.019 A 
HETATM    8  C   UNL     1       6.618   2.057  -0.589  1.00  0.00     0.045 A 
HETATM    9  C   UNL     1       7.876   2.651  -0.732  1.00  0.00     0.035 A 
HETATM   10  C   UNL     1       9.020   1.898  -0.443  1.00  0.00     0.029 A 
HETATM   11  C   UNL     1       8.912   0.570  -0.031  1.00  0.00     0.003 A 
HETATM   12  C   UNL     1       7.654  -0.020   0.088  1.00  0.00     0.016 A 
BRANCH   9  13
HETATM   13  N   UNL     1       8.076   3.969  -1.181  1.00  0.00    -0.325 N 
HETATM   14  C   UNL     1       7.124   4.904  -1.549  1.00  0.00     0.245 C 
HETATM   15  O   UNL     1       5.905   4.785  -1.485  1.00  0.00    -0.271 OA
HETATM   16  H   UNL     1       9.037   4.276  -1.310  1.00  0.00     0.169 HD
BRANCH  14  17
HETATM   17  C   UNL     1       7.770   6.207  -2.037  1.00  0.00     0.270 C 
BRANCH  17  18
HETATM   18  O   UNL     1       9.045   6.008  -2.649  1.00  0.00    -0.387 OA
HETATM   19  C   UNL     1       8.922   5.622  -4.016  1.00  0.00     0.202 C 
ENDBRANCH  17  18
ENDBRANCH  14  17
ENDBRANCH   9  13
ENDBRANCH   4   7
BRANCH   6  20
HETATM   20  C   UNL     1       2.791  -2.559  -0.156  1.00  0.00     0.185 C 
BRANCH  20  21
HETATM   21  N   UNL     1       2.553  -3.065   1.172  1.00  0.00    -0.351 N 
HETATM   22  C   UNL     1       1.339  -2.936   1.807  1.00  0.00     0.258 C 
HETATM   23  O   UNL     1       0.402  -2.341   1.278  1.00  0.00    -0.267 OA
HETATM   24  H   UNL     1       3.330  -3.468   1.679  1.00  0.00     0.163 HD
BRANCH  22  25
HETATM   25  C   UNL     1       1.234  -3.559   3.120  1.00  0.00     0.073 A 
HETATM   26  S   UNL     1       2.524  -4.431   3.836  1.00  0.00    -0.087 SA
HETATM   27  C   UNL     1       1.590  -4.854   5.206  1.00  0.00     0.007 A 
HETATM   28  C   UNL     1       0.322  -4.312   5.135  1.00  0.00     0.018 A 
HETATM   29  C   UNL     1       0.119  -3.567   3.939  1.00  0.00     0.026 A 
BRANCH  27  30
HETATM   30  C   UNL     1       2.168  -5.709   6.288  1.00  0.00     0.213 C 
BRANCH  30  31
HETATM   31  O   UNL     1       1.450  -6.941   6.260  1.00  0.00    -0.391 OA
HETATM   32  C   UNL     1       1.934  -7.852   7.235  1.00  0.00     0.201 C 
ENDBRANCH  30  31
ENDBRANCH  27  30
ENDBRANCH  22  25
ENDBRANCH  20  21
ENDBRANCH   6  20
TORSDOF 9
