REMARK  5 active torsions:
REMARK  status: ('A' for Active; 'I' for Inactive)
REMARK    1  A    between atoms: C_2  and  O_3 
REMARK    2  A    between atoms: O_3  and  C_4 
REMARK    3  A    between atoms: C_4  and  C_5 
REMARK    4  A    between atoms: C_6  and  C_7 
REMARK    5  A    between atoms: C_22  and  N_23 
ROOT
HETATM    1  C   UNL     1       5.268  -0.118  -0.262  1.00  0.00     0.075 A 
HETATM    2  C   UNL     1       6.269   0.669   0.363  1.00  0.00     0.008 A 
HETATM    3  C   UNL     1       7.240   0.009   1.169  1.00  0.00     0.045 A 
HETATM    4  C   UNL     1       7.082  -1.382   1.305  1.00  0.00     0.143 A 
HETATM    5  N   UNL     1       7.894  -2.104   2.168  1.00  0.00    -0.306 N 
HETATM    6  C   UNL     1       8.845  -1.559   2.971  1.00  0.00     0.268 A 
HETATM    7  O   UNL     1       9.480  -2.240   3.767  1.00  0.00    -0.266 OA
HETATM    8  C   UNL     1       9.084  -0.111   2.801  1.00  0.00     0.120 A 
HETATM    9  C   UNL     1      10.172   0.532   3.645  1.00  0.00     0.027 C 
HETATM   10  N   UNL     1      11.076   1.064   4.346  1.00  0.00    -0.096 N 
HETATM   11  C   UNL     1       8.384   0.643   1.920  1.00  0.00     0.046 A 
HETATM   12  N   UNL     1       6.141  -2.131   0.693  1.00  0.00    -0.234 NA
HETATM   13  C   UNL     1       5.238  -1.498  -0.085  1.00  0.00     0.050 A 
HETATM   14  C   UNL     1       4.189  -2.365  -0.719  1.00  0.00     0.071 C 
HETATM   15  H   UNL     1       7.703  -3.093   2.255  1.00  0.00     0.170 HD
ENDROOT
BRANCH  11  16
HETATM   16  N   UNL     1       8.666   1.982   1.683  1.00  0.00    -0.301 NA
HETATM   17  H   UNL     1       9.538   2.342   2.070  1.00  0.00     0.124 HD
HETATM   18  H   UNL     1       8.569   2.274   0.714  1.00  0.00     0.124 HD
ENDBRANCH  11  16
BRANCH   2  19
HETATM   19  C   UNL     1       6.217   2.134   0.178  1.00  0.00    -0.024 A 
HETATM   20  C   UNL     1       5.709   2.967   1.188  1.00  0.00     0.014 A 
HETATM   21  C   UNL     1       5.669   4.354   1.019  1.00  0.00     0.024 A 
HETATM   22  C   UNL     1       6.125   4.920  -0.168  1.00  0.00     0.034 A 
HETATM   23 CL   UNL     1       6.083   6.627  -0.375  1.00  0.00    -0.084 Cl
HETATM   24  C   UNL     1       6.618   4.112  -1.190  1.00  0.00     0.024 A 
HETATM   25  C   UNL     1       6.662   2.725  -1.019  1.00  0.00     0.014 A 
ENDBRANCH   2  19
BRANCH   1  26
HETATM   26  C   UNL     1       4.188   0.509  -1.040  1.00  0.00     0.296 C 
HETATM   27  O   UNL     1       3.175   0.960  -0.540  1.00  0.00    -0.259 OA
BRANCH  26  28
HETATM   28  O   UNL     1       4.518   0.433  -2.350  1.00  0.00    -0.318 OA
BRANCH  28  29
HETATM   29  C   UNL     1       3.548   0.944  -3.277  1.00  0.00     0.174 C 
HETATM   30  C   UNL     1       4.168   2.091  -4.050  1.00  0.00     0.034 C 
ENDBRANCH  28  29
ENDBRANCH  26  28
ENDBRANCH   1  26
TORSDOF 5
