REMARK  9 active torsions:
REMARK  status: ('A' for Active; 'I' for Inactive)
REMARK       I    between atoms: N_2  and  C_3 
REMARK    1  A    between atoms: N_2  and  C_28 
REMARK    2  A    between atoms: C_3  and  C_4 
REMARK    3  A    between atoms: C_6  and  N_7 
REMARK       I    between atoms: N_7  and  C_8 
REMARK    4  A    between atoms: C_8  and  C_9 
REMARK    5  A    between atoms: C_9  and  O_10 
REMARK    6  A    between atoms: N_17  and  C_18 
REMARK    7  A    between atoms: C_18  and  C_19 
REMARK    8  A    between atoms: C_19  and  C_20 
REMARK    9  A    between atoms: C_28  and  C_29 
ROOT
HETATM    1  C   UNL     1       4.378  -1.606  -0.384  1.00  0.00     0.036 C 
HETATM    2  C   UNL     1       4.786  -1.823   0.934  1.00  0.00     0.049 C 
HETATM    3  C   UNL     1       6.116  -2.142   1.260  1.00  0.00     0.065 C 
HETATM    4  C   UNL     1       7.049  -2.104   0.202  1.00  0.00     0.091 C 
HETATM    5  C   UNL     1       6.633  -1.960  -1.129  1.00  0.00     0.088 C 
HETATM    6  N   UNL     1       7.679  -2.082  -2.003  1.00  0.00    -0.242 NA
HETATM    7  C   UNL     1       8.737  -2.215  -1.247  1.00  0.00     0.210 C 
HETATM    8  N   UNL     1       8.429  -2.147   0.092  1.00  0.00    -0.337 N 
HETATM    9  C   UNL     1       5.291  -1.704  -1.434  1.00  0.00     0.051 C 
ENDROOT
BRANCH   1  10
HETATM   10  C   UNL     1       3.007  -1.131  -0.688  1.00  0.00     0.253 C 
HETATM   11  N   UNL     1       1.903  -1.722  -0.068  1.00  0.00    -0.350 N 
HETATM   12  C   UNL     1       0.615  -1.062  -0.248  1.00  0.00     0.153 C 
HETATM   13  O   UNL     1       2.917  -0.174  -1.457  1.00  0.00    -0.267 OA
BRANCH  11  14
HETATM   14  C   UNL     1       1.870  -3.127   0.389  1.00  0.00     0.158 C 
BRANCH  14  15
HETATM   15  C   UNL     1       1.297  -3.334   1.805  1.00  0.00     0.151 A 
HETATM   16  O   UNL     1      -0.138  -3.080   1.789  1.00  0.00    -0.343 OA
HETATM   17  C   UNL     1      -0.713  -4.165   2.379  1.00  0.00     0.075 A 
HETATM   18  C   UNL     1       0.178  -5.169   2.705  1.00  0.00    -0.022 A 
HETATM   19  C   UNL     1      -2.066  -4.280   2.623  1.00  0.00     0.037 A 
HETATM   20  C   UNL     1       1.546  -4.772   2.307  1.00  0.00     0.075 A 
HETATM   21  C   UNL     1      -0.264  -6.344   3.290  1.00  0.00     0.010 A 
HETATM   22  C   UNL     1      -1.632  -6.483   3.547  1.00  0.00     0.001 A 
HETATM   23  C   UNL     1      -2.530  -5.456   3.217  1.00  0.00     0.003 A 
ENDBRANCH  14  15
ENDBRANCH  11  14
ENDBRANCH   1  10
BRANCH   3  24
HETATM   24  N   UNL     1       6.495  -2.514   2.562  1.00  0.00    -0.323 N 
HETATM   25  C   UNL     1       5.654  -2.937   3.581  1.00  0.00     0.246 C 
HETATM   26  O   UNL     1       4.427  -3.002   3.541  1.00  0.00    -0.271 OA
HETATM   27  H   UNL     1       7.471  -2.705   2.743  1.00  0.00     0.169 HD
BRANCH  25  28
HETATM   28  C   UNL     1       6.418  -3.407   4.824  1.00  0.00     0.270 C 
BRANCH  28  29
HETATM   29  O   UNL     1       7.832  -3.292   4.668  1.00  0.00    -0.387 OA
HETATM   30  C   UNL     1       8.520  -3.781   5.815  1.00  0.00     0.202 C 
ENDBRANCH  28  29
ENDBRANCH  25  28
ENDBRANCH   3  24
BRANCH   8  31
HETATM   31  C   UNL     1       9.422  -1.737   1.067  1.00  0.00     0.134 C 
BRANCH  31  32
HETATM   32  C   UNL     1      10.063  -2.801   1.961  1.00  0.00     0.058 C 
BRANCH  32  33
HETATM   33  C   UNL     1      10.298  -4.164   1.371  1.00  0.00    -0.057 A 
HETATM   34  C   UNL     1      11.131  -4.347   0.261  1.00  0.00     0.007 A 
HETATM   35  C   UNL     1      11.349  -5.626  -0.255  1.00  0.00     0.001 A 
HETATM   36  C   UNL     1      10.755  -6.734   0.346  1.00  0.00     0.000 A 
HETATM   37  C   UNL     1       9.940  -6.567   1.462  1.00  0.00     0.001 A 
HETATM   38  C   UNL     1       9.711  -5.289   1.971  1.00  0.00     0.007 A 
ENDBRANCH  32  33
ENDBRANCH  31  32
ENDBRANCH   8  31
TORSDOF 9
