REMARK  4 active torsions:
REMARK  status: ('A' for Active; 'I' for Inactive)
REMARK    1  A    between atoms: O_2  and  C_3 
REMARK    2  A    between atoms: C_4  and  C_5 
REMARK    3  A    between atoms: C_9  and  N_10 
REMARK    4  A    between atoms: C_13  and  C_14 
ROOT
HETATM    1  C   UNL     1       4.859  -0.277  -1.529  1.00  0.00     0.167 C 
HETATM    2  N   UNL     1       4.334  -0.032  -2.870  1.00  0.00    -0.074 N 
HETATM    3  C   UNL     1       4.240   1.213  -3.434  1.00  0.00     0.736 A 
HETATM    4  N   UNL     1       3.881   1.089  -4.685  1.00  0.00     0.131 NA
HETATM    5  C   UNL     1       3.816  -0.261  -4.854  1.00  0.00     0.753 A 
HETATM    6  N   UNL     1       4.100  -0.995  -3.782  1.00  0.00     0.037 NA
HETATM    7  N   UNL     1       4.548   2.330  -2.743  1.00  0.00    -0.214 N 
HETATM    8  C   UNL     1       5.245   2.244  -1.466  1.00  0.00     0.135 C 
HETATM    9  C   UNL     1       4.777   1.007  -0.680  1.00  0.00     0.063 C 
HETATM   10  H   UNL     1       4.708   3.175  -3.284  1.00  0.00     0.178 HD
ENDROOT
BRANCH   1  11
HETATM   11  C   UNL     1       4.152  -1.436  -0.836  1.00  0.00     0.001 A 
HETATM   12  C   UNL     1       4.870  -2.566  -0.407  1.00  0.00     0.076 A 
HETATM   13  C   UNL     1       4.212  -3.609   0.256  1.00  0.00     0.037 A 
HETATM   14  C   UNL     1       2.835  -3.552   0.470  1.00  0.00     0.003 A 
HETATM   15  C   UNL     1       2.109  -2.450   0.031  1.00  0.00     0.001 A 
HETATM   16  C   UNL     1       2.760  -1.400  -0.616  1.00  0.00     0.012 A 
BRANCH  12  17
HETATM   17  O   UNL     1       6.226  -2.564  -0.611  1.00  0.00    -0.355 OA
HETATM   18  C   UNL     1       6.775  -3.831  -0.967  1.00  0.00     0.210 C 
ENDBRANCH  12  17
ENDBRANCH   1  11
BRANCH   8  19
HETATM   19  C   UNL     1       6.759   2.333  -1.594  1.00  0.00    -0.035 A 
HETATM   20  C   UNL     1       7.502   2.791  -0.488  1.00  0.00     0.010 A 
HETATM   21  C   UNL     1       8.895   2.877  -0.540  1.00  0.00     0.019 A 
HETATM   22  C   UNL     1       9.567   2.501  -1.699  1.00  0.00     0.011 A 
HETATM   23 BR   UNL     1      11.452   2.614  -1.771  1.00  0.00    -0.051 Br
HETATM   24  C   UNL     1       8.857   2.043  -2.804  1.00  0.00     0.019 A 
HETATM   25  C   UNL     1       7.462   1.960  -2.752  1.00  0.00     0.010 A 
ENDBRANCH   8  19
BRANCH   5  26
HETATM   26  N   UNL     1       3.474  -0.738  -6.048  1.00  0.00    -0.229 N 
HETATM   27  H   UNL     1       2.993  -0.100  -6.666  1.00  0.00     0.174 HD
HETATM   28  H   UNL     1       3.134  -1.690  -6.069  1.00  0.00     0.174 HD
ENDBRANCH   5  26
TORSDOF 4
