REMARK  5 active torsions:
REMARK  status: ('A' for Active; 'I' for Inactive)
REMARK    1  A    between atoms: C_6  and  C_7 
REMARK    2  A    between atoms: C_7  and  N_8 
REMARK       I    between atoms: N_8  and  C_9 
REMARK       I    between atoms: C_9  and  N_10 
REMARK    3  A    between atoms: N_10  and  C_11 
REMARK    4  A    between atoms: C_14  and  C_15 
REMARK       I    between atoms: C_15  and  N_16 
REMARK    5  A    between atoms: N_16  and  C_17 
ROOT
HETATM    1  C   UNL     1       2.915  -5.128   0.185  1.00  0.00     0.036 A 
HETATM    2  C   UNL     1       3.737  -4.311   0.964  1.00  0.00     0.030 A 
HETATM    3  C   UNL     1       5.121  -4.288   0.753  1.00  0.00     0.019 A 
HETATM    4  C   UNL     1       5.704  -5.108  -0.219  1.00  0.00     0.032 A 
HETATM    5  C   UNL     1       4.891  -5.958  -0.975  1.00  0.00     0.019 A 
HETATM    6  C   UNL     1       3.508  -5.975  -0.760  1.00  0.00     0.030 A 
ENDROOT
BRANCH   1   7
HETATM    7  N   UNL     1       1.513  -5.186   0.291  1.00  0.00    -0.309 N 
HETATM    8  C   UNL     1       0.592  -4.361   0.859  1.00  0.00     0.321 C 
HETATM    9  N   UNL     1       0.995  -3.130   1.250  1.00  0.00    -0.337 N 
HETATM   10  O   UNL     1      -0.575  -4.737   0.957  1.00  0.00    -0.247 OA
HETATM   11  H   UNL     1       1.786  -2.729   0.767  1.00  0.00     0.164 HD
HETATM   12  H   UNL     1       1.058  -5.982  -0.138  1.00  0.00     0.170 HD
BRANCH   9  13
HETATM   13  C   UNL     1       0.049  -2.166   1.758  1.00  0.00     0.186 C 
BRANCH  13  14
HETATM   14  C   UNL     1       0.780  -0.967   2.251  1.00  0.00     0.083 A 
HETATM   15  C   UNL     1       0.266   0.177   2.828  1.00  0.00     0.076 A 
HETATM   16  C   UNL     1      -1.090   0.653   3.152  1.00  0.00     0.079 C 
HETATM   17  O   UNL     1       1.312   1.004   3.130  1.00  0.00    -0.307 OA
HETATM   18  C   UNL     1       2.408   0.316   2.711  1.00  0.00     0.258 A 
HETATM   19  N   UNL     1       2.159  -0.853   2.166  1.00  0.00    -0.237 NA
ENDBRANCH  13  14
ENDBRANCH   9  13
ENDBRANCH   1   7
BRANCH   4  20
HETATM   20  C   UNL     1       7.172  -5.001  -0.463  1.00  0.00     0.256 C 
HETATM   21  N   UNL     1       7.789  -6.176  -0.852  1.00  0.00    -0.323 N 
HETATM   22  H   UNL     1       7.251  -7.029  -0.771  1.00  0.00     0.169 HD
HETATM   23  O   UNL     1       7.708  -3.914  -0.286  1.00  0.00    -0.267 OA
BRANCH  21  24
HETATM   24  C   UNL     1       9.119  -6.333  -1.295  1.00  0.00     0.035 A 
HETATM   25  C   UNL     1       9.994  -5.269  -1.522  1.00  0.00     0.029 A 
HETATM   26  C   UNL     1      11.289  -5.503  -1.995  1.00  0.00     0.002 A 
HETATM   27  C   UNL     1      11.721  -6.803  -2.245  1.00  0.00     0.000 A 
HETATM   28  C   UNL     1      10.857  -7.872  -2.022  1.00  0.00     0.002 A 
HETATM   29  C   UNL     1       9.562  -7.637  -1.552  1.00  0.00     0.029 A 
ENDBRANCH  21  24
ENDBRANCH   4  20
TORSDOF 5
