REMARK  3 active torsions:
REMARK  status: ('A' for Active; 'I' for Inactive)
REMARK    1  A    between atoms: C_5  and  N_6 
REMARK       I    between atoms: N_6  and  C_7 
REMARK    2  A    between atoms: C_7  and  C_8 
REMARK    3  A    between atoms: C_8  and  C_9 
ROOT
HETATM    1  C   UNL     1       4.912  -2.342  -0.190  1.00  0.00     0.286 C 
HETATM    2  N   UNL     1       5.001  -2.483   1.326  1.00  0.00    -0.056 N 
HETATM    3  H   UNL     1       4.020  -2.650   1.640  1.00  0.00     0.278 HD
HETATM    4  H   UNL     1       5.525  -3.325   1.591  1.00  0.00     0.278 HD
HETATM    5  C   UNL     1       5.504  -1.268   2.053  1.00  0.00     0.209 C 
HETATM    6  C   UNL     1       4.685  -0.027   1.618  1.00  0.00     0.115 C 
HETATM    7  N   UNL     1       4.560   0.094   0.167  1.00  0.00    -0.353 N 
HETATM    8  C   UNL     1       4.338  -0.986  -0.652  1.00  0.00     0.249 C 
HETATM    9  O   UNL     1       3.805  -0.826  -1.744  1.00  0.00    -0.271 OA
HETATM   10  C   UNL     1       7.010  -1.112   1.830  1.00  0.00     0.035 C 
HETATM   11  C   UNL     1       7.530   0.166   2.482  1.00  0.00     0.002 C 
HETATM   12  C   UNL     1       6.768   1.393   1.987  1.00  0.00     0.002 C 
HETATM   13  C   UNL     1       5.264   1.256   2.225  1.00  0.00     0.027 C 
HETATM   14  H   UNL     1       4.124   0.940  -0.198  1.00  0.00     0.163 HD
ENDROOT
BRANCH   1  15
HETATM   15  C   UNL     1       4.151  -3.515  -0.829  1.00  0.00     0.146 C 
BRANCH  15  16
HETATM   16  C   UNL     1       2.804  -3.716  -0.186  1.00  0.00     0.224 C 
HETATM   17  N   UNL     1       1.870  -4.569  -0.675  1.00  0.00    -0.327 N 
HETATM   18  H   UNL     1       1.027  -4.552  -0.107  1.00  0.00     0.169 HD
HETATM   19  O   UNL     1       2.570  -3.132   0.883  1.00  0.00    -0.273 OA
BRANCH  17  20
HETATM   20  C   UNL     1       1.807  -5.442  -1.781  1.00  0.00     0.034 A 
HETATM   21  C   UNL     1       2.824  -5.679  -2.703  1.00  0.00     0.030 A 
HETATM   22  C   UNL     1       2.625  -6.560  -3.777  1.00  0.00     0.009 A 
HETATM   23  C   UNL     1       1.415  -7.237  -3.937  1.00  0.00    -0.062 A 
HETATM   24  C   UNL     1       1.186  -8.150  -5.105  1.00  0.00     0.048 C 
HETATM   25  C   UNL     1       0.397  -7.013  -3.011  1.00  0.00     0.009 A 
HETATM   26  C   UNL     1       0.594  -6.128  -1.946  1.00  0.00     0.030 A 
ENDBRANCH  17  20
ENDBRANCH  15  16
ENDBRANCH   1  15
TORSDOF 3
