REMARK  10 active torsions:
REMARK  status: ('A' for Active; 'I' for Inactive)
REMARK    1  A    between atoms: C_2  and  C_3 
REMARK    2  A    between atoms: C_3  and  C_4 
REMARK    3  A    between atoms: N_7  and  C_9 
REMARK    4  A    between atoms: C_9  and  C_10 
REMARK    5  A    between atoms: C_11  and  O_12 
REMARK    6  A    between atoms: C_13  and  O_14 
REMARK    7  A    between atoms: O_14  and  C_15 
REMARK    8  A    between atoms: N_25  and  C_26 
REMARK    9  A    between atoms: C_26  and  C_27 
REMARK   10  A    between atoms: C_27  and  C_28 
ROOT
HETATM    1  C   UNL     1       2.710   0.067   0.266  1.00  0.00     0.026 C 
HETATM    2  C   UNL     1       3.793   0.155  -0.825  1.00  0.00     0.035 C 
HETATM    3  C   UNL     1       4.420   1.535  -0.983  1.00  0.00     0.235 C 
HETATM    4  N   UNL     1       3.383   2.622  -1.127  1.00  0.00    -0.067 N 
HETATM    5  H   UNL     1       2.918   2.510  -2.036  1.00  0.00     0.280 HD
HETATM    6  C   UNL     1       2.294   2.570  -0.084  1.00  0.00     0.235 C 
HETATM    7  C   UNL     1       1.685   1.182  -0.011  1.00  0.00     0.035 C 
ENDROOT
BRANCH   1   8
HETATM    8  C   UNL     1       3.251  -0.005   1.733  1.00  0.00     0.119 C 
HETATM    9  N   UNL     1       4.008   1.169   2.131  1.00  0.00    -0.324 N 
HETATM   10  C   UNL     1       3.531   1.714   3.306  1.00  0.00     0.326 C 
HETATM   11  H   UNL     1       5.009   1.270   2.007  1.00  0.00     0.165 HD
HETATM   12  O   UNL     1       4.146   2.555   3.937  1.00  0.00    -0.247 OA
HETATM   13  N   UNL     1       2.331   1.155   3.596  1.00  0.00    -0.268 N 
HETATM   14  C   UNL     1       2.092   0.099   2.759  1.00  0.00     0.256 C 
HETATM   15  O   UNL     1       1.127  -0.650   2.793  1.00  0.00    -0.270 OA
BRANCH   8  16
HETATM   16  C   UNL     1       4.109  -1.250   2.060  1.00  0.00     0.037 C 
HETATM   17  C   UNL     1       3.516  -2.592   1.657  1.00  0.00     0.008 C 
ENDBRANCH   8  16
BRANCH  13  18
HETATM   18  C   UNL     1       1.544   1.459   4.783  1.00  0.00     0.142 C 
BRANCH  18  19
HETATM   19  C   UNL     1       1.184   2.945   4.901  1.00  0.00     0.068 C 
BRANCH  19  20
HETATM   20  C   UNL     1       0.309   3.210   6.086  1.00  0.00     0.010 A 
HETATM   21  S   UNL     1      -1.388   3.396   5.896  1.00  0.00    -0.085 SA
HETATM   22  C   UNL     1      -1.535   3.645   7.583  1.00  0.00     0.166 A 
HETATM   23  N   UNL     1      -0.417   3.597   8.270  1.00  0.00    -0.258 NA
HETATM   24  C   UNL     1       0.650   3.352   7.423  1.00  0.00     0.044 A 
HETATM   25  C   UNL     1       2.011   3.267   8.018  1.00  0.00     0.071 C 
ENDBRANCH  19  20
ENDBRANCH  18  19
ENDBRANCH  13  18
ENDBRANCH   1   8
BRANCH   4  26
HETATM   26  C   UNL     1       4.088   3.983  -1.177  1.00  0.00     0.276 C 
BRANCH  26  27
HETATM   27  C   UNL     1       3.213   5.193  -1.013  1.00  0.00     0.004 A 
HETATM   28  C   UNL     1       2.985   5.731   0.260  1.00  0.00     0.107 A 
HETATM   29  C   UNL     1       2.158   6.838   0.441  1.00  0.00     0.102 A 
HETATM   30  C   UNL     1       1.515   7.412  -0.648  1.00  0.00     0.039 A 
HETATM   31  C   UNL     1       1.732   6.892  -1.926  1.00  0.00     0.003 A 
HETATM   32  C   UNL     1       2.575   5.789  -2.111  1.00  0.00     0.012 A 
BRANCH  28  33
HETATM   33  O   UNL     1       3.554   5.123   1.346  1.00  0.00    -0.357 OA
HETATM   34  H   UNL     1       3.213   5.587   2.140  1.00  0.00     0.218 HD
ENDBRANCH  28  33
BRANCH  29  35
HETATM   35  O   UNL     1       1.898   7.294   1.703  1.00  0.00    -0.349 OA
BRANCH  35  36
HETATM   36  C   UNL     1       2.873   8.262   2.120  1.00  0.00     0.171 C 
HETATM   37  C   UNL     1       2.158   9.356   2.888  1.00  0.00     0.034 C 
ENDBRANCH  35  36
ENDBRANCH  29  35
ENDBRANCH  26  27
ENDBRANCH   4  26
TORSDOF 10
