REMARK  7 active torsions:
REMARK  status: ('A' for Active; 'I' for Inactive)
REMARK    1  A    between atoms: C_2  and  C_3 
REMARK    2  A    between atoms: C_6  and  C_7 
REMARK    3  A    between atoms: C_10  and  C_11 
REMARK       I    between atoms: C_11  and  N_12 
REMARK    4  A    between atoms: N_12  and  C_13 
REMARK    5  A    between atoms: C_25  and  C_26 
REMARK       I    between atoms: C_26  and  N_27 
REMARK    6  A    between atoms: N_27  and  C_28 
REMARK    7  A    between atoms: C_31  and  O_32 
ROOT
HETATM    1  C   UNL     1       4.414   3.467   4.669  1.00  0.00     0.185 C 
HETATM    2  N   UNL     1       5.884   3.479   4.566  1.00  0.00    -0.239 N 
HETATM    3  C   UNL     1       6.619   4.566   4.153  1.00  0.00     0.142 C 
HETATM    4  C   UNL     1       7.941   4.168   4.187  1.00  0.00     0.097 C 
HETATM    5  C   UNL     1       7.868   2.783   4.489  1.00  0.00     0.160 C 
HETATM    6  N   UNL     1       6.618   2.351   4.686  1.00  0.00    -0.181 NA
HETATM    7  N   UNL     1       5.972   5.700   3.783  1.00  0.00    -0.343 N 
HETATM    8  C   UNL     1       4.580   5.775   3.691  1.00  0.00     0.021 C 
HETATM    9  C   UNL     1       4.028   7.054   3.105  1.00  0.00     0.069 C 
HETATM   10  C   UNL     1       3.809   4.733   4.087  1.00  0.00     0.061 C 
HETATM   11  H   UNL     1       6.467   6.443   3.288  1.00  0.00     0.167 HD
ENDROOT
BRANCH  10  12
HETATM   12  C   UNL     1       2.323   4.822   4.044  1.00  0.00     0.256 C 
HETATM   13  N   UNL     1       1.738   3.783   3.350  1.00  0.00    -0.323 N 
HETATM   14  H   UNL     1       2.345   3.099   2.921  1.00  0.00     0.169 HD
HETATM   15  O   UNL     1       1.760   5.768   4.581  1.00  0.00    -0.267 OA
BRANCH  13  16
HETATM   16  C   UNL     1       0.360   3.577   3.123  1.00  0.00     0.035 A 
HETATM   17  C   UNL     1      -0.644   4.442   3.556  1.00  0.00     0.032 A 
HETATM   18  C   UNL     1      -1.986   4.173   3.257  1.00  0.00     0.039 A 
HETATM   19  C   UNL     1      -2.343   3.042   2.523  1.00  0.00     0.068 A 
HETATM   20  C   UNL     1      -1.348   2.159   2.113  1.00  0.00     0.039 A 
HETATM   21  C   UNL     1      -0.005   2.429   2.409  1.00  0.00     0.032 A 
BRANCH  19  22
HETATM   22  O   UNL     1      -3.682   2.907   2.283  1.00  0.00    -0.356 OA
HETATM   23  C   UNL     1      -4.057   1.954   1.296  1.00  0.00     0.210 C 
ENDBRANCH  19  22
ENDBRANCH  13  16
ENDBRANCH  10  12
BRANCH   1  24
HETATM   24  C   UNL     1       3.992   3.167   6.104  1.00  0.00    -0.029 A 
HETATM   25  C   UNL     1       3.868   4.173   7.075  1.00  0.00     0.010 A 
HETATM   26  C   UNL     1       3.476   3.861   8.379  1.00  0.00     0.007 A 
HETATM   27  C   UNL     1       3.221   2.536   8.750  1.00  0.00    -0.059 A 
HETATM   28  C   UNL     1       3.358   1.527   7.791  1.00  0.00     0.007 A 
HETATM   29  C   UNL     1       3.743   1.838   6.485  1.00  0.00     0.010 A 
BRANCH  27  30
HETATM   30  C   UNL     1       2.781   2.202  10.152  1.00  0.00     0.034 C 
HETATM   31  C   UNL     1       1.266   2.200  10.282  1.00  0.00     0.010 C 
ENDBRANCH  27  30
ENDBRANCH   1  24
BRANCH   4  32
HETATM   32  C   UNL     1       9.150   4.925   3.918  1.00  0.00     0.261 C 
HETATM   33  N   UNL     1       9.028   6.274   4.199  1.00  0.00    -0.323 N 
HETATM   34  H   UNL     1       8.173   6.549   4.668  1.00  0.00     0.169 HD
HETATM   35  O   UNL     1      10.162   4.358   3.524  1.00  0.00    -0.267 OA
BRANCH  33  36
HETATM   36  C   UNL     1      10.000   7.280   4.029  1.00  0.00     0.035 A 
HETATM   37  C   UNL     1      11.243   7.072   3.429  1.00  0.00     0.029 A 
HETATM   38  C   UNL     1      12.155   8.125   3.300  1.00  0.00     0.002 A 
HETATM   39  C   UNL     1      11.829   9.397   3.765  1.00  0.00     0.000 A 
HETATM   40  C   UNL     1      10.589   9.617   4.358  1.00  0.00     0.002 A 
HETATM   41  C   UNL     1       9.679   8.565   4.488  1.00  0.00     0.029 A 
ENDBRANCH  33  36
ENDBRANCH   4  32
TORSDOF 7
