REMARK  10 active torsions:
REMARK  status: ('A' for Active; 'I' for Inactive)
REMARK    1  A    between atoms: C_2  and  N_3 
REMARK    2  A    between atoms: N_3  and  N_4 
REMARK       I    between atoms: N_4  and  C_5 
REMARK    3  A    between atoms: C_5  and  C_6 
REMARK    4  A    between atoms: C_7  and  N_8 
REMARK    5  A    between atoms: C_14  and  C_15 
REMARK       I    between atoms: C_15  and  N_16 
REMARK    6  A    between atoms: N_16  and  C_17 
REMARK    7  A    between atoms: C_17  and  C_18 
REMARK    8  A    between atoms: C_18  and  C_19 
REMARK    9  A    between atoms: C_21  and  O_22 
REMARK   10  A    between atoms: C_24  and  O_25 
ROOT
HETATM    1  C   UNL     1       5.231  -0.712  -1.624  1.00  0.00     0.070 C 
HETATM    2  C   UNL     1       4.168  -0.573  -0.556  1.00  0.00     0.027 C 
HETATM    3  C   UNL     1       2.917  -1.050  -0.731  1.00  0.00     0.100 C 
ENDROOT
BRANCH   2   4
HETATM    4  N   UNL     1       4.598   0.063   0.601  1.00  0.00    -0.302 N 
HETATM    5  H   UNL     1       5.337   0.766   0.469  1.00  0.00     0.186 HD
BRANCH   4   6
HETATM    6  N   UNL     1       3.785   0.327   1.705  1.00  0.00    -0.266 N 
HETATM    7  C   UNL     1       4.300   1.211   2.641  1.00  0.00     0.271 C 
HETATM    8  O   UNL     1       5.146   2.062   2.387  1.00  0.00    -0.266 OA
HETATM    9  H   UNL     1       3.239  -0.461   2.054  1.00  0.00     0.190 HD
BRANCH   7  10
HETATM   10  C   UNL     1       3.759   1.049   4.018  1.00  0.00     0.054 A 
HETATM   11  C   UNL     1       3.478  -0.219   4.570  1.00  0.00     0.021 A 
HETATM   12  C   UNL     1       2.833  -0.271   5.813  1.00  0.00     0.024 A 
HETATM   13  C   UNL     1       2.597   0.895   6.548  1.00  0.00     0.002 A 
HETATM   14  C   UNL     1       2.968   2.135   6.033  1.00  0.00     0.001 A 
HETATM   15  C   UNL     1       3.542   2.215   4.766  1.00  0.00     0.019 A 
BRANCH  11  16
HETATM   16  N   UNL     1       3.645  -1.423   3.846  1.00  0.00    -0.302 NA
HETATM   17  H   UNL     1       4.501  -1.414   3.285  1.00  0.00     0.124 HD
HETATM   18  H   UNL     1       3.646  -2.243   4.450  1.00  0.00     0.124 HD
ENDBRANCH  11  16
ENDBRANCH   7  10
ENDBRANCH   4   6
ENDBRANCH   2   4
BRANCH   3  19
HETATM   19  C   UNL     1       2.420  -1.775  -1.934  1.00  0.00     0.243 C 
HETATM   20  N   UNL     1       1.074  -2.050  -1.864  1.00  0.00    -0.357 N 
HETATM   21  H   UNL     1       0.530  -1.733  -1.075  1.00  0.00     0.162 HD
HETATM   22  O   UNL     1       3.127  -2.104  -2.875  1.00  0.00    -0.269 OA
BRANCH  20  23
HETATM   23  C   UNL     1       0.381  -2.743  -2.935  1.00  0.00     0.127 C 
BRANCH  23  24
HETATM   24  C   UNL     1       0.699  -4.241  -2.974  1.00  0.00     0.058 C 
BRANCH  24  25
HETATM   25  C   UNL     1      -0.213  -4.979  -3.924  1.00  0.00    -0.054 A 
HETATM   26  C   UNL     1      -0.030  -4.874  -5.312  1.00  0.00     0.046 A 
HETATM   27  C   UNL     1      -0.895  -5.525  -6.202  1.00  0.00     0.102 A 
HETATM   28  C   UNL     1      -1.961  -6.296  -5.697  1.00  0.00     0.101 A 
HETATM   29  C   UNL     1      -2.134  -6.409  -4.313  1.00  0.00     0.040 A 
HETATM   30  C   UNL     1      -1.269  -5.753  -3.435  1.00  0.00     0.010 A 
BRANCH  27  31
HETATM   31  O   UNL     1      -0.791  -5.464  -7.570  1.00  0.00    -0.353 OA
HETATM   32  C   UNL     1       0.260  -4.682  -8.118  1.00  0.00     0.210 C 
ENDBRANCH  27  31
BRANCH  28  33
HETATM   33  O   UNL     1      -2.769  -6.898  -6.630  1.00  0.00    -0.353 OA
HETATM   34  C   UNL     1      -3.912  -7.596  -6.159  1.00  0.00     0.210 C 
ENDBRANCH  28  33
ENDBRANCH  24  25
ENDBRANCH  23  24
ENDBRANCH  20  23
ENDBRANCH   3  19
TORSDOF 10
