REMARK  5 active torsions:
REMARK  status: ('A' for Active; 'I' for Inactive)
REMARK    1  A    between atoms: C_2  and  C_3 
REMARK    2  A    between atoms: C_6  and  C_7 
REMARK    3  A    between atoms: C_11  and  C_12 
REMARK       I    between atoms: C_12  and  N_13 
REMARK    4  A    between atoms: N_13  and  N_14 
REMARK    5  A    between atoms: C_15  and  C_16 
ROOT
HETATM    1  C   UNL     1       4.117  -8.783   1.592  1.00  0.00     0.289 C 
HETATM    2  N   UNL     1       2.923  -9.073   0.944  1.00  0.00    -0.242 N 
HETATM    3  O   UNL     1       4.857  -9.616   2.107  1.00  0.00    -0.264 OA
HETATM    4  H   UNL     1       2.493  -8.347   0.383  1.00  0.00     0.192 HD
ENDROOT
BRANCH   1   5
HETATM    5  C   UNL     1       4.458  -7.381   1.617  1.00  0.00     0.121 A 
HETATM    6  N   UNL     1       5.620  -6.945   2.189  1.00  0.00    -0.272 N 
HETATM    7  N   UNL     1       5.783  -5.616   2.163  1.00  0.00    -0.174 NA
HETATM    8  H   UNL     1       6.337  -7.520   2.623  1.00  0.00     0.189 HD
HETATM    9  C   UNL     1       4.693  -5.150   1.534  1.00  0.00     0.089 A 
HETATM   10  C   UNL     1       3.835  -6.230   1.176  1.00  0.00     0.071 A 
BRANCH   9  11
HETATM   11  C   UNL     1       4.491  -3.716   1.304  1.00  0.00    -0.006 A 
HETATM   12  C   UNL     1       3.622  -3.256   0.305  1.00  0.00     0.014 A 
HETATM   13  C   UNL     1       3.435  -1.884   0.099  1.00  0.00     0.008 A 
HETATM   14  C   UNL     1       4.114  -0.946   0.884  1.00  0.00    -0.059 A 
HETATM   15  C   UNL     1       4.978  -1.401   1.886  1.00  0.00     0.008 A 
HETATM   16  C   UNL     1       5.167  -2.771   2.089  1.00  0.00     0.014 A 
BRANCH  14  17
HETATM   17  C   UNL     1       3.902   0.531   0.671  1.00  0.00     0.034 C 
HETATM   18  C   UNL     1       2.742   1.062   1.501  1.00  0.00     0.010 C 
ENDBRANCH  14  17
ENDBRANCH   9  11
ENDBRANCH   1   5
BRANCH   2  19
HETATM   19  N   UNL     1       2.376 -10.314   0.724  1.00  0.00    -0.183 NA
HETATM   20  C   UNL     1       2.661 -11.289   1.528  1.00  0.00     0.153 C 
BRANCH  20  21
HETATM   21  C   UNL     1       2.102 -12.612   1.293  1.00  0.00     0.018 A 
HETATM   22  C   UNL     1       2.340 -13.775   2.102  1.00  0.00     0.004 A 
HETATM   23  C   UNL     1       1.610 -14.826   1.551  1.00  0.00     0.043 A 
HETATM   24  C   UNL     1       3.111 -14.031   3.257  1.00  0.00     0.014 A 
HETATM   25  C   UNL     1       1.603 -16.116   2.096  1.00  0.00     0.030 A 
HETATM   26  N   UNL     1       0.961 -14.331   0.447  1.00  0.00    -0.358 N 
HETATM   27  C   UNL     1       2.372 -16.341   3.240  1.00  0.00     0.002 A 
HETATM   28  C   UNL     1       3.118 -15.316   3.814  1.00  0.00     0.001 A 
HETATM   29  H   UNL     1       0.357 -14.880  -0.150  1.00  0.00     0.166 HD
HETATM   30  C   UNL     1       1.244 -12.999   0.271  1.00  0.00     0.018 A 
HETATM   31  C   UNL     1       0.657 -12.235  -0.862  1.00  0.00     0.069 C 
ENDBRANCH  20  21
ENDBRANCH   2  19
TORSDOF 5
