REMARK  3 active torsions:
REMARK  status: ('A' for Active; 'I' for Inactive)
REMARK    1  A    between atoms: N_7  and  C_9 
REMARK    2  A    between atoms: C_9  and  C_10 
REMARK    3  A    between atoms: C_13  and  C_14 
ROOT
HETATM    1  C   UNL     1       0.919   0.406   0.000  1.00  0.00     0.269 C 
HETATM    2  N   UNL     1       2.413   0.192  -0.143  1.00  0.00    -0.074 N 
HETATM    3  H   UNL     1       2.714  -0.161   0.777  1.00  0.00     0.279 HD
HETATM    4  C   UNL     1       3.134   1.481  -0.457  1.00  0.00     0.245 C 
HETATM    5  C   UNL     1       4.683   1.291  -0.478  1.00  0.00     0.008 C 
HETATM    6  C   UNL     1       5.302   2.636  -0.973  1.00  0.00     0.246 C 
HETATM    7  N   UNL     1       6.789   2.778  -0.736  1.00  0.00    -0.063 N 
HETATM    8  H   UNL     1       6.963   3.794  -0.843  1.00  0.00     0.280 HD
HETATM    9  C   UNL     1       7.223   2.468   0.670  1.00  0.00     0.235 C 
HETATM   10  C   UNL     1       6.720   1.095   1.081  1.00  0.00     0.029 C 
HETATM   11  C   UNL     1       5.200   0.992   0.952  1.00  0.00     0.014 C 
HETATM   12  C   UNL     1       5.004   0.128  -1.453  1.00  0.00     0.014 C 
HETATM   13  C   UNL     1       4.195  -1.147  -1.194  1.00  0.00     0.029 C 
HETATM   14  C   UNL     1       2.698  -0.892  -1.155  1.00  0.00     0.234 C 
ENDROOT
BRANCH   7  15
HETATM   15  C   UNL     1       7.733   2.225  -1.818  1.00  0.00     0.323 C 
BRANCH  15  16
HETATM   16  C   UNL     1       7.587   2.923  -3.119  1.00  0.00     0.199 A 
HETATM   17  O   UNL     1       7.816   2.204  -4.245  1.00  0.00    -0.194 OA
HETATM   18  N   UNL     1       7.589   3.068  -5.307  1.00  0.00    -0.106 NA
HETATM   19  C   UNL     1       7.269   4.237  -4.726  1.00  0.00     0.189 A 
HETATM   20  N   UNL     1       7.203   4.160  -3.342  1.00  0.00    -0.202 NA
BRANCH  19  21
HETATM   21  C   UNL     1       7.003   5.471  -5.457  1.00  0.00     0.016 A 
HETATM   22  C   UNL     1       6.729   6.657  -4.761  1.00  0.00     0.039 A 
HETATM   23  C   UNL     1       6.489   7.843  -5.457  1.00  0.00     0.035 A 
HETATM   24 CL   UNL     1       6.152   9.283  -4.578  1.00  0.00    -0.084 Cl
HETATM   25  C   UNL     1       6.520   7.868  -6.848  1.00  0.00     0.024 A 
HETATM   26  C   UNL     1       6.793   6.696  -7.551  1.00  0.00     0.003 A 
HETATM   27  C   UNL     1       7.033   5.504  -6.861  1.00  0.00     0.015 A 
ENDBRANCH  19  21
ENDBRANCH  15  16
ENDBRANCH   7  15
TORSDOF 3
