REMARK  6 active torsions:
REMARK  status: ('A' for Active; 'I' for Inactive)
REMARK    1  A    between atoms: C_2  and  O_3 
REMARK    2  A    between atoms: O_3  and  C_4 
REMARK    3  A    between atoms: C_8  and  C_9 
REMARK    4  A    between atoms: C_9  and  N_10 
REMARK       I    between atoms: N_10  and  C_11 
REMARK       I    between atoms: C_11  and  N_12 
REMARK    5  A    between atoms: N_12  and  C_13 
REMARK    6  A    between atoms: C_14  and  C_15 
ROOT
HETATM    1  N   UNL     1      -1.169  -0.349   9.627  1.00  0.00    -0.339 N 
HETATM    2  C   UNL     1      -0.421   0.001  10.719  1.00  0.00     0.316 C 
HETATM    3  N   UNL     1      -1.036   0.965  11.481  1.00  0.00    -0.338 N 
HETATM    4  O   UNL     1       0.669  -0.491  10.981  1.00  0.00    -0.247 OA
HETATM    5  H   UNL     1      -2.022   0.149   9.429  1.00  0.00     0.164 HD
HETATM    6  H   UNL     1      -2.025   1.112  11.333  1.00  0.00     0.164 HD
ENDROOT
BRANCH   1   7
HETATM    7  C   UNL     1      -0.704  -1.320   8.662  1.00  0.00     0.163 C 
BRANCH   7   8
HETATM    8  C   UNL     1      -1.529  -2.580   8.671  1.00  0.00    -0.035 A 
HETATM    9  C   UNL     1      -1.920  -3.194   9.864  1.00  0.00     0.028 A 
HETATM   10  C   UNL     1      -2.626  -4.385   9.800  1.00  0.00     0.120 A 
HETATM   11  N   UNL     1      -2.946  -5.011   8.648  1.00  0.00    -0.237 NA
HETATM   12  C   UNL     1      -2.532  -4.428   7.509  1.00  0.00     0.165 A 
HETATM   13  C   UNL     1      -1.846  -3.223   7.470  1.00  0.00     0.066 A 
BRANCH  12  14
HETATM   14  O   UNL     1      -2.796  -5.006   6.289  1.00  0.00    -0.324 OA
BRANCH  14  15
HETATM   15  C   UNL     1      -3.139  -6.403   6.220  1.00  0.00     0.058 C 
HETATM   16  C   UNL     1      -4.554  -6.684   6.745  1.00  0.00     0.045 C 
HETATM   17  C   UNL     1      -2.085  -7.315   6.869  1.00  0.00     0.045 C 
HETATM   18  C   UNL     1      -3.137  -6.704   4.708  1.00  0.00     0.045 C 
ENDBRANCH  14  15
ENDBRANCH  12  14
ENDBRANCH   7   8
ENDBRANCH   1   7
BRANCH   3  19
HETATM   19  C   UNL     1      -0.483   1.438  12.719  1.00  0.00     0.095 A 
HETATM   20  C   UNL     1      -1.339   1.692  13.944  1.00  0.00     0.043 A 
HETATM   21  C   UNL     1      -0.752   2.844  13.165  1.00  0.00     0.037 A 
BRANCH  20  22
HETATM   22  C   UNL     1      -2.828   1.433  13.926  1.00  0.00    -0.052 A 
HETATM   23  C   UNL     1      -3.336   0.137  13.727  1.00  0.00     0.007 A 
HETATM   24  C   UNL     1      -4.710  -0.114  13.714  1.00  0.00     0.001 A 
HETATM   25  C   UNL     1      -5.609   0.930  13.912  1.00  0.00     0.000 A 
HETATM   26  C   UNL     1      -5.134   2.220  14.127  1.00  0.00     0.001 A 
HETATM   27  C   UNL     1      -3.758   2.465  14.137  1.00  0.00     0.007 A 
ENDBRANCH  20  22
ENDBRANCH   3  19
TORSDOF 6
