REMARK  3 active torsions:
REMARK  status: ('A' for Active; 'I' for Inactive)
REMARK    1  A    between atoms: C_6  and  C_7 
REMARK       I    between atoms: C_7  and  N_8 
REMARK    2  A    between atoms: N_8  and  C_9 
REMARK    3  A    between atoms: C_11  and  C_12 
REMARK       I    between atoms: C_12  and  N_13 
ROOT
HETATM    1  C   UNL     1       6.831   0.470  -0.457  1.00  0.00     0.258 C 
HETATM    2  N   UNL     1       7.250   1.546   0.300  1.00  0.00    -0.307 N 
HETATM    3  O   UNL     1       7.502  -0.273  -1.160  1.00  0.00    -0.267 OA
HETATM    4  H   UNL     1       6.556   2.033   0.847  1.00  0.00     0.170 HD
ENDROOT
BRANCH   2   5
HETATM    5  C   UNL     1       8.566   2.018   0.361  1.00  0.00     0.131 A 
HETATM    6  N   UNL     1       9.538   1.393  -0.317  1.00  0.00    -0.226 NA
HETATM    7  C   UNL     1      10.797   1.895  -0.229  1.00  0.00     0.126 A 
HETATM    8  C   UNL     1      11.131   3.016   0.512  1.00  0.00     0.037 A 
HETATM    9  C   UNL     1      10.113   3.655   1.208  1.00  0.00     0.006 A 
HETATM   10  C   UNL     1       8.814   3.148   1.136  1.00  0.00     0.050 A 
BRANCH   7  11
HETATM   11  C   UNL     1      11.843   1.150  -0.995  1.00  0.00     0.268 C 
HETATM   12  N   UNL     1      11.385   0.052  -1.672  1.00  0.00    -0.365 N 
HETATM   13  H   UNL     1      10.393  -0.178  -1.625  1.00  0.00     0.159 HD
HETATM   14  H   UNL     1      12.015  -0.513  -2.220  1.00  0.00     0.159 HD
HETATM   15  O   UNL     1      13.019   1.490  -1.014  1.00  0.00    -0.266 OA
ENDBRANCH   7  11
ENDBRANCH   2   5
BRANCH   1  16
HETATM   16  C   UNL     1       5.368   0.221  -0.346  1.00  0.00     0.044 A 
HETATM   17  C   UNL     1       4.451   1.159  -0.865  1.00  0.00    -0.045 A 
HETATM   18  C   UNL     1       3.078   0.927  -0.692  1.00  0.00     0.014 A 
HETATM   19  C   UNL     1       4.892   2.402  -1.589  1.00  0.00     0.049 C 
HETATM   20  C   UNL     1       2.616  -0.225  -0.044  1.00  0.00    -0.061 A 
HETATM   21  C   UNL     1       1.142  -0.481   0.083  1.00  0.00     0.048 C 
HETATM   22  C   UNL     1       3.540  -1.170   0.418  1.00  0.00     0.014 A 
HETATM   23  C   UNL     1       4.920  -0.957   0.286  1.00  0.00    -0.045 A 
HETATM   24  C   UNL     1       5.879  -2.001   0.789  1.00  0.00     0.049 C 
ENDBRANCH   1  16
TORSDOF 3
