REMARK  5 active torsions:
REMARK  status: ('A' for Active; 'I' for Inactive)
REMARK    1  A    between atoms: C_7  and  C_8 
REMARK    2  A    between atoms: C_16  and  C_17 
REMARK    3  A    between atoms: C_19  and  O_20 
REMARK    4  A    between atoms: C_24  and  C_25 
REMARK       I    between atoms: C_25  and  N_26 
REMARK    5  A    between atoms: N_26  and  C_27 
ROOT
HETATM    1  C   UNL     1       1.094   0.071   0.208  1.00  0.00     0.070 C 
HETATM    2  C   UNL     1       2.581  -0.007   0.454  1.00  0.00     0.037 C 
HETATM    3  N   UNL     1       3.212   1.205   0.731  1.00  0.00    -0.192 N 
HETATM    4  C   UNL     1       4.553   1.341   0.737  1.00  0.00     0.726 A 
HETATM    5  N   UNL     1       5.334   0.225   0.666  1.00  0.00    -0.083 N 
HETATM    6  N   UNL     1       6.643   0.532   0.632  1.00  0.00    -0.135 NA
HETATM    7  C   UNL     1       6.598   1.876   0.704  1.00  0.00     0.200 A 
HETATM    8  N   UNL     1       5.320   2.398   0.788  1.00  0.00    -0.041 NA
HETATM    9  C   UNL     1       4.809  -1.142   0.671  1.00  0.00     0.202 C 
HETATM   10  C   UNL     1       3.306  -1.155   0.409  1.00  0.00     0.062 C 
HETATM   11  H   UNL     1       2.651   2.050   0.640  1.00  0.00     0.184 HD
ENDROOT
BRANCH  10  12
HETATM   12  C   UNL     1       2.700  -2.415  -0.116  1.00  0.00     0.256 C 
HETATM   13  N   UNL     1       2.990  -3.540   0.623  1.00  0.00    -0.323 N 
HETATM   14  H   UNL     1       3.544  -3.437   1.463  1.00  0.00     0.169 HD
HETATM   15  O   UNL     1       2.041  -2.371  -1.149  1.00  0.00    -0.267 OA
BRANCH  13  16
HETATM   16  C   UNL     1       2.604  -4.870   0.346  1.00  0.00     0.035 A 
HETATM   17  C   UNL     1       1.719  -5.234  -0.670  1.00  0.00     0.029 A 
HETATM   18  C   UNL     1       1.389  -6.579  -0.873  1.00  0.00     0.002 A 
HETATM   19  C   UNL     1       1.950  -7.569  -0.070  1.00  0.00     0.000 A 
HETATM   20  C   UNL     1       2.835  -7.217   0.944  1.00  0.00     0.002 A 
HETATM   21  C   UNL     1       3.155  -5.873   1.156  1.00  0.00     0.029 A 
ENDBRANCH  13  16
ENDBRANCH  10  12
BRANCH   9  22
HETATM   22  C   UNL     1       5.201  -1.805   1.993  1.00  0.00    -0.025 A 
HETATM   23  C   UNL     1       4.536  -1.502   3.197  1.00  0.00     0.046 A 
HETATM   24  C   UNL     1       4.909  -2.139   4.377  1.00  0.00     0.066 A 
HETATM   25  C   UNL     1       5.942  -3.067   4.391  1.00  0.00     0.036 A 
HETATM   26  C   UNL     1       6.623  -3.359   3.212  1.00  0.00     0.003 A 
HETATM   27  C   UNL     1       6.257  -2.733   2.019  1.00  0.00     0.010 A 
BRANCH  24  28
HETATM   28  O   UNL     1       4.276  -1.879   5.556  1.00  0.00    -0.361 OA
HETATM   29  H   UNL     1       3.644  -1.152   5.424  1.00  0.00     0.217 HD
ENDBRANCH  24  28
ENDBRANCH   9  22
BRANCH   7  30
HETATM   30  C   UNL     1       7.797   2.699   0.783  1.00  0.00     0.036 A 
HETATM   31  C   UNL     1       7.944   3.909   0.089  1.00  0.00     0.048 A 
HETATM   32 CL   UNL     1       6.746   4.528  -0.997  1.00  0.00    -0.083 Cl
HETATM   33  C   UNL     1       9.122   4.657   0.220  1.00  0.00     0.025 A 
HETATM   34  C   UNL     1      10.161   4.208   1.037  1.00  0.00     0.002 A 
HETATM   35  C   UNL     1      10.031   3.005   1.723  1.00  0.00     0.001 A 
HETATM   36  C   UNL     1       8.860   2.256   1.595  1.00  0.00     0.017 A 
ENDBRANCH   7  30
TORSDOF 5
