REMARK  11 active torsions:
REMARK  status: ('A' for Active; 'I' for Inactive)
REMARK    1  A    between atoms: C_2  and  C_3 
REMARK    2  A    between atoms: C_3  and  N_4 
REMARK    3  A    between atoms: N_4  and  C_6 
REMARK    4  A    between atoms: N_4  and  C_30 
REMARK    5  A    between atoms: C_6  and  C_7 
REMARK    6  A    between atoms: N_8  and  C_9 
REMARK    7  A    between atoms: C_13  and  N_14 
REMARK    8  A    between atoms: C_17  and  C_18 
REMARK       I    between atoms: C_18  and  N_19 
REMARK    9  A    between atoms: N_19  and  N_20 
REMARK   10  A    between atoms: C_21  and  C_22 
REMARK   11  A    between atoms: C_30  and  C_31 
ROOT
HETATM    1  C   UNL     1       4.650  -1.385   0.642  1.00  0.00     0.096 A 
HETATM    2  N   UNL     1       4.368  -2.525   1.397  1.00  0.00    -0.215 N 
HETATM    3  N   UNL     1       3.947  -2.129   2.631  1.00  0.00     0.012 NA
HETATM    4  N   UNL     1       4.038  -0.814   2.729  1.00  0.00    -0.152 NA
HETATM    5  C   UNL     1       4.481  -0.335   1.535  1.00  0.00     0.170 A 
ENDROOT
BRANCH   5   6
HETATM    6  C   UNL     1       4.717   1.075   1.262  1.00  0.00     0.293 C 
HETATM    7  N   UNL     1       4.227   1.927   2.230  1.00  0.00    -0.242 N 
HETATM    8  H   UNL     1       3.760   1.553   3.053  1.00  0.00     0.192 HD
HETATM    9  O   UNL     1       5.311   1.401   0.236  1.00  0.00    -0.264 OA
BRANCH   7  10
HETATM   10  N   UNL     1       4.252   3.272   2.013  1.00  0.00    -0.184 NA
HETATM   11  C   UNL     1       3.751   4.004   2.958  1.00  0.00     0.150 C 
BRANCH  11  12
HETATM   12  C   UNL     1       3.664   5.473   2.836  1.00  0.00    -0.017 A 
HETATM   13  C   UNL     1       4.049   6.118   1.655  1.00  0.00     0.014 A 
HETATM   14  C   UNL     1       3.935   7.506   1.551  1.00  0.00     0.020 A 
HETATM   15  C   UNL     1       3.439   8.241   2.627  1.00  0.00     0.011 A 
HETATM   16 BR   UNL     1       3.279  10.119   2.483  1.00  0.00    -0.051 Br
HETATM   17  C   UNL     1       3.058   7.603   3.808  1.00  0.00     0.020 A 
HETATM   18  C   UNL     1       3.169   6.214   3.914  1.00  0.00     0.014 A 
ENDBRANCH  11  12
ENDBRANCH   7  10
ENDBRANCH   5   6
BRANCH   1  19
HETATM   19  C   UNL     1       4.954  -1.343  -0.813  1.00  0.00     0.296 C 
BRANCH  19  20
HETATM   20  N   UNL     1       6.259  -0.657  -1.195  1.00  0.00    -0.066 N 
HETATM   21  H   UNL     1       6.159   0.322  -0.855  1.00  0.00     0.280 HD
BRANCH  20  22
HETATM   22  C   UNL     1       6.463  -0.613  -2.701  1.00  0.00     0.235 C 
BRANCH  22  23
HETATM   23  C   UNL     1       5.400   0.172  -3.467  1.00  0.00     0.023 C 
HETATM   24  C   UNL     1       5.351   1.652  -3.127  1.00  0.00     0.007 C 
ENDBRANCH  22  23
ENDBRANCH  20  22
BRANCH  20  25
HETATM   25  C   UNL     1       7.452  -1.284  -0.492  1.00  0.00     0.235 C 
BRANCH  25  26
HETATM   26  C   UNL     1       8.742  -0.473  -0.616  1.00  0.00     0.023 C 
HETATM   27  C   UNL     1       8.632   0.957  -0.112  1.00  0.00     0.007 C 
ENDBRANCH  25  26
ENDBRANCH  20  25
ENDBRANCH  19  20
ENDBRANCH   1  19
BRANCH   2  28
HETATM   28  C   UNL     1       4.509  -3.893   1.063  1.00  0.00     0.225 A 
HETATM   29  N   UNL     1       5.075  -4.249  -0.091  1.00  0.00    -0.081 NA
HETATM   30  O   UNL     1       5.061  -5.646  -0.053  1.00  0.00    -0.103 OA
HETATM   31  N   UNL     1       4.506  -6.110   1.131  1.00  0.00    -0.083 NA
HETATM   32  C   UNL     1       4.167  -5.025   1.824  1.00  0.00     0.201 A 
BRANCH  32  33
HETATM   33  N   UNL     1       3.593  -5.048   3.037  1.00  0.00    -0.379 N 
HETATM   34  H   UNL     1       3.473  -5.930   3.529  1.00  0.00     0.158 HD
HETATM   35  H   UNL     1       3.446  -4.219   3.610  1.00  0.00     0.158 HD
ENDBRANCH  32  33
ENDBRANCH   2  28
TORSDOF 11
