REMARK  4 active torsions:
REMARK  status: ('A' for Active; 'I' for Inactive)
REMARK    1  A    between atoms: C_4  and  C_5 
REMARK    2  A    between atoms: C_9  and  C_10 
REMARK       I    between atoms: C_10  and  N_11 
REMARK    3  A    between atoms: C_17  and  O_18 
REMARK    4  A    between atoms: C_25  and  O_26 
ROOT
HETATM    1  C   UNL     1       5.582   2.202  -0.576  1.00  0.00     0.065 A 
HETATM    2  N   UNL     1       5.199   3.441  -0.135  1.00  0.00    -0.277 N 
HETATM    3  H   UNL     1       4.367   3.680   0.395  1.00  0.00     0.189 HD
HETATM    4  N   UNL     1       6.062   4.422  -0.436  1.00  0.00    -0.169 NA
HETATM    5  C   UNL     1       7.044   3.813  -1.129  1.00  0.00     0.149 A 
HETATM    6  C   UNL     1       6.776   2.418  -1.234  1.00  0.00     0.071 A 
ENDROOT
BRANCH   5   7
HETATM    7  C   UNL     1       8.233   4.504  -1.669  1.00  0.00     0.299 C 
HETATM    8  N   UNL     1       8.177   5.868  -1.534  1.00  0.00    -0.183 NA
HETATM    9  C   UNL     1       9.289   6.507  -1.563  1.00  0.00     0.175 A 
HETATM   10  S   UNL     1       9.236   8.292  -1.404  1.00  0.00    -0.050 SA
HETATM   11  N   UNL     1      10.589   6.083  -1.717  1.00  0.00    -0.334 N 
HETATM   12  C   UNL     1      10.995   8.392  -1.671  1.00  0.00     0.037 A 
HETATM   13  C   UNL     1      11.527   7.108  -1.850  1.00  0.00     0.051 A 
HETATM   14  C   UNL     1      11.792   9.523  -1.712  1.00  0.00     0.058 A 
HETATM   15  C   UNL     1      12.889   6.944  -2.029  1.00  0.00     0.034 A 
HETATM   16  C   UNL     1      13.709   8.080  -2.071  1.00  0.00     0.039 A 
HETATM   17  C   UNL     1      13.166   9.367  -1.917  1.00  0.00     0.069 A 
HETATM   18  H   UNL     1      10.770   5.144  -2.050  1.00  0.00     0.168 HD
HETATM   19  O   UNL     1       9.163   3.884  -2.184  1.00  0.00    -0.263 OA
BRANCH  17  20
HETATM   20  O   UNL     1      13.871  10.540  -1.940  1.00  0.00    -0.356 OA
HETATM   21  C   UNL     1      15.279  10.445  -2.120  1.00  0.00     0.210 C 
ENDBRANCH  17  20
ENDBRANCH   5   7
BRANCH   1  22
HETATM   22  C   UNL     1       4.800   0.991  -0.344  1.00  0.00     0.026 A 
HETATM   23  C   UNL     1       3.434   0.980  -0.676  1.00  0.00     0.023 A 
HETATM   24  C   UNL     1       2.645  -0.163  -0.474  1.00  0.00    -0.061 A 
HETATM   25  C   UNL     1       1.196  -0.169  -0.863  1.00  0.00     0.048 C 
HETATM   26  C   UNL     1       3.241  -1.321   0.035  1.00  0.00     0.009 A 
HETATM   27  C   UNL     1       4.595  -1.327   0.367  1.00  0.00     0.038 A 
HETATM   28  C   UNL     1       5.363  -0.179   0.188  1.00  0.00     0.078 A 
BRANCH  28  29
HETATM   29  O   UNL     1       6.670  -0.269   0.585  1.00  0.00    -0.360 OA
HETATM   30  H   UNL     1       7.052   0.624   0.588  1.00  0.00     0.217 HD
ENDBRANCH  28  29
ENDBRANCH   1  22
TORSDOF 4
