REMARK  2 active torsions:
REMARK  status: ('A' for Active; 'I' for Inactive)
REMARK    1  A    between atoms: C_4  and  C_5 
REMARK       I    between atoms: C_5  and  N_6 
REMARK    2  A    between atoms: N_6  and  N_7 
ROOT
HETATM    1  N   UNL     1       2.731   3.052  -0.274  1.00  0.00    -0.282 N 
HETATM    2  C   UNL     1       3.410   4.179  -0.460  1.00  0.00     0.127 C 
HETATM    3  C   UNL     1       4.819   4.103  -0.932  1.00  0.00     0.015 A 
HETATM    4  C   UNL     1       5.672   5.201  -0.698  1.00  0.00    -0.042 A 
HETATM    5  C   UNL     1       7.016   5.159  -1.088  1.00  0.00     0.008 A 
HETATM    6  C   UNL     1       7.513   4.040  -1.750  1.00  0.00     0.001 A 
HETATM    7  C   UNL     1       6.674   2.964  -2.023  1.00  0.00     0.001 A 
HETATM    8  C   UNL     1       5.336   2.993  -1.620  1.00  0.00     0.016 A 
HETATM    9  C   UNL     1       5.117   6.410   0.010  1.00  0.00     0.070 C 
HETATM   10  C   UNL     1       3.651   6.645  -0.391  1.00  0.00     0.035 C 
HETATM   11  C   UNL     1       2.996   7.740   0.479  1.00  0.00     0.031 C 
HETATM   12  C   UNL     1       2.671   8.882  -0.477  1.00  0.00     0.002 C 
HETATM   13  C   UNL     1       2.390   8.179  -1.791  1.00  0.00     0.002 C 
HETATM   14  C   UNL     1       3.481   7.119  -1.849  1.00  0.00     0.031 C 
HETATM   15  N   UNL     1       2.881   5.379  -0.218  1.00  0.00    -0.365 N 
HETATM   16  H   UNL     1       1.924   5.427   0.088  1.00  0.00     0.162 HD
HETATM   17  H   UNL     1       3.243   2.172  -0.411  1.00  0.00     0.188 HD
ENDROOT
BRANCH   1  18
HETATM   18  N   UNL     1       1.469   2.904   0.123  1.00  0.00    -0.264 N 
HETATM   19  C   UNL     1       1.065   1.589   0.315  1.00  0.00     0.270 C 
HETATM   20  O   UNL     1       1.851   0.661   0.136  1.00  0.00    -0.266 OA
HETATM   21  H   UNL     1       0.872   3.688   0.353  1.00  0.00     0.190 HD
BRANCH  19  22
HETATM   22  C   UNL     1      -0.323   1.366   0.786  1.00  0.00     0.033 A 
HETATM   23  C   UNL     1      -1.374   2.229   0.446  1.00  0.00     0.017 A 
HETATM   24  C   UNL     1      -2.662   1.974   0.922  1.00  0.00     0.001 A 
HETATM   25  C   UNL     1      -2.905   0.860   1.728  1.00  0.00     0.000 A 
HETATM   26  C   UNL     1      -1.864  -0.009   2.052  1.00  0.00     0.001 A 
HETATM   27  C   UNL     1      -0.576   0.238   1.578  1.00  0.00     0.017 A 
ENDBRANCH  19  22
ENDBRANCH   1  18
TORSDOF 2
