REMARK  9 active torsions:
REMARK  status: ('A' for Active; 'I' for Inactive)
REMARK    1  A    between atoms: C_2  and  O_3 
REMARK    2  A    between atoms: O_3  and  C_4 
REMARK    3  A    between atoms: C_4  and  C_5 
REMARK    4  A    between atoms: C_7  and  C_8 
REMARK       I    between atoms: C_8  and  N_9 
REMARK    5  A    between atoms: N_9  and  N_10 
REMARK    6  A    between atoms: N_10  and  C_11 
REMARK    7  A    between atoms: C_11  and  N_12 
REMARK    8  A    between atoms: N_12  and  C_13 
REMARK    9  A    between atoms: C_13  and  C_14 
ROOT
HETATM    1  C   UNL     1       2.133   8.094   0.051  1.00  0.00     0.293 C 
HETATM    2  N   UNL     1       1.051   8.877  -0.329  1.00  0.00    -0.262 N 
HETATM    3  O   UNL     1       3.106   8.692   0.515  1.00  0.00    -0.264 OA
HETATM    4  H   UNL     1       1.186   9.842  -0.026  1.00  0.00     0.190 HD
ENDROOT
BRANCH   1   5
HETATM    5  C   UNL     1       2.123   6.660  -0.169  1.00  0.00     0.145 A 
HETATM    6  O   UNL     1       3.231   5.967   0.262  1.00  0.00    -0.307 OA
HETATM    7  C   UNL     1       3.088   4.663  -0.098  1.00  0.00     0.078 A 
HETATM    8  C   UNL     1       1.882   4.487  -0.738  1.00  0.00     0.038 A 
HETATM    9  C   UNL     1       1.266   5.764  -0.784  1.00  0.00     0.045 A 
BRANCH   7  10
HETATM   10  C   UNL     1       4.209   3.752   0.250  1.00  0.00     0.240 C 
BRANCH  10  11
HETATM   11  O   UNL     1       4.771   3.310  -0.986  1.00  0.00    -0.345 OA
BRANCH  11  12
HETATM   12  C   UNL     1       5.879   2.513  -0.915  1.00  0.00     0.069 A 
HETATM   13  C   UNL     1       6.418   1.957   0.246  1.00  0.00     0.038 A 
HETATM   14  C   UNL     1       7.556   1.144   0.173  1.00  0.00     0.022 A 
HETATM   15  C   UNL     1       8.152   0.889  -1.061  1.00  0.00     0.011 A 
HETATM   16  C   UNL     1       7.622   1.439  -2.224  1.00  0.00     0.022 A 
HETATM   17 BR   UNL     1       9.686  -0.210  -1.154  1.00  0.00    -0.051 Br
HETATM   18  C   UNL     1       6.485   2.248  -2.147  1.00  0.00     0.038 A 
ENDBRANCH  11  12
ENDBRANCH  10  11
ENDBRANCH   7  10
ENDBRANCH   1   5
BRANCH   2  19
HETATM   19  N   UNL     1      -0.298   8.442  -0.251  1.00  0.00    -0.274 N 
HETATM   20  H   UNL     1      -0.630   7.950  -1.083  1.00  0.00     0.189 HD
BRANCH  19  21
HETATM   21  C   UNL     1      -1.201   9.261   0.384  1.00  0.00     0.186 C 
HETATM   22  S   UNL     1      -0.802  10.476   1.466  1.00  0.00    -0.040 SA
BRANCH  21  23
HETATM   23  N   UNL     1      -2.521   9.079   0.121  1.00  0.00    -0.364 N 
HETATM   24  H   UNL     1      -3.114   9.697   0.667  1.00  0.00     0.162 HD
BRANCH  23  25
HETATM   25  C   UNL     1      -3.207   8.045  -0.649  1.00  0.00     0.154 C 
BRANCH  25  26
HETATM   26  C   UNL     1      -2.837   8.020  -2.138  1.00  0.00     0.139 C 
HETATM   27  O   UNL     1      -1.661   7.193  -2.316  1.00  0.00    -0.384 OA
HETATM   28  C   UNL     1      -1.996   6.126  -3.216  1.00  0.00     0.168 C 
HETATM   29  C   UNL     1      -3.151   6.639  -4.041  1.00  0.00     0.029 C 
HETATM   30  C   UNL     1      -3.932   7.415  -3.011  1.00  0.00     0.035 C 
ENDBRANCH  25  26
ENDBRANCH  23  25
ENDBRANCH  21  23
ENDBRANCH  19  21
ENDBRANCH   2  19
TORSDOF 9
