REMARK  6 active torsions:
REMARK  status: ('A' for Active; 'I' for Inactive)
REMARK    1  A    between atoms: C_3  and  N_4 
REMARK       I    between atoms: N_4  and  C_5 
REMARK       I    between atoms: C_5  and  N_6 
REMARK    2  A    between atoms: N_6  and  C_7 
REMARK    3  A    between atoms: C_7  and  C_8 
REMARK    4  A    between atoms: C_9  and  O_10 
REMARK    5  A    between atoms: O_10  and  C_11 
REMARK    6  A    between atoms: C_11  and  C_12 
ROOT
HETATM    1  N   UNL     1       3.924   2.771   2.941  1.00  0.00    -0.307 N 
HETATM    2  C   UNL     1       4.678   2.120   1.985  1.00  0.00     0.321 C 
HETATM    3  N   UNL     1       4.881   2.948   0.904  1.00  0.00    -0.339 N 
HETATM    4  O   UNL     1       5.055   0.958   2.024  1.00  0.00    -0.247 OA
HETATM    5  H   UNL     1       3.253   3.395   2.516  1.00  0.00     0.170 HD
HETATM    6  H   UNL     1       5.007   3.927   1.120  1.00  0.00     0.164 HD
ENDROOT
BRANCH   3   7
HETATM    7  C   UNL     1       5.600   2.491  -0.263  1.00  0.00     0.165 C 
BRANCH   7   8
HETATM    8  C   UNL     1       7.084   2.751  -0.173  1.00  0.00    -0.007 A 
HETATM    9  C   UNL     1       7.607   4.058  -0.216  1.00  0.00     0.076 A 
HETATM   10  C   UNL     1       8.992   4.247  -0.194  1.00  0.00     0.037 A 
HETATM   11  C   UNL     1       9.856   3.151  -0.115  1.00  0.00     0.003 A 
HETATM   12  C   UNL     1       9.343   1.860  -0.048  1.00  0.00     0.001 A 
HETATM   13  C   UNL     1       7.965   1.660  -0.075  1.00  0.00     0.011 A 
BRANCH   9  14
HETATM   14  O   UNL     1       6.680   5.069  -0.250  1.00  0.00    -0.350 OA
BRANCH  14  15
HETATM   15  C   UNL     1       7.154   6.392  -0.511  1.00  0.00     0.179 C 
BRANCH  15  16
HETATM   16  C   UNL     1       5.955   7.351  -0.465  1.00  0.00     0.002 C 
HETATM   17  C   UNL     1       5.396   7.457   0.957  1.00  0.00     0.011 C 
HETATM   18  C   UNL     1       6.353   8.732  -0.981  1.00  0.00     0.011 C 
ENDBRANCH  15  16
ENDBRANCH  14  15
ENDBRANCH   9  14
ENDBRANCH   7   8
ENDBRANCH   3   7
BRANCH   1  19
HETATM   19  C   UNL     1       3.551   2.208   4.183  1.00  0.00     0.059 A 
HETATM   20  C   UNL     1       4.413   1.511   5.042  1.00  0.00    -0.032 A 
HETATM   21  C   UNL     1       5.882   1.323   4.791  1.00  0.00     0.050 C 
HETATM   22  C   UNL     1       3.879   0.978   6.227  1.00  0.00     0.028 A 
HETATM   23  C   UNL     1       2.547   1.203   6.539  1.00  0.00     0.117 A 
HETATM   24  N   UNL     1       1.712   1.923   5.767  1.00  0.00    -0.271 NA
HETATM   25  C   UNL     1       2.236   2.406   4.616  1.00  0.00     0.146 A 
ENDBRANCH   1  19
TORSDOF 6
