REMARK  5 active torsions:
REMARK  status: ('A' for Active; 'I' for Inactive)
REMARK    1  A    between atoms: C_7  and  C_8 
REMARK    2  A    between atoms: N_9  and  C_10 
REMARK    3  A    between atoms: C_10  and  C_11 
REMARK       I    between atoms: C_11  and  N_12 
REMARK    4  A    between atoms: N_12  and  C_13 
REMARK    5  A    between atoms: C_13  and  C_14 
ROOT
HETATM    1  C   UNL     1       2.692  -2.642  -0.403  1.00  0.00     0.158 C 
HETATM    2  N   UNL     1       3.440  -3.679  -1.101  1.00  0.00    -0.326 N 
HETATM    3  C   UNL     1       3.636  -4.771  -0.254  1.00  0.00     0.255 C 
HETATM    4  O   UNL     1       4.022  -5.886  -0.550  1.00  0.00    -0.267 OA
HETATM    5  C   UNL     1       3.245  -4.366   1.100  1.00  0.00     0.040 A 
HETATM    6  C   UNL     1       2.698  -3.087   1.026  1.00  0.00    -0.015 A 
HETATM    7  C   UNL     1       3.322  -5.082   2.279  1.00  0.00     0.017 A 
HETATM    8  C   UNL     1       2.828  -4.472   3.433  1.00  0.00     0.001 A 
HETATM    9  C   UNL     1       2.270  -3.182   3.377  1.00  0.00     0.001 A 
HETATM   10  C   UNL     1       2.196  -2.482   2.168  1.00  0.00     0.011 A 
ENDROOT
BRANCH   1  11
HETATM   11  C   UNL     1       3.351  -1.301  -0.489  1.00  0.00     0.004 A 
HETATM   12  C   UNL     1       2.721  -0.112  -0.858  1.00  0.00     0.017 A 
HETATM   13  C   UNL     1       1.303   0.141  -1.254  1.00  0.00     0.069 C 
HETATM   14  N   UNL     1       3.660   0.898  -0.817  1.00  0.00    -0.354 N 
HETATM   15  C   UNL     1       3.385   2.282  -1.150  1.00  0.00     0.156 C 
HETATM   16  C   UNL     1       4.884   0.404  -0.421  1.00  0.00     0.045 A 
HETATM   17  C   UNL     1       4.724  -0.968  -0.208  1.00  0.00     0.001 A 
HETATM   18  C   UNL     1       6.123   1.045  -0.232  1.00  0.00     0.030 A 
HETATM   19  C   UNL     1       5.847  -1.714   0.217  1.00  0.00     0.014 A 
HETATM   20  C   UNL     1       7.080  -1.084   0.408  1.00  0.00     0.001 A 
HETATM   21  C   UNL     1       7.214   0.279   0.185  1.00  0.00     0.002 A 
ENDBRANCH   1  11
BRANCH   2  22
HETATM   22  C   UNL     1       3.160  -3.922  -2.510  1.00  0.00     0.229 C 
BRANCH  22  23
HETATM   23  C   UNL     1       4.291  -4.546  -3.331  1.00  0.00     0.235 C 
HETATM   24  N   UNL     1       5.568  -4.196  -2.953  1.00  0.00    -0.357 N 
HETATM   25  H   UNL     1       5.684  -3.700  -2.077  1.00  0.00     0.162 HD
HETATM   26  O   UNL     1       4.056  -5.193  -4.352  1.00  0.00    -0.272 OA
BRANCH  24  27
HETATM   27  C   UNL     1       6.728  -4.785  -3.603  1.00  0.00     0.154 C 
BRANCH  27  28
HETATM   28  C   UNL     1       6.958  -4.249  -5.027  1.00  0.00     0.139 C 
HETATM   29  O   UNL     1       7.711  -3.015  -4.965  1.00  0.00    -0.384 OA
HETATM   30  C   UNL     1       8.729  -3.072  -5.968  1.00  0.00     0.168 C 
HETATM   31  C   UNL     1       9.097  -4.531  -6.073  1.00  0.00     0.029 C 
HETATM   32  C   UNL     1       7.759  -5.209  -5.908  1.00  0.00     0.035 C 
ENDBRANCH  27  28
ENDBRANCH  24  27
ENDBRANCH  22  23
ENDBRANCH   2  22
TORSDOF 5
