REMARK  9 active torsions:
REMARK  status: ('A' for Active; 'I' for Inactive)
REMARK    1  A    between atoms: S_2  and  C_3 
REMARK    2  A    between atoms: C_3  and  C_4 
REMARK    3  A    between atoms: C_4  and  C_5 
REMARK    4  A    between atoms: C_5  and  N_6 
REMARK    5  A    between atoms: C_5  and  C_16 
REMARK       I    between atoms: N_6  and  C_7 
REMARK    6  A    between atoms: C_7  and  C_8 
REMARK       I    between atoms: C_16  and  N_17 
REMARK    7  A    between atoms: N_17  and  N_18 
REMARK       I    between atoms: N_18  and  C_19 
REMARK    8  A    between atoms: C_19  and  C_20 
REMARK    9  A    between atoms: C_23  and  O_24 
ROOT
HETATM    1  C   UNL     1       5.426  -2.850  -1.558  1.00  0.00     0.179 C 
ENDROOT
BRANCH   1   2
HETATM    2  C   UNL     1       5.120  -1.539  -0.815  1.00  0.00     0.045 C 
BRANCH   2   3
HETATM    3  C   UNL     1       3.638  -1.258  -0.565  1.00  0.00     0.076 C 
BRANCH   3   4
HETATM    4  S   UNL     1       2.858  -2.517   0.497  1.00  0.00    -0.173 SA
HETATM    5  C   UNL     1       1.199  -1.801   0.594  1.00  0.00     0.089 C 
ENDBRANCH   3   4
ENDBRANCH   2   3
ENDBRANCH   1   2
BRANCH   1   6
HETATM    6  N   UNL     1       4.690  -3.027  -2.817  1.00  0.00    -0.344 N 
HETATM    7  C   UNL     1       4.648  -2.121  -3.846  1.00  0.00     0.254 C 
HETATM    8  O   UNL     1       5.276  -1.067  -3.801  1.00  0.00    -0.268 OA
HETATM    9  H   UNL     1       4.206  -3.911  -2.929  1.00  0.00     0.163 HD
BRANCH   7  10
HETATM   10  C   UNL     1       3.789  -2.427  -5.026  1.00  0.00     0.053 A 
HETATM   11  C   UNL     1       3.427  -3.709  -5.465  1.00  0.00     0.049 A 
HETATM   12 CL   UNL     1       3.972  -5.172  -4.722  1.00  0.00    -0.083 Cl
HETATM   13  C   UNL     1       2.600  -3.858  -6.588  1.00  0.00     0.025 A 
HETATM   14  C   UNL     1       2.135  -2.742  -7.283  1.00  0.00     0.002 A 
HETATM   15  C   UNL     1       2.500  -1.467  -6.865  1.00  0.00     0.001 A 
HETATM   16  C   UNL     1       3.322  -1.311  -5.748  1.00  0.00     0.019 A 
ENDBRANCH   7  10
ENDBRANCH   1   6
BRANCH   1  17
HETATM   17  C   UNL     1       6.952  -3.022  -1.709  1.00  0.00     0.259 C 
HETATM   18  N   UNL     1       7.537  -2.352  -2.760  1.00  0.00    -0.265 N 
HETATM   19  H   UNL     1       7.012  -1.750  -3.403  1.00  0.00     0.190 HD
HETATM   20  O   UNL     1       7.633  -3.604  -0.859  1.00  0.00    -0.269 OA
BRANCH  18  21
HETATM   21  N   UNL     1       8.928  -2.392  -2.888  1.00  0.00    -0.263 N 
HETATM   22  C   UNL     1       9.487  -2.076  -4.111  1.00  0.00     0.270 C 
HETATM   23  O   UNL     1       8.826  -1.684  -5.069  1.00  0.00    -0.266 OA
HETATM   24  H   UNL     1       9.413  -2.935  -2.177  1.00  0.00     0.190 HD
BRANCH  22  25
HETATM   25  C   UNL     1      10.964  -2.251  -4.234  1.00  0.00     0.033 A 
HETATM   26  C   UNL     1      11.813  -2.308  -3.118  1.00  0.00     0.020 A 
HETATM   27  C   UNL     1      13.195  -2.453  -3.291  1.00  0.00     0.037 A 
HETATM   28  C   UNL     1      13.722  -2.531  -4.576  1.00  0.00     0.065 A 
HETATM   29  C   UNL     1      12.895  -2.467  -5.690  1.00  0.00     0.037 A 
HETATM   30  C   UNL     1      11.517  -2.324  -5.521  1.00  0.00     0.020 A 
BRANCH  28  31
HETATM   31  O   UNL     1      15.062  -2.665  -4.786  1.00  0.00    -0.361 OA
HETATM   32  H   UNL     1      15.516  -2.675  -3.928  1.00  0.00     0.217 HD
ENDBRANCH  28  31
ENDBRANCH  22  25
ENDBRANCH  18  21
ENDBRANCH   1  17
TORSDOF 9
