REMARK  5 active torsions:
REMARK  status: ('A' for Active; 'I' for Inactive)
REMARK    1  A    between atoms: C_3  and  N_4 
REMARK       I    between atoms: N_4  and  C_5 
REMARK    2  A    between atoms: C_5  and  C_6 
REMARK    3  A    between atoms: C_6  and  N_7 
REMARK       I    between atoms: N_7  and  C_8 
REMARK    4  A    between atoms: C_8  and  C_9 
REMARK    5  A    between atoms: C_13  and  C_14 
ROOT
HETATM    1  N   UNL     1       5.591   2.461  -1.106  1.00  0.00    -0.347 N 
HETATM    2  C   UNL     1       6.854   2.266  -0.611  1.00  0.00     0.270 C 
HETATM    3  O   UNL     1       7.368   1.151  -0.601  1.00  0.00    -0.266 OA
HETATM    4  H   UNL     1       5.167   3.376  -1.055  1.00  0.00     0.163 HD
ENDROOT
BRANCH   2   5
HETATM    5  C   UNL     1       7.509   3.418  -0.062  1.00  0.00     0.120 A 
HETATM    6  N   UNL     1       8.781   3.341   0.441  1.00  0.00    -0.272 N 
HETATM    7  H   UNL     1       9.374   2.517   0.476  1.00  0.00     0.189 HD
HETATM    8  N   UNL     1       9.254   4.498   0.921  1.00  0.00    -0.173 NA
HETATM    9  C   UNL     1       8.250   5.360   0.733  1.00  0.00     0.093 A 
HETATM   10  C   UNL     1       7.143   4.741   0.106  1.00  0.00     0.071 A 
BRANCH   9  11
HETATM   11  C   UNL     1       8.331   6.767   1.124  1.00  0.00     0.044 A 
HETATM   12  C   UNL     1       9.447   7.588   1.125  1.00  0.00     0.041 A 
HETATM   13  C   UNL     1      10.852   7.332   0.715  1.00  0.00     0.071 C 
HETATM   14  N   UNL     1       9.014   8.788   1.626  1.00  0.00    -0.278 N 
HETATM   15  C   UNL     1       9.786   9.979   1.895  1.00  0.00     0.179 C 
HETATM   16  N   UNL     1       7.695   8.816   1.894  1.00  0.00    -0.177 NA
HETATM   17  C   UNL     1       7.275   7.574   1.622  1.00  0.00     0.065 A 
HETATM   18  C   UNL     1       5.856   7.223   1.883  1.00  0.00     0.073 C 
ENDBRANCH   9  11
ENDBRANCH   2   5
BRANCH   1  19
HETATM   19  C   UNL     1       4.871   1.422  -1.832  1.00  0.00     0.226 C 
BRANCH  19  20
HETATM   20  C   UNL     1       4.100   0.424  -0.952  1.00  0.00     0.239 C 
HETATM   21  N   UNL     1       4.854  -0.090   0.088  1.00  0.00    -0.325 N 
HETATM   22  H   UNL     1       5.817   0.232   0.122  1.00  0.00     0.169 HD
HETATM   23  O   UNL     1       2.961   0.086  -1.264  1.00  0.00    -0.271 OA
BRANCH  21  24
HETATM   24  C   UNL     1       4.481  -1.049   1.057  1.00  0.00     0.040 A 
HETATM   25  C   UNL     1       5.399  -1.367   2.085  1.00  0.00    -0.034 A 
HETATM   26  C   UNL     1       6.741  -0.694   2.206  1.00  0.00     0.050 C 
HETATM   27  C   UNL     1       5.058  -2.343   3.040  1.00  0.00     0.028 A 
HETATM   28  C   UNL     1       3.826  -2.988   2.985  1.00  0.00     0.011 A 
HETATM   29  C   UNL     1       2.916  -2.669   1.986  1.00  0.00     0.021 A 
HETATM   30 BR   UNL     1       3.390  -4.300   4.273  1.00  0.00    -0.051 Br
HETATM   31  C   UNL     1       3.243  -1.702   1.030  1.00  0.00     0.031 A 
ENDBRANCH  21  24
ENDBRANCH  19  20
ENDBRANCH   1  19
TORSDOF 5
