REMARK  5 active torsions:
REMARK  status: ('A' for Active; 'I' for Inactive)
REMARK    1  A    between atoms: C_6  and  O_7 
REMARK    2  A    between atoms: O_7  and  C_8 
REMARK    3  A    between atoms: C_12  and  C_13 
REMARK       I    between atoms: C_13  and  N_14 
REMARK    4  A    between atoms: N_14  and  C_15 
REMARK    5  A    between atoms: C_15  and  C_16 
ROOT
HETATM    1  C   UNL     1       2.469   3.020  -3.035  1.00  0.00     0.002 A 
HETATM    2  C   UNL     1       2.535   3.415  -1.698  1.00  0.00     0.025 A 
HETATM    3  C   UNL     1       2.762   2.465  -0.693  1.00  0.00     0.078 A 
HETATM    4  C   UNL     1       2.817   2.897   0.674  1.00  0.00     0.102 C 
HETATM    5  N   UNL     1       2.848   3.273   1.772  1.00  0.00    -0.191 NA
HETATM    6  C   UNL     1       2.931   1.114  -1.033  1.00  0.00     0.096 A 
HETATM    7  C   UNL     1       2.840   0.722  -2.376  1.00  0.00     0.039 A 
HETATM    8  C   UNL     1       2.617   1.676  -3.371  1.00  0.00     0.003 A 
ENDROOT
BRANCH   6   9
HETATM    9  O   UNL     1       3.135   0.227   0.006  1.00  0.00    -0.308 OA
BRANCH   9  10
HETATM   10  C   UNL     1       3.817  -0.938  -0.249  1.00  0.00     0.098 A 
HETATM   11  C   UNL     1       5.189  -0.981  -0.534  1.00  0.00     0.068 A 
HETATM   12 CL   UNL     1       6.151   0.450  -0.628  1.00  0.00    -0.081 Cl
HETATM   13  C   UNL     1       5.828  -2.211  -0.716  1.00  0.00     0.044 A 
HETATM   14  C   UNL     1       5.099  -3.400  -0.587  1.00  0.00     0.033 A 
HETATM   15  C   UNL     1       3.737  -3.355  -0.262  1.00  0.00     0.020 A 
HETATM   16  C   UNL     1       3.098  -2.126  -0.094  1.00  0.00     0.040 A 
BRANCH  14  17
HETATM   17  C   UNL     1       5.753  -4.727  -0.714  1.00  0.00     0.251 C 
HETATM   18  N   UNL     1       6.756  -4.823  -1.653  1.00  0.00    -0.353 N 
HETATM   19  H   UNL     1       6.871  -4.086  -2.335  1.00  0.00     0.163 HD
HETATM   20  O   UNL     1       5.372  -5.661  -0.019  1.00  0.00    -0.268 OA
BRANCH  18  21
HETATM   21  C   UNL     1       7.428  -6.078  -1.910  1.00  0.00     0.161 C 
BRANCH  21  22
HETATM   22  C   UNL     1       6.762  -6.846  -3.019  1.00  0.00    -0.038 A 
HETATM   23  C   UNL     1       7.248  -6.798  -4.328  1.00  0.00     0.028 A 
HETATM   24  C   UNL     1       6.587  -7.524  -5.308  1.00  0.00     0.116 A 
HETATM   25  N   UNL     1       5.490  -8.275  -5.078  1.00  0.00    -0.273 NA
HETATM   26  C   UNL     1       5.032  -8.304  -3.809  1.00  0.00     0.116 A 
HETATM   27  C   UNL     1       5.623  -7.616  -2.762  1.00  0.00     0.028 A 
ENDBRANCH  21  22
ENDBRANCH  18  21
ENDBRANCH  14  17
ENDBRANCH   9  10
ENDBRANCH   6   9
TORSDOF 5
