REMARK  3 active torsions:
REMARK  status: ('A' for Active; 'I' for Inactive)
REMARK    1  A    between atoms: C_4  and  C_5 
REMARK    2  A    between atoms: C_11  and  C_12 
REMARK    3  A    between atoms: C_21  and  N_22 
ROOT
HETATM    1  C   UNL     1       2.730   0.121  -0.052  1.00  0.00     0.098 A 
HETATM    2  N   UNL     1       3.608  -0.885  -0.244  1.00  0.00    -0.172 NA
HETATM    3  N   UNL     1       4.773  -0.275  -0.530  1.00  0.00    -0.256 N 
HETATM    4  H   UNL     1       5.604  -0.840  -0.655  1.00  0.00     0.191 HD
HETATM    5  C   UNL     1       4.663   1.075  -0.553  1.00  0.00     0.175 A 
HETATM    6  C   UNL     1       3.345   1.375  -0.333  1.00  0.00     0.036 A 
HETATM    7  C   UNL     1       2.898   2.805  -0.353  1.00  0.00     0.077 C 
HETATM    8  C   UNL     1       4.147   3.682  -0.056  1.00  0.00     0.076 C 
HETATM    9  C   UNL     1       3.933   4.975   0.504  1.00  0.00     0.100 C 
HETATM   10  N   UNL     1       3.754   6.034   0.943  1.00  0.00    -0.192 NA
HETATM   11  C   UNL     1       5.419   3.235  -0.262  1.00  0.00     0.140 C 
HETATM   12  O   UNL     1       5.679   1.918  -0.683  1.00  0.00    -0.279 OA
ENDROOT
BRANCH   7  13
HETATM   13  C   UNL     1       2.273   3.256  -1.728  1.00  0.00     0.003 C 
HETATM   14  C   UNL     1       1.451   2.189  -2.492  1.00  0.00     0.032 C 
HETATM   15  C   UNL     1       0.058   2.009  -1.970  1.00  0.00    -0.030 C 
HETATM   16  C   UNL     1      -0.554   2.915  -1.194  1.00  0.00    -0.031 C 
HETATM   17  C   UNL     1       0.077   4.218  -0.807  1.00  0.00     0.027 C 
HETATM   18  C   UNL     1       1.369   4.506  -1.582  1.00  0.00     0.009 C 
ENDBRANCH   7  13
BRANCH  11  19
HETATM   19  N   UNL     1       6.569   3.965  -0.067  1.00  0.00    -0.282 NA
HETATM   20  H   UNL     1       6.465   4.975  -0.132  1.00  0.00     0.126 HD
HETATM   21  H   UNL     1       7.347   3.607  -0.616  1.00  0.00     0.126 HD
ENDBRANCH  11  19
BRANCH   1  22
HETATM   22  C   UNL     1       1.362  -0.159   0.377  1.00  0.00    -0.005 A 
HETATM   23  C   UNL     1       0.756   0.592   1.393  1.00  0.00     0.014 A 
HETATM   24  C   UNL     1      -0.560   0.327   1.782  1.00  0.00     0.001 A 
HETATM   25  C   UNL     1      -1.277  -0.698   1.167  1.00  0.00     0.000 A 
HETATM   26  C   UNL     1      -0.677  -1.467   0.171  1.00  0.00     0.001 A 
HETATM   27  C   UNL     1       0.639  -1.202  -0.218  1.00  0.00     0.014 A 
ENDBRANCH   1  22
TORSDOF 3
