REMARK  8 active torsions:
REMARK  status: ('A' for Active; 'I' for Inactive)
REMARK    1  A    between atoms: O_2  and  C_3 
REMARK    2  A    between atoms: C_6  and  N_7 
REMARK    3  A    between atoms: N_7  and  C_8 
REMARK    4  A    between atoms: C_8  and  C_9 
REMARK    5  A    between atoms: C_9  and  C_10 
REMARK    6  A    between atoms: C_10  and  C_11 
REMARK       I    between atoms: C_11  and  N_12 
REMARK    7  A    between atoms: N_12  and  N_13 
REMARK    8  A    between atoms: C_14  and  C_15 
ROOT
HETATM    1  C   UNL     1       8.882   7.786   2.626  1.00  0.00     0.237 C 
HETATM    2  N   UNL     1      10.144   8.010   3.161  1.00  0.00    -0.247 N 
HETATM    3  O   UNL     1       8.145   8.655   2.170  1.00  0.00    -0.272 OA
HETATM    4  H   UNL     1      10.708   7.246   3.514  1.00  0.00     0.192 HD
ENDROOT
BRANCH   1   5
HETATM    5  C   UNL     1       8.492   6.319   2.664  1.00  0.00     0.106 C 
BRANCH   5   6
HETATM    6  C   UNL     1       7.114   6.096   2.043  1.00  0.00     0.029 C 
BRANCH   6   7
HETATM    7  C   UNL     1       6.690   4.629   2.080  1.00  0.00     0.120 C 
BRANCH   7   8
HETATM    8  N   UNL     1       5.382   4.501   1.451  1.00  0.00    -0.390 N 
HETATM    9  H   UNL     1       5.283   5.073   0.614  1.00  0.00     0.159 HD
BRANCH   8  10
HETATM   10  C   UNL     1       4.786   3.249   1.293  1.00  0.00     0.028 A 
HETATM   11  C   UNL     1       5.081   2.140   2.091  1.00  0.00     0.032 A 
HETATM   12  C   UNL     1       4.388   0.928   1.944  1.00  0.00     0.039 A 
HETATM   13  C   UNL     1       3.365   0.812   1.006  1.00  0.00     0.068 A 
HETATM   14  C   UNL     1       3.039   1.919   0.226  1.00  0.00     0.039 A 
HETATM   15  C   UNL     1       3.729   3.125   0.381  1.00  0.00     0.032 A 
BRANCH  13  16
HETATM   16  O   UNL     1       2.612  -0.303   0.762  1.00  0.00    -0.356 OA
HETATM   17  C   UNL     1       2.856  -1.435   1.587  1.00  0.00     0.210 C 
ENDBRANCH  13  16
ENDBRANCH   8  10
ENDBRANCH   7   8
ENDBRANCH   6   7
ENDBRANCH   5   6
ENDBRANCH   1   5
BRANCH   2  18
HETATM   18  N   UNL     1      10.618   9.288   3.223  1.00  0.00    -0.184 NA
HETATM   19  C   UNL     1      11.810   9.447   3.698  1.00  0.00     0.152 C 
BRANCH  19  20
HETATM   20  C   UNL     1      12.352  10.786   3.798  1.00  0.00     0.011 A 
HETATM   21  C   UNL     1      13.652  11.177   4.255  1.00  0.00     0.004 A 
HETATM   22  C   UNL     1      13.719  12.571   4.179  1.00  0.00     0.043 A 
HETATM   23  C   UNL     1      14.785  10.480   4.726  1.00  0.00     0.014 A 
HETATM   24  C   UNL     1      14.854  13.300   4.551  1.00  0.00     0.030 A 
HETATM   25  N   UNL     1      12.509  13.010   3.694  1.00  0.00    -0.364 N 
HETATM   26  C   UNL     1      15.961  12.584   5.014  1.00  0.00     0.002 A 
HETATM   27  C   UNL     1      15.930  11.195   5.101  1.00  0.00     0.001 A 
HETATM   28  H   UNL     1      12.270  13.979   3.535  1.00  0.00     0.165 HD
HETATM   29  C   UNL     1      11.682  11.948   3.461  1.00  0.00     0.102 A 
ENDBRANCH  19  20
ENDBRANCH   2  18
TORSDOF 8
