REMARK  5 active torsions:
REMARK  status: ('A' for Active; 'I' for Inactive)
REMARK    1  A    between atoms: C_6  and  C_7 
REMARK    2  A    between atoms: C_7  and  C_8 
REMARK    3  A    between atoms: C_8  and  C_9 
REMARK    4  A    between atoms: C_9  and  N_10 
REMARK    5  A    between atoms: C_9  and  C_14 
ROOT
HETATM    1  C   UNL     1      -5.739  -1.689   0.444  1.00  0.00     0.253 C 
ENDROOT
BRANCH   1   2
HETATM    2  C   UNL     1      -6.499  -0.861   1.502  1.00  0.00     0.048 C 
BRANCH   2   3
HETATM    3  C   UNL     1      -6.158   0.633   1.593  1.00  0.00     0.081 C 
BRANCH   3   4
HETATM    4  C   UNL     1      -4.692   0.870   1.520  1.00  0.00     0.105 A 
HETATM    5  N   UNL     1      -3.933   0.559   0.486  1.00  0.00    -0.233 NA
HETATM    6  C   UNL     1      -2.646   0.859   0.883  1.00  0.00     0.085 A 
HETATM    7  C   UNL     1      -2.636   1.376   2.174  1.00  0.00     0.062 A 
HETATM    8  C   UNL     1      -1.433   0.695   0.199  1.00  0.00     0.034 A 
HETATM    9  C   UNL     1      -1.468   1.746   2.842  1.00  0.00     0.032 A 
HETATM   10  N   UNL     1      -3.955   1.408   2.545  1.00  0.00    -0.343 N 
HETATM   11  C   UNL     1      -0.266   1.568   2.148  1.00  0.00     0.002 A 
HETATM   12  C   UNL     1      -0.245   1.053   0.850  1.00  0.00     0.002 A 
HETATM   13  H   UNL     1      -4.307   1.744   3.432  1.00  0.00     0.167 HD
ENDBRANCH   3   4
ENDBRANCH   2   3
ENDBRANCH   1   2
BRANCH   1  14
HETATM   14  N   UNL     1      -5.700  -0.977  -0.857  1.00  0.00    -0.068 N 
HETATM   15  H   UNL     1      -5.327  -1.595  -1.584  1.00  0.00     0.275 HD
HETATM   16  H   UNL     1      -6.642  -0.709  -1.161  1.00  0.00     0.275 HD
HETATM   17  H   UNL     1      -5.074  -0.155  -0.781  1.00  0.00     0.275 HD
ENDBRANCH   1  14
BRANCH   1  18
HETATM   18  C   UNL     1      -6.394  -3.017   0.243  1.00  0.00     0.136 A 
HETATM   19  N   UNL     1      -7.358  -3.258  -0.623  1.00  0.00    -0.231 NA
HETATM   20  C   UNL     1      -7.647  -4.597  -0.482  1.00  0.00     0.085 A 
HETATM   21  C   UNL     1      -6.810  -5.184   0.461  1.00  0.00     0.062 A 
HETATM   22  C   UNL     1      -8.608  -5.384  -1.131  1.00  0.00     0.034 A 
HETATM   23  N   UNL     1      -6.021  -4.157   0.911  1.00  0.00    -0.341 N 
HETATM   24  C   UNL     1      -6.860  -6.539   0.794  1.00  0.00     0.032 A 
HETATM   25  H   UNL     1      -5.295  -4.250   1.610  1.00  0.00     0.167 HD
HETATM   26  C   UNL     1      -7.823  -7.310   0.134  1.00  0.00     0.002 A 
HETATM   27  C   UNL     1      -8.685  -6.745  -0.809  1.00  0.00     0.002 A 
ENDBRANCH   1  18
TORSDOF 5
