REMARK  5 active torsions:
REMARK  status: ('A' for Active; 'I' for Inactive)
REMARK    1  A    between atoms: C_11  and  N_12 
REMARK       I    between atoms: N_12  and  C_13 
REMARK       I    between atoms: C_13  and  N_14 
REMARK    2  A    between atoms: N_14  and  C_15 
REMARK    3  A    between atoms: C_15  and  C_16 
REMARK    4  A    between atoms: C_16  and  N_17 
REMARK    5  A    between atoms: C_16  and  C_21 
ROOT
HETATM    1  N   UNL     1       8.446  -1.341  -0.554  1.00  0.00    -0.309 N 
HETATM    2  C   UNL     1       9.291  -2.401  -0.540  1.00  0.00     0.320 C 
HETATM    3  N   UNL     1       8.770  -3.647  -0.446  1.00  0.00    -0.341 N 
HETATM    4  O   UNL     1      10.508  -2.221  -0.594  1.00  0.00    -0.247 OA
HETATM    5  H   UNL     1       8.951  -0.463  -0.472  1.00  0.00     0.170 HD
HETATM    6  H   UNL     1       7.909  -3.666   0.088  1.00  0.00     0.164 HD
ENDROOT
BRANCH   1   7
HETATM    7  C   UNL     1       7.047  -1.216  -0.675  1.00  0.00     0.038 A 
HETATM    8  C   UNL     1       6.179  -2.235  -1.055  1.00  0.00     0.032 A 
HETATM    9  C   UNL     1       4.799  -2.000  -1.100  1.00  0.00     0.036 A 
HETATM   10  C   UNL     1       4.263  -0.755  -0.807  1.00  0.00     0.086 A 
HETATM   11  N   UNL     1       2.932  -0.574  -0.847  1.00  0.00    -0.250 NA
HETATM   12  C   UNL     1       5.139   0.300  -0.482  1.00  0.00     0.088 A 
HETATM   13  C   UNL     1       2.466   0.672  -0.574  1.00  0.00     0.055 A 
HETATM   14  C   UNL     1       0.978   0.852  -0.610  1.00  0.00     0.072 C 
HETATM   15  C   UNL     1       3.334   1.724  -0.281  1.00  0.00     0.055 A 
HETATM   16  N   UNL     1       4.678   1.536  -0.224  1.00  0.00    -0.250 NA
HETATM   17  C   UNL     1       2.841   3.113  -0.013  1.00  0.00     0.072 C 
HETATM   18  C   UNL     1       6.506   0.052  -0.422  1.00  0.00     0.063 A 
ENDBRANCH   1   7
BRANCH   3  19
HETATM   19  C   UNL     1       9.552  -4.884  -0.380  1.00  0.00     0.163 C 
BRANCH  19  20
HETATM   20  C   UNL     1      10.749  -5.036  -1.382  1.00  0.00     0.244 C 
BRANCH  20  21
HETATM   21  N   UNL     1      11.981  -4.244  -0.929  1.00  0.00    -0.068 N 
HETATM   22  H   UNL     1      11.593  -3.297  -0.735  1.00  0.00     0.279 HD
HETATM   23  C   UNL     1      12.651  -4.682   0.332  1.00  0.00     0.270 C 
HETATM   24  C   UNL     1      12.974  -4.022  -2.032  1.00  0.00     0.270 C 
ENDBRANCH  20  21
BRANCH  20  25
HETATM   25  C   UNL     1      11.052  -6.490  -1.667  1.00  0.00     0.015 A 
HETATM   26  S   UNL     1      11.263  -6.998  -3.298  1.00  0.00    -0.104 SA
HETATM   27  C   UNL     1      11.543  -8.615  -2.835  1.00  0.00     0.050 A 
HETATM   28  C   UNL     1      11.467  -8.781  -1.471  1.00  0.00     0.008 A 
HETATM   29  C   UNL     1      11.180  -7.558  -0.796  1.00  0.00     0.017 A 
ENDBRANCH  20  25
ENDBRANCH  19  20
ENDBRANCH   3  19
TORSDOF 5
