REMARK  5 active torsions:
REMARK  status: ('A' for Active; 'I' for Inactive)
REMARK    1  A    between atoms: C_7  and  C_8 
REMARK    2  A    between atoms: C_8  and  N_9 
REMARK    3  A    between atoms: C_12  and  C_13 
REMARK    4  A    between atoms: C_13  and  C_14 
REMARK    5  A    between atoms: C_14  and  O_15 
ROOT
HETATM    1  C   UNL     1       2.875  -2.856   4.631  1.00  0.00     0.020 A 
HETATM    2  C   UNL     1       3.298  -2.497   3.371  1.00  0.00     0.117 A 
HETATM    3  N   UNL     1       2.581  -2.720   2.244  1.00  0.00    -0.260 NA
HETATM    4  C   UNL     1       1.367  -3.304   2.364  1.00  0.00     0.076 A 
HETATM    5  C   UNL     1       0.841  -3.727   3.608  1.00  0.00     0.011 A 
HETATM    6  C   UNL     1       1.639  -3.481   4.747  1.00  0.00     0.016 A 
HETATM    7  C   UNL     1       0.619  -3.510   1.200  1.00  0.00    -0.003 A 
HETATM    8  C   UNL     1      -0.640  -4.127   1.250  1.00  0.00     0.012 A 
HETATM    9  C   UNL     1      -1.158  -4.555   2.466  1.00  0.00     0.020 A 
HETATM   10  C   UNL     1      -0.428  -4.356   3.638  1.00  0.00     0.023 A 
HETATM   11 BR   UNL     1      -1.228  -4.975   5.250  1.00  0.00    -0.050 Br
ENDROOT
BRANCH   7  12
HETATM   12  C   UNL     1       1.149  -3.011  -0.123  1.00  0.00     0.275 C 
BRANCH  12  13
HETATM   13  N   UNL     1       2.559  -3.444  -0.420  1.00  0.00    -0.067 N 
HETATM   14  H   UNL     1       3.080  -3.145   0.428  1.00  0.00     0.280 HD
HETATM   15  C   UNL     1       3.178  -2.779  -1.620  1.00  0.00     0.240 C 
HETATM   16  C   UNL     1       3.297  -3.899  -2.647  1.00  0.00     0.015 C 
HETATM   17  C   UNL     1       3.662  -5.088  -1.765  1.00  0.00     0.034 C 
HETATM   18  C   UNL     1       2.739  -4.936  -0.572  1.00  0.00     0.235 C 
BRANCH  16  19
HETATM   19  C   UNL     1       4.307  -3.557  -3.748  1.00  0.00     0.032 C 
BRANCH  19  20
HETATM   20  C   UNL     1       4.367  -4.589  -4.870  1.00  0.00     0.164 C 
BRANCH  20  21
HETATM   21  O   UNL     1       4.846  -5.821  -4.360  1.00  0.00    -0.401 OA
HETATM   22  H   UNL     1       5.004  -6.407  -5.124  1.00  0.00     0.209 HD
ENDBRANCH  20  21
ENDBRANCH  19  20
ENDBRANCH  16  19
ENDBRANCH  12  13
ENDBRANCH   7  12
TORSDOF 5
