REMARK  8 active torsions:
REMARK  status: ('A' for Active; 'I' for Inactive)
REMARK    1  A    between atoms: C_3  and  O_4 
REMARK    2  A    between atoms: C_11  and  C_12 
REMARK    3  A    between atoms: C_12  and  C_13 
REMARK    4  A    between atoms: C_13  and  S_14 
REMARK    5  A    between atoms: S_14  and  C_15 
REMARK    6  A    between atoms: N_16  and  C_17 
REMARK    7  A    between atoms: C_17  and  C_18 
REMARK    8  A    between atoms: C_24  and  C_25 
ROOT
HETATM    1  C   UNL     1      -1.281  -4.943   0.916  1.00  0.00     0.192 A 
HETATM    2  N   UNL     1      -1.567  -6.239   0.575  1.00  0.00    -0.303 N 
HETATM    3  C   UNL     1      -2.933  -6.271   0.358  1.00  0.00     0.166 A 
HETATM    4  N   UNL     1      -3.408  -5.050   0.541  1.00  0.00    -0.128 NA
HETATM    5  N   UNL     1      -2.378  -4.226   0.907  1.00  0.00    -0.122 NA
ENDROOT
BRANCH   1   6
HETATM    6  S   UNL     1       0.297  -4.355   1.306  1.00  0.00    -0.082 SA
BRANCH   6   7
HETATM    7  C   UNL     1      -0.095  -2.612   1.638  1.00  0.00     0.166 C 
BRANCH   7   8
HETATM    8  C   UNL     1       1.126  -1.820   2.069  1.00  0.00     0.169 C 
HETATM    9  O   UNL     1       2.171  -2.335   2.464  1.00  0.00    -0.291 OA
BRANCH   8  10
HETATM   10  C   UNL     1       1.035  -0.325   2.031  1.00  0.00     0.011 A 
HETATM   11  C   UNL     1      -0.176   0.343   1.810  1.00  0.00     0.017 A 
HETATM   12  C   UNL     1      -0.233   1.741   1.759  1.00  0.00     0.031 A 
HETATM   13  C   UNL     1       0.959   2.447   1.942  1.00  0.00     0.045 A 
HETATM   14  N   UNL     1       1.198   3.800   1.940  1.00  0.00    -0.336 N 
HETATM   15  C   UNL     1       2.182   1.822   2.179  1.00  0.00     0.002 A 
HETATM   16  C   UNL     1       2.520   4.056   2.173  1.00  0.00     0.147 A 
HETATM   17  H   UNL     1       0.504   4.517   1.793  1.00  0.00     0.168 HD
HETATM   18  C   UNL     1       3.173   2.848   2.327  1.00  0.00     0.001 A 
HETATM   19  C   UNL     1       4.617   2.627   2.605  1.00  0.00     0.054 C 
HETATM   20  C   UNL     1       2.216   0.413   2.227  1.00  0.00     0.029 A 
BRANCH  16  21
HETATM   21  O   UNL     1       2.932   5.314   2.213  1.00  0.00    -0.346 OA
HETATM   22  H   UNL     1       3.888   5.304   2.396  1.00  0.00     0.219 HD
ENDBRANCH  16  21
ENDBRANCH   8  10
ENDBRANCH   7   8
ENDBRANCH   6   7
ENDBRANCH   1   6
BRANCH   2  23
HETATM   23  C   UNL     1      -0.613  -7.305   0.315  1.00  0.00     0.171 C 
BRANCH  23  24
HETATM   24  C   UNL     1      -0.396  -8.249   1.476  1.00  0.00    -0.040 A 
HETATM   25  C   UNL     1      -0.498  -7.855   2.819  1.00  0.00     0.009 A 
HETATM   26  C   UNL     1      -0.260  -8.766   3.851  1.00  0.00     0.001 A 
HETATM   27  C   UNL     1       0.101 -10.078   3.557  1.00  0.00     0.000 A 
HETATM   28  C   UNL     1       0.229 -10.481   2.232  1.00  0.00     0.001 A 
HETATM   29  C   UNL     1      -0.013  -9.573   1.199  1.00  0.00     0.009 A 
ENDBRANCH  23  24
ENDBRANCH   2  23
BRANCH   3  30
HETATM   30  C   UNL     1      -3.736  -7.406  -0.079  1.00  0.00     0.029 A 
HETATM   31  C   UNL     1      -3.736  -8.634   0.573  1.00  0.00     0.131 A 
HETATM   32  N   UNL     1      -4.479  -9.703   0.191  1.00  0.00    -0.272 NA
HETATM   33  C   UNL     1      -5.293  -9.529  -0.871  1.00  0.00     0.116 A 
HETATM   34  C   UNL     1      -5.395  -8.340  -1.572  1.00  0.00     0.020 A 
HETATM   35  C   UNL     1      -4.605  -7.267  -1.166  1.00  0.00     0.018 A 
ENDBRANCH   3  30
TORSDOF 8
