REMARK  4 active torsions:
REMARK  status: ('A' for Active; 'I' for Inactive)
REMARK    1  A    between atoms: O_2  and  C_3 
REMARK    2  A    between atoms: C_3  and  C_4 
REMARK    3  A    between atoms: N_11  and  C_13 
REMARK    4  A    between atoms: C_13  and  C_14 
ROOT
HETATM    1  C   UNL     1       2.136   2.087  -1.910  1.00  0.00     0.290 C 
HETATM    2  N   UNL     1       2.557   1.557  -3.335  1.00  0.00    -0.047 N 
HETATM    3  H   UNL     1       2.124   2.241  -3.978  1.00  0.00     0.279 HD
HETATM    4  H   UNL     1       2.009   0.696  -3.484  1.00  0.00     0.279 HD
HETATM    5  C   UNL     1       4.046   1.510  -3.610  1.00  0.00     0.172 C 
HETATM    6  C   UNL     1       4.700   0.327  -2.876  1.00  0.00     0.073 C 
HETATM    7  C   UNL     1       4.308  -1.039  -3.425  1.00  0.00     0.238 C 
HETATM    8  N   UNL     1       4.559  -1.097  -4.910  1.00  0.00    -0.067 N 
HETATM    9  H   UNL     1       5.578  -1.037  -5.064  1.00  0.00     0.280 HD
HETATM   10  C   UNL     1       3.875  -0.003  -5.681  1.00  0.00     0.238 C 
HETATM   11  C   UNL     1       4.263   1.362  -5.130  1.00  0.00     0.073 C 
HETATM   12  C   UNL     1       4.592   2.822  -3.110  1.00  0.00     0.053 A 
HETATM   13  C   UNL     1       3.941   3.741  -2.297  1.00  0.00    -0.018 A 
HETATM   14  C   UNL     1       2.551   3.556  -1.785  1.00  0.00     0.085 C 
HETATM   15  N   UNL     1       5.848   3.329  -3.365  1.00  0.00    -0.356 N 
HETATM   16  H   UNL     1       6.586   2.908  -3.916  1.00  0.00     0.166 HD
HETATM   17  C   UNL     1       5.995   4.558  -2.763  1.00  0.00     0.043 A 
HETATM   18  C   UNL     1       4.813   4.840  -2.081  1.00  0.00    -0.001 A 
HETATM   19  C   UNL     1       7.086   5.435  -2.774  1.00  0.00     0.030 A 
HETATM   20  C   UNL     1       6.962   6.633  -2.065  1.00  0.00     0.002 A 
HETATM   21  C   UNL     1       5.794   6.939  -1.373  1.00  0.00     0.001 A 
HETATM   22  C   UNL     1       4.711   6.052  -1.371  1.00  0.00     0.014 A 
ENDROOT
BRANCH   1  23
HETATM   23  C   UNL     1       0.636   1.875  -1.759  1.00  0.00     0.289 C 
HETATM   24  O   UNL     1       0.041   1.174  -2.574  1.00  0.00    -0.263 OA
BRANCH  23  25
HETATM   25  O   UNL     1       0.128   2.466  -0.662  1.00  0.00    -0.325 OA
HETATM   26  C   UNL     1      -1.278   2.262  -0.462  1.00  0.00     0.213 C 
ENDBRANCH  23  25
ENDBRANCH   1  23
BRANCH   8  27
HETATM   27  C   UNL     1       4.201  -2.471  -5.510  1.00  0.00     0.273 C 
BRANCH  27  28
HETATM   28  C   UNL     1       4.957  -3.609  -4.888  1.00  0.00    -0.033 A 
HETATM   29  C   UNL     1       4.291  -4.536  -4.069  1.00  0.00     0.009 A 
HETATM   30  C   UNL     1       4.995  -5.581  -3.469  1.00  0.00     0.001 A 
HETATM   31  C   UNL     1       6.365  -5.712  -3.680  1.00  0.00     0.000 A 
HETATM   32  C   UNL     1       7.034  -4.805  -4.499  1.00  0.00     0.001 A 
HETATM   33  C   UNL     1       6.336  -3.758  -5.103  1.00  0.00     0.009 A 
ENDBRANCH  27  28
ENDBRANCH   8  27
TORSDOF 4
