REMARK  4 active torsions:
REMARK  status: ('A' for Active; 'I' for Inactive)
REMARK    1  A    between atoms: C_5  and  C_6 
REMARK       I    between atoms: C_6  and  N_7 
REMARK    2  A    between atoms: N_7  and  C_8 
REMARK    3  A    between atoms: C_8  and  N_9 
REMARK    4  A    between atoms: N_9  and  C_10 
ROOT
HETATM    1  C   UNL     1       6.957   0.233  -1.295  1.00  0.00     0.257 C 
HETATM    2  N   UNL     1       7.304   1.451  -0.717  1.00  0.00    -0.299 N 
HETATM    3  O   UNL     1       5.830  -0.123  -1.617  1.00  0.00    -0.267 OA
HETATM    4  H   UNL     1       8.298   1.631  -0.602  1.00  0.00     0.171 HD
ENDROOT
BRANCH   2   5
HETATM    5  C   UNL     1       6.533   2.526  -0.324  1.00  0.00     0.180 C 
HETATM    6  S   UNL     1       4.869   2.664  -0.400  1.00  0.00    -0.040 SA
BRANCH   5   7
HETATM    7  N   UNL     1       7.214   3.604   0.189  1.00  0.00    -0.318 N 
HETATM    8  H   UNL     1       6.612   4.376   0.450  1.00  0.00     0.170 HD
BRANCH   7   9
HETATM    9  C   UNL     1       8.589   3.761   0.405  1.00  0.00     0.129 A 
HETATM   10  N   UNL     1       9.434   2.750   0.100  1.00  0.00    -0.243 NA
HETATM   11  C   UNL     1      10.752   2.948   0.342  1.00  0.00     0.125 A 
HETATM   12  C   UNL     1      11.283   4.116   0.871  1.00  0.00    -0.044 A 
HETATM   13  C   UNL     1      12.745   4.258   1.149  1.00  0.00     0.049 C 
HETATM   14  C   UNL     1      10.389   5.141   1.180  1.00  0.00     0.012 A 
HETATM   15  C   UNL     1       9.027   4.965   0.942  1.00  0.00     0.051 A 
ENDBRANCH   7   9
ENDBRANCH   5   7
ENDBRANCH   2   5
BRANCH   1  16
HETATM   16  C   UNL     1       8.103  -0.675  -1.585  1.00  0.00     0.032 A 
HETATM   17  C   UNL     1       9.233  -0.740  -0.760  1.00  0.00     0.017 A 
HETATM   18  C   UNL     1      10.293  -1.590  -1.092  1.00  0.00     0.007 A 
HETATM   19  C   UNL     1      10.237  -2.381  -2.246  1.00  0.00    -0.062 A 
HETATM   20  C   UNL     1      11.363  -3.309  -2.595  1.00  0.00     0.048 C 
HETATM   21  C   UNL     1       9.088  -2.342  -3.045  1.00  0.00     0.007 A 
HETATM   22  C   UNL     1       8.027  -1.496  -2.716  1.00  0.00     0.017 A 
ENDBRANCH   1  16
TORSDOF 4
