REMARK  5 active torsions:
REMARK  status: ('A' for Active; 'I' for Inactive)
REMARK    1  A    between atoms: C_2  and  C_3 
REMARK    2  A    between atoms: C_7  and  C_8 
REMARK    3  A    between atoms: C_8  and  N_9 
REMARK       I    between atoms: N_9  and  C_10 
REMARK       I    between atoms: C_10  and  N_11 
REMARK    4  A    between atoms: N_11  and  C_12 
REMARK    5  A    between atoms: N_18  and  C_19 
ROOT
HETATM    1  N   UNL     1       4.572  -1.605   5.611  1.00  0.00    -0.337 N 
HETATM    2  C   UNL     1       4.536  -2.452   6.675  1.00  0.00     0.321 C 
HETATM    3  N   UNL     1       4.208  -3.752   6.456  1.00  0.00    -0.309 N 
HETATM    4  O   UNL     1       4.836  -2.103   7.816  1.00  0.00    -0.247 OA
HETATM    5  H   UNL     1       4.799  -2.067   4.745  1.00  0.00     0.164 HD
HETATM    6  H   UNL     1       4.400  -4.300   7.288  1.00  0.00     0.170 HD
ENDROOT
BRANCH   3   7
HETATM    7  C   UNL     1       3.663  -4.453   5.365  1.00  0.00     0.037 A 
HETATM    8  C   UNL     1       3.042  -3.851   4.267  1.00  0.00     0.047 A 
HETATM    9  C   UNL     1       2.557  -4.684   3.270  1.00  0.00     0.050 A 
HETATM   10  C   UNL     1       2.653  -6.060   3.344  1.00  0.00     0.048 A 
HETATM   11  C   UNL     1       1.897  -4.358   2.007  1.00  0.00     0.262 A 
HETATM   12  C   UNL     1       2.056  -6.619   2.134  1.00  0.00     0.262 A 
HETATM   13  C   UNL     1       3.236  -6.688   4.422  1.00  0.00     0.020 A 
HETATM   14  O   UNL     1       2.039  -7.809   1.882  1.00  0.00    -0.267 OA
HETATM   15  N   UNL     1       1.588  -5.554   1.405  1.00  0.00    -0.275 N 
HETATM   16  C   UNL     1       3.735  -5.868   5.441  1.00  0.00     0.030 A 
HETATM   17  O   UNL     1       1.726  -3.217   1.618  1.00  0.00    -0.267 OA
BRANCH  15  18
HETATM   18  C   UNL     1       0.991  -5.678   0.113  1.00  0.00     0.096 A 
HETATM   19  C   UNL     1      -0.265  -6.486  -0.095  1.00  0.00     0.028 A 
HETATM   20  C   UNL     1      -0.306  -4.995  -0.236  1.00  0.00     0.028 A 
ENDBRANCH  15  18
ENDBRANCH   3   7
BRANCH   1  21
HETATM   21  C   UNL     1       5.155  -0.284   5.735  1.00  0.00     0.183 C 
BRANCH  21  22
HETATM   22  C   UNL     1       4.247   0.664   6.421  1.00  0.00     0.047 A 
HETATM   23  N   UNL     1       3.844   0.479   7.715  1.00  0.00    -0.280 N 
HETATM   24  N   UNL     1       3.122   1.496   8.209  1.00  0.00    -0.178 NA
HETATM   25  H   UNL     1       4.051  -0.322   8.312  1.00  0.00     0.189 HD
HETATM   26  C   UNL     1       3.042   2.372   7.198  1.00  0.00     0.064 A 
HETATM   27  C   UNL     1       3.718   1.880   6.048  1.00  0.00     0.058 A 
BRANCH  26  28
HETATM   28  C   UNL     1       2.357   3.720   7.371  1.00  0.00    -0.005 C 
HETATM   29  C   UNL     1       1.547   3.798   8.684  1.00  0.00     0.021 C 
HETATM   30  C   UNL     1       1.386   3.987   6.204  1.00  0.00     0.021 C 
HETATM   31  C   UNL     1       3.422   4.836   7.399  1.00  0.00     0.021 C 
ENDBRANCH  26  28
ENDBRANCH  21  22
ENDBRANCH   1  21
TORSDOF 5
