REMARK  4 active torsions:
REMARK  status: ('A' for Active; 'I' for Inactive)
REMARK    1  A    between atoms: C_4  and  C_5 
REMARK    2  A    between atoms: C_8  and  C_9 
REMARK    3  A    between atoms: C_9  and  N_10 
REMARK       I    between atoms: N_10  and  C_11 
REMARK       I    between atoms: C_11  and  N_12 
REMARK    4  A    between atoms: N_12  and  C_13 
ROOT
HETATM    1  C   UNL     1       8.376   3.996  -1.490  1.00  0.00     0.213 C 
ENDROOT
BRANCH   1   2
HETATM    2  C   UNL     1       7.133   3.308  -1.072  1.00  0.00     0.190 A 
HETATM    3  O   UNL     1       6.254   2.976  -2.058  1.00  0.00    -0.194 OA
HETATM    4  N   UNL     1       5.143   2.421  -1.428  1.00  0.00    -0.106 NA
HETATM    5  C   UNL     1       5.452   2.475  -0.120  1.00  0.00     0.189 A 
HETATM    6  N   UNL     1       6.705   2.998   0.132  1.00  0.00    -0.202 NA
BRANCH   5   7
HETATM    7  C   UNL     1       4.548   2.061   0.949  1.00  0.00     0.015 A 
HETATM    8  C   UNL     1       4.975   2.082   2.287  1.00  0.00     0.022 A 
HETATM    9  C   UNL     1       4.113   1.708   3.329  1.00  0.00    -0.061 A 
HETATM   10  C   UNL     1       4.567   1.754   4.758  1.00  0.00     0.048 C 
HETATM   11  C   UNL     1       2.803   1.324   3.024  1.00  0.00     0.007 A 
HETATM   12  C   UNL     1       2.365   1.298   1.701  1.00  0.00     0.002 A 
HETATM   13  C   UNL     1       3.233   1.662   0.669  1.00  0.00     0.015 A 
ENDBRANCH   5   7
ENDBRANCH   1   2
BRANCH   1  14
HETATM   14  N   UNL     1       9.383   3.040  -1.906  1.00  0.00    -0.335 N 
HETATM   15  C   UNL     1      10.525   3.516  -2.471  1.00  0.00     0.321 C 
HETATM   16  N   UNL     1      11.506   2.628  -2.777  1.00  0.00    -0.309 N 
HETATM   17  O   UNL     1      10.716   4.715  -2.664  1.00  0.00    -0.247 OA
HETATM   18  H   UNL     1      12.367   3.111  -3.004  1.00  0.00     0.170 HD
HETATM   19  H   UNL     1       9.532   2.248  -1.295  1.00  0.00     0.164 HD
BRANCH  16  20
HETATM   20  C   UNL     1      11.526   1.229  -2.922  1.00  0.00     0.036 A 
HETATM   21  C   UNL     1      10.389   0.424  -3.001  1.00  0.00     0.029 A 
HETATM   22  C   UNL     1      10.512  -0.960  -3.174  1.00  0.00     0.002 A 
HETATM   23  C   UNL     1      11.771  -1.546  -3.282  1.00  0.00     0.000 A 
HETATM   24  C   UNL     1      12.910  -0.750  -3.228  1.00  0.00     0.002 A 
HETATM   25  C   UNL     1      12.787   0.631  -3.056  1.00  0.00     0.029 A 
ENDBRANCH  16  20
ENDBRANCH   1  14
TORSDOF 4
