REMARK  7 active torsions:
REMARK  status: ('A' for Active; 'I' for Inactive)
REMARK    1  A    between atoms: N_2  and  C_4 
REMARK    2  A    between atoms: N_2  and  C_23 
REMARK    3  A    between atoms: C_4  and  C_5 
REMARK       I    between atoms: C_5  and  N_6 
REMARK    4  A    between atoms: N_6  and  C_7 
REMARK    5  A    between atoms: C_8  and  O_9 
REMARK    6  A    between atoms: C_23  and  C_24 
REMARK       I    between atoms: C_24  and  N_25 
REMARK    7  A    between atoms: N_25  and  C_26 
ROOT
HETATM    1  C   UNL     1       2.036   1.321  -1.321  1.00  0.00     0.248 C 
HETATM    2  N   UNL     1       0.962   0.677  -1.870  1.00  0.00    -0.323 N 
HETATM    3  O   UNL     1       2.901   1.970  -1.914  1.00  0.00    -0.271 OA
HETATM    4  H   UNL     1       0.154   0.459  -1.287  1.00  0.00     0.169 HD
ENDROOT
BRANCH   1   5
HETATM    5  C   UNL     1       2.114   1.282   0.208  1.00  0.00     0.337 C 
BRANCH   5   6
HETATM    6  N   UNL     1       2.760   2.593   0.698  1.00  0.00    -0.058 N 
HETATM    7  C   UNL     1       3.667   2.386   1.865  1.00  0.00     0.270 C 
HETATM    8  H   UNL     1       3.350   2.866  -0.111  1.00  0.00     0.280 HD
BRANCH   6   9
HETATM    9  C   UNL     1       1.766   3.731   0.926  1.00  0.00     0.337 C 
BRANCH   9  10
HETATM   10  C   UNL     1       0.608   3.786  -0.077  1.00  0.00     0.248 C 
HETATM   11  N   UNL     1       0.771   4.691  -1.108  1.00  0.00    -0.326 N 
HETATM   12  H   UNL     1       1.682   5.118  -1.245  1.00  0.00     0.169 HD
HETATM   13  O   UNL     1      -0.312   2.976   0.030  1.00  0.00    -0.271 OA
BRANCH  11  14
HETATM   14  C   UNL     1      -0.186   4.992  -2.105  1.00  0.00     0.036 A 
HETATM   15  C   UNL     1      -1.532   4.625  -2.023  1.00  0.00     0.055 A 
HETATM   16  C   UNL     1      -2.431   4.975  -3.041  1.00  0.00     0.058 A 
HETATM   17 CL   UNL     1      -4.078   4.485  -2.855  1.00  0.00    -0.082 Cl
HETATM   18  C   UNL     1      -1.987   5.698  -4.151  1.00  0.00     0.055 A 
HETATM   19 CL   UNL     1      -3.035   6.159  -5.441  1.00  0.00    -0.083 Cl
HETATM   20  C   UNL     1      -0.645   6.072  -4.233  1.00  0.00     0.028 A 
HETATM   21  C   UNL     1       0.249   5.727  -3.213  1.00  0.00     0.031 A 
ENDBRANCH  11  14
ENDBRANCH   9  10
ENDBRANCH   6   9
ENDBRANCH   5   6
ENDBRANCH   1   5
BRANCH   2  22
HETATM   22  C   UNL     1       0.747   0.390  -3.237  1.00  0.00     0.071 A 
HETATM   23  C   UNL     1      -0.540  -0.062  -3.584  1.00  0.00     0.096 A 
HETATM   24  C   UNL     1      -0.853  -0.500  -4.879  1.00  0.00     0.054 A 
HETATM   25  C   UNL     1       0.159  -0.444  -5.856  1.00  0.00     0.014 A 
HETATM   26  C   UNL     1       1.404   0.058  -5.494  1.00  0.00     0.089 A 
HETATM   27  C   UNL     1       0.271  -0.813  -7.230  1.00  0.00     0.011 A 
HETATM   28  O   UNL     1       2.253   0.045  -6.558  1.00  0.00    -0.309 OA
HETATM   29  C   UNL     1       1.744   0.490  -4.210  1.00  0.00     0.070 A 
HETATM   30  C   UNL     1       1.570  -0.489  -7.607  1.00  0.00     0.087 A 
HETATM   31  C   UNL     1       2.089  -0.697  -8.883  1.00  0.00     0.038 A 
HETATM   32  C   UNL     1       1.230  -1.279  -9.821  1.00  0.00     0.003 A 
HETATM   33  C   UNL     1      -0.081  -1.625  -9.481  1.00  0.00     0.001 A 
HETATM   34  C   UNL     1      -0.578  -1.396  -8.190  1.00  0.00     0.015 A 
BRANCH  23  35
HETATM   35  O   UNL     1      -1.478  -0.104  -2.574  1.00  0.00    -0.354 OA
HETATM   36  C   UNL     1      -2.600   0.731  -2.875  1.00  0.00     0.210 C 
ENDBRANCH  23  35
ENDBRANCH   2  22
TORSDOF 7
