REMARK  3 active torsions:
REMARK  status: ('A' for Active; 'I' for Inactive)
REMARK    1  A    between atoms: C_6  and  N_7 
REMARK       I    between atoms: N_7  and  C_8 
REMARK    2  A    between atoms: C_8  and  C_9 
REMARK    3  A    between atoms: C_9  and  C_10 
ROOT
HETATM    1  C   UNL     1       5.591  -1.990  -0.246  1.00  0.00     0.286 C 
HETATM    2  N   UNL     1       5.578  -1.820   1.282  1.00  0.00    -0.056 N 
HETATM    3  H   UNL     1       4.593  -1.732   1.566  1.00  0.00     0.278 HD
HETATM    4  H   UNL     1       5.861  -2.719   1.729  1.00  0.00     0.278 HD
HETATM    5  C   UNL     1       6.343  -0.679   1.870  1.00  0.00     0.209 C 
HETATM    6  C   UNL     1       6.113   0.589   1.020  1.00  0.00     0.115 C 
HETATM    7  N   UNL     1       6.422   0.352  -0.385  1.00  0.00    -0.353 N 
HETATM    8  C   UNL     1       6.148  -0.810  -1.051  1.00  0.00     0.249 C 
HETATM    9  O   UNL     1       6.332  -0.880  -2.262  1.00  0.00    -0.271 OA
HETATM   10  C   UNL     1       7.822  -1.047   2.000  1.00  0.00     0.035 C 
HETATM   11  C   UNL     1       8.624   0.134   2.545  1.00  0.00     0.002 C 
HETATM   12  C   UNL     1       8.417   1.399   1.714  1.00  0.00     0.002 C 
HETATM   13  C   UNL     1       6.937   1.755   1.571  1.00  0.00     0.027 C 
HETATM   14  H   UNL     1       6.691   1.130  -0.985  1.00  0.00     0.163 HD
ENDROOT
BRANCH   1  15
HETATM   15  C   UNL     1       6.290  -3.295  -0.650  1.00  0.00     0.146 C 
BRANCH  15  16
HETATM   16  C   UNL     1       5.551  -4.403   0.054  1.00  0.00     0.224 C 
HETATM   17  N   UNL     1       4.674  -5.082  -0.749  1.00  0.00    -0.327 N 
HETATM   18  H   UNL     1       4.810  -4.962  -1.749  1.00  0.00     0.169 HD
HETATM   19  O   UNL     1       5.687  -4.442   1.274  1.00  0.00    -0.273 OA
BRANCH  17  20
HETATM   20  C   UNL     1       3.581  -5.935  -0.442  1.00  0.00     0.040 A 
HETATM   21  C   UNL     1       3.135  -6.379   0.816  1.00  0.00    -0.035 A 
HETATM   22  C   UNL     1       1.971  -7.185   0.880  1.00  0.00     0.015 A 
HETATM   23  C   UNL     1       3.785  -6.092   2.138  1.00  0.00     0.050 C 
HETATM   24  C   UNL     1       1.260  -7.568  -0.261  1.00  0.00    -0.061 A 
HETATM   25  C   UNL     1       0.022  -8.406  -0.154  1.00  0.00     0.048 C 
HETATM   26  C   UNL     1       1.706  -7.125  -1.499  1.00  0.00     0.009 A 
HETATM   27  C   UNL     1       2.850  -6.330  -1.584  1.00  0.00     0.030 A 
ENDBRANCH  17  20
ENDBRANCH  15  16
ENDBRANCH   1  15
TORSDOF 3
