REMARK  6 active torsions:
REMARK  status: ('A' for Active; 'I' for Inactive)
REMARK    1  A    between atoms: C_7  and  C_8 
REMARK    2  A    between atoms: N_9  and  N_10 
REMARK       I    between atoms: N_10  and  C_11 
REMARK    3  A    between atoms: C_11  and  C_12 
REMARK    4  A    between atoms: C_12  and  N_13 
REMARK    5  A    between atoms: N_13  and  C_14 
REMARK    6  A    between atoms: C_17  and  O_18 
ROOT
HETATM    1  N   UNL     1       3.308  -4.814   0.014  1.00  0.00    -0.246 N 
HETATM    2  C   UNL     1       4.292  -5.767   0.244  1.00  0.00     0.250 C 
HETATM    3  O   UNL     1       5.481  -5.528   0.450  1.00  0.00    -0.270 OA
HETATM    4  H   UNL     1       2.349  -5.119  -0.138  1.00  0.00     0.192 HD
ENDROOT
BRANCH   1   5
HETATM    5  N   UNL     1       3.660  -3.502  -0.063  1.00  0.00    -0.184 NA
HETATM    6  C   UNL     1       2.710  -2.642  -0.232  1.00  0.00     0.153 C 
BRANCH   6   7
HETATM    7  C   UNL     1       3.037  -1.229  -0.333  1.00  0.00     0.018 A 
HETATM    8  C   UNL     1       4.311  -0.670  -0.340  1.00  0.00     0.018 A 
HETATM    9  C   UNL     1       5.658  -1.297  -0.252  1.00  0.00     0.069 C 
HETATM   10  N   UNL     1       4.172   0.690  -0.450  1.00  0.00    -0.358 N 
HETATM   11  H   UNL     1       4.938   1.350  -0.479  1.00  0.00     0.166 HD
HETATM   12  C   UNL     1       2.846   1.040  -0.515  1.00  0.00     0.043 A 
HETATM   13  C   UNL     1       2.106  -0.140  -0.444  1.00  0.00     0.004 A 
HETATM   14  C   UNL     1       2.258   2.305  -0.629  1.00  0.00     0.030 A 
HETATM   15  C   UNL     1       0.697  -0.044  -0.486  1.00  0.00     0.014 A 
HETATM   16  C   UNL     1       0.092   1.214  -0.598  1.00  0.00     0.001 A 
HETATM   17  C   UNL     1       0.864   2.371  -0.669  1.00  0.00     0.002 A 
ENDBRANCH   6   7
ENDBRANCH   1   5
BRANCH   2  18
HETATM   18  C   UNL     1       3.746  -7.194   0.283  1.00  0.00     0.197 C 
BRANCH  18  19
HETATM   19  N   UNL     1       2.666  -7.389  -0.707  1.00  0.00    -0.284 NA
HETATM   20  H   UNL     1       2.930  -6.993  -1.612  1.00  0.00     0.128 HD
BRANCH  19  21
HETATM   21  C   UNL     1       2.219  -8.710  -0.905  1.00  0.00     0.008 A 
HETATM   22  C   UNL     1       1.502  -9.002  -2.073  1.00  0.00     0.026 A 
HETATM   23  C   UNL     1       1.002 -10.287  -2.314  1.00  0.00     0.038 A 
HETATM   24  C   UNL     1       1.186 -11.307  -1.383  1.00  0.00     0.068 A 
HETATM   25  C   UNL     1       1.845 -11.018  -0.192  1.00  0.00     0.038 A 
HETATM   26  C   UNL     1       2.337  -9.726   0.050  1.00  0.00     0.026 A 
BRANCH  24  27
HETATM   27  O   UNL     1       0.666 -12.519  -1.744  1.00  0.00    -0.356 OA
HETATM   28  C   UNL     1       0.942 -13.617  -0.882  1.00  0.00     0.210 C 
ENDBRANCH  24  27
ENDBRANCH  19  21
ENDBRANCH  18  19
ENDBRANCH   2  18
TORSDOF 6
