REMARK  5 active torsions:
REMARK  status: ('A' for Active; 'I' for Inactive)
REMARK    1  A    between atoms: C_2  and  O_3 
REMARK    2  A    between atoms: C_4  and  C_5 
REMARK    3  A    between atoms: C_5  and  O_6 
REMARK    4  A    between atoms: C_9  and  C_10 
REMARK    5  A    between atoms: C_22  and  O_23 
ROOT
HETATM    1  C   UNL     1       2.241   0.210   1.697  1.00  0.00     0.047 C 
HETATM    2  C   UNL     1       2.544   0.123   0.193  1.00  0.00     0.073 C 
HETATM    3  C   UNL     1       3.111   1.458  -0.410  1.00  0.00     0.133 C 
HETATM    4  C   UNL     1       3.661   1.370  -1.878  1.00  0.00     0.074 C 
HETATM    5  C   UNL     1       3.837  -0.036  -2.350  1.00  0.00     0.030 A 
HETATM    6  C   UNL     1       3.759  -1.140  -1.531  1.00  0.00     0.042 A 
HETATM    7  N   UNL     1       3.949  -2.239  -2.319  1.00  0.00    -0.279 N 
HETATM    8  H   UNL     1       3.958  -3.219  -2.053  1.00  0.00     0.189 HD
HETATM    9  N   UNL     1       4.083  -1.922  -3.625  1.00  0.00    -0.149 NA
HETATM   10  C   UNL     1       4.013  -0.597  -3.616  1.00  0.00     0.190 A 
HETATM   11  C   UNL     1       3.439  -1.120  -0.084  1.00  0.00     0.097 C 
ENDROOT
BRANCH   4  12
HETATM   12  C   UNL     1       4.997   2.055  -2.155  1.00  0.00    -0.048 A 
HETATM   13  C   UNL     1       6.221   1.547  -1.676  1.00  0.00     0.009 A 
HETATM   14  C   UNL     1       7.425   2.211  -1.921  1.00  0.00     0.019 A 
HETATM   15  C   UNL     1       7.420   3.395  -2.651  1.00  0.00     0.011 A 
HETATM   16 BR   UNL     1       9.047   4.297  -2.982  1.00  0.00    -0.051 Br
HETATM   17  C   UNL     1       6.224   3.918  -3.136  1.00  0.00     0.019 A 
HETATM   18  C   UNL     1       5.020   3.253  -2.887  1.00  0.00     0.009 A 
ENDBRANCH   4  12
BRANCH   3  19
HETATM   19  C   UNL     1       4.095   2.124   0.529  1.00  0.00     0.266 C 
HETATM   20  O   UNL     1       4.947   1.541   1.185  1.00  0.00    -0.265 OA
BRANCH  19  21
HETATM   21  O   UNL     1       3.891   3.474   0.530  1.00  0.00    -0.326 OA
HETATM   22  C   UNL     1       4.807   4.211   1.338  1.00  0.00     0.213 C 
ENDBRANCH  19  21
ENDBRANCH   3  19
BRANCH   2  23
HETATM   23  O   UNL     1       1.242  -0.103  -0.405  1.00  0.00    -0.389 OA
HETATM   24  H   UNL     1       1.369  -0.369  -1.334  1.00  0.00     0.210 HD
ENDBRANCH   2  23
BRANCH  10  25
HETATM   25  O   UNL     1       4.078  -0.012  -4.806  1.00  0.00    -0.343 OA
HETATM   26  H   UNL     1       4.211  -0.744  -5.432  1.00  0.00     0.219 HD
ENDBRANCH  10  25
TORSDOF 5
