REMARK  3 active torsions:
REMARK  status: ('A' for Active; 'I' for Inactive)
REMARK    1  A    between atoms: N_3  and  C_4 
REMARK    2  A    between atoms: C_6  and  C_7 
REMARK       I    between atoms: C_7  and  N_8 
REMARK    3  A    between atoms: N_8  and  C_9 
ROOT
HETATM    1  C   UNL     1       5.065   0.743   3.217  1.00  0.00     0.072 C 
HETATM    2  C   UNL     1       4.503   0.955   1.794  1.00  0.00     0.149 C 
HETATM    3  N   UNL     1       3.119   0.441   1.636  1.00  0.00    -0.267 N 
HETATM    4  C   UNL     1       2.224   1.046   0.755  1.00  0.00     0.326 C 
HETATM    5  O   UNL     1       1.090   0.648   0.493  1.00  0.00    -0.247 OA
HETATM    6  N   UNL     1       2.648   2.182   0.130  1.00  0.00    -0.334 N 
HETATM    7  O   UNL     1       5.396   0.253   0.899  1.00  0.00    -0.319 OA
HETATM    8  C   UNL     1       5.508   0.740  -0.375  1.00  0.00     0.080 A 
HETATM    9  C   UNL     1       4.862   1.902  -0.806  1.00  0.00    -0.002 A 
HETATM   10  C   UNL     1       6.334   0.030  -1.244  1.00  0.00     0.037 A 
HETATM   11  C   UNL     1       6.507   0.470  -2.557  1.00  0.00     0.003 A 
HETATM   12  C   UNL     1       5.848   1.616  -3.001  1.00  0.00     0.001 A 
HETATM   13  C   UNL     1       5.023   2.329  -2.130  1.00  0.00     0.012 A 
HETATM   14  C   UNL     1       4.547   2.471   1.557  1.00  0.00     0.092 C 
HETATM   15  C   UNL     1       4.002   2.660   0.164  1.00  0.00     0.127 C 
HETATM   16  H   UNL     1       2.018   2.503  -0.594  1.00  0.00     0.165 HD
ENDROOT
BRANCH   3  17
HETATM   17  C   UNL     1       2.719  -0.774   2.281  1.00  0.00     0.043 A 
HETATM   18  C   UNL     1       3.527  -1.918   2.272  1.00  0.00     0.047 A 
HETATM   19  C   UNL     1       3.099  -3.089   2.916  1.00  0.00     0.034 A 
HETATM   20  C   UNL     1       1.887  -3.108   3.614  1.00  0.00     0.017 A 
HETATM   21  C   UNL     1       1.075  -1.979   3.621  1.00  0.00     0.003 A 
HETATM   22  C   UNL     1       1.482  -0.828   2.944  1.00  0.00     0.030 A 
BRANCH  19  23
HETATM   23  C   UNL     1       3.886  -4.349   2.860  1.00  0.00     0.252 C 
HETATM   24  N   UNL     1       4.499  -4.612   1.652  1.00  0.00    -0.352 N 
HETATM   25  H   UNL     1       4.256  -4.018   0.869  1.00  0.00     0.163 HD
HETATM   26  O   UNL     1       3.898  -5.102   3.825  1.00  0.00    -0.268 OA
BRANCH  24  27
HETATM   27  C   UNL     1       5.124  -5.881   1.330  1.00  0.00     0.084 C 
HETATM   28  C   UNL     1       6.317  -6.264   2.207  1.00  0.00     0.025 C 
HETATM   29  C   UNL     1       6.400  -7.772   2.030  1.00  0.00     0.002 C 
HETATM   30  C   UNL     1       4.943  -8.207   2.065  1.00  0.00     0.002 C 
HETATM   31  C   UNL     1       4.171  -7.086   1.370  1.00  0.00     0.025 C 
ENDBRANCH  24  27
ENDBRANCH  19  23
ENDBRANCH   3  17
TORSDOF 3
