REMARK  3 active torsions:
REMARK  status: ('A' for Active; 'I' for Inactive)
REMARK    1  A    between atoms: C_5  and  C_6 
REMARK    2  A    between atoms: C_10  and  N_11 
REMARK    3  A    between atoms: C_18  and  C_19 
ROOT
HETATM    1  C   UNL     1       6.553   0.257  -0.703  1.00  0.00     0.106 A 
HETATM    2  C   UNL     1       7.052   1.389  -1.608  1.00  0.00     0.081 A 
HETATM    3  C   UNL     1       6.724   2.717  -1.207  1.00  0.00     0.100 C 
HETATM    4  N   UNL     1       6.460   3.799  -0.879  1.00  0.00    -0.191 NA
HETATM    5  C   UNL     1       7.811   1.171  -2.717  1.00  0.00     0.140 A 
HETATM    6  O   UNL     1       8.195  -0.122  -3.111  1.00  0.00    -0.279 OA
HETATM    7  C   UNL     1       7.852  -1.113  -2.298  1.00  0.00     0.175 A 
HETATM    8  C   UNL     1       7.103  -1.054  -1.150  1.00  0.00     0.040 A 
HETATM    9  N   UNL     1       8.206  -2.407  -2.475  1.00  0.00    -0.256 N 
HETATM   10  H   UNL     1       8.760  -2.811  -3.221  1.00  0.00     0.191 HD
HETATM   11  N   UNL     1       7.743  -3.210  -1.502  1.00  0.00    -0.172 NA
HETATM   12  C   UNL     1       7.081  -2.391  -0.657  1.00  0.00     0.099 A 
ENDROOT
BRANCH   1  13
HETATM   13  C   UNL     1       5.033   0.145  -0.718  1.00  0.00    -0.044 A 
HETATM   14  C   UNL     1       4.314  -0.309  -1.838  1.00  0.00     0.009 A 
HETATM   15  C   UNL     1       2.917  -0.325  -1.836  1.00  0.00     0.007 A 
HETATM   16  C   UNL     1       2.202   0.120  -0.720  1.00  0.00    -0.062 A 
HETATM   17  C   UNL     1       0.702   0.156  -0.746  1.00  0.00     0.048 C 
HETATM   18  C   UNL     1       2.906   0.594   0.390  1.00  0.00     0.007 A 
HETATM   19  C   UNL     1       4.304   0.602   0.394  1.00  0.00     0.009 A 
ENDBRANCH   1  13
BRANCH   5  20
HETATM   20  N   UNL     1       8.288   2.147  -3.563  1.00  0.00    -0.282 NA
HETATM   21  H   UNL     1       7.759   3.016  -3.571  1.00  0.00     0.126 HD
HETATM   22  H   UNL     1       8.474   1.787  -4.496  1.00  0.00     0.126 HD
ENDBRANCH   5  20
BRANCH  12  23
HETATM   23  C   UNL     1       6.464  -2.930   0.557  1.00  0.00    -0.005 A 
HETATM   24  C   UNL     1       6.484  -2.222   1.765  1.00  0.00     0.014 A 
HETATM   25  C   UNL     1       5.902  -2.763   2.915  1.00  0.00     0.001 A 
HETATM   26  C   UNL     1       5.303  -4.021   2.872  1.00  0.00     0.000 A 
HETATM   27  C   UNL     1       5.288  -4.741   1.680  1.00  0.00     0.001 A 
HETATM   28  C   UNL     1       5.867  -4.199   0.530  1.00  0.00     0.014 A 
ENDBRANCH  12  23
TORSDOF 3
