REMARK  6 active torsions:
REMARK  status: ('A' for Active; 'I' for Inactive)
REMARK    1  A    between atoms: O_2  and  C_3 
REMARK    2  A    between atoms: C_5  and  C_6 
REMARK    3  A    between atoms: C_12  and  C_13 
REMARK       I    between atoms: C_13  and  N_14 
REMARK    4  A    between atoms: N_14  and  C_15 
REMARK    5  A    between atoms: C_17  and  O_18 
REMARK    6  A    between atoms: C_23  and  C_24 
ROOT
HETATM    1  C   UNL     1       2.535   4.724  -1.140  1.00  0.00     0.118 C 
HETATM    2  N   UNL     1       3.576   5.762  -1.190  1.00  0.00    -0.365 N 
HETATM    3  C   UNL     1       3.235   7.056  -1.464  1.00  0.00     0.138 A 
HETATM    4  N   UNL     1       1.956   7.377  -1.860  1.00  0.00    -0.240 N 
HETATM    5  N   UNL     1       1.772   8.673  -2.141  1.00  0.00    -0.181 NA
HETATM    6  C   UNL     1       2.953   9.216  -1.842  1.00  0.00     0.160 A 
HETATM    7  C   UNL     1       3.918   8.261  -1.429  1.00  0.00     0.096 A 
HETATM    8  C   UNL     1       0.859   6.435  -1.960  1.00  0.00     0.221 C 
HETATM    9  C   UNL     1       1.421   5.025  -2.158  1.00  0.00     0.066 C 
HETATM   10  H   UNL     1       4.313   5.583  -0.506  1.00  0.00     0.161 HD
ENDROOT
BRANCH   7  11
HETATM   11  C   UNL     1       5.289   8.575  -1.059  1.00  0.00     0.261 C 
HETATM   12  N   UNL     1       6.150   7.495  -1.087  1.00  0.00    -0.323 N 
HETATM   13  H   UNL     1       5.768   6.642  -1.479  1.00  0.00     0.169 HD
HETATM   14  O   UNL     1       5.599   9.729  -0.784  1.00  0.00    -0.267 OA
BRANCH  12  15
HETATM   15  C   UNL     1       7.510   7.475  -0.709  1.00  0.00     0.037 A 
HETATM   16  C   UNL     1       8.185   8.576  -0.172  1.00  0.00     0.066 A 
HETATM   17  C   UNL     1       9.529   8.465   0.182  1.00  0.00     0.067 A 
HETATM   18  C   UNL     1      10.217   7.271   0.018  1.00  0.00     0.036 A 
HETATM   19  C   UNL     1       9.552   6.168  -0.511  1.00  0.00     0.005 A 
HETATM   20  C   UNL     1       8.205   6.270  -0.874  1.00  0.00     0.029 A 
BRANCH  17  21
HETATM   21  O   UNL     1      10.213   9.526   0.703  1.00  0.00    -0.361 OA
HETATM   22  H   UNL     1       9.615  10.293   0.729  1.00  0.00     0.217 HD
ENDBRANCH  17  21
ENDBRANCH  12  15
ENDBRANCH   7  11
BRANCH   1  23
HETATM   23  C   UNL     1       3.132   3.357  -1.413  1.00  0.00    -0.033 A 
HETATM   24  C   UNL     1       3.896   3.106  -2.566  1.00  0.00     0.046 A 
HETATM   25  C   UNL     1       4.339   1.817  -2.876  1.00  0.00     0.068 A 
HETATM   26  C   UNL     1       4.053   0.766  -2.006  1.00  0.00     0.037 A 
HETATM   27  C   UNL     1       3.315   1.002  -0.845  1.00  0.00     0.003 A 
HETATM   28  C   UNL     1       2.851   2.285  -0.552  1.00  0.00     0.009 A 
BRANCH  25  29
HETATM   29  O   UNL     1       5.036   1.715  -4.049  1.00  0.00    -0.356 OA
HETATM   30  C   UNL     1       5.195   0.403  -4.578  1.00  0.00     0.210 C 
ENDBRANCH  25  29
ENDBRANCH   1  23
BRANCH   8  31
HETATM   31  C   UNL     1      -0.024   6.541  -0.735  1.00  0.00     0.409 C 
HETATM   32  F   UNL     1       0.648   6.337   0.420  1.00  0.00    -0.169 F 
HETATM   33  F   UNL     1      -0.657   7.728  -0.638  1.00  0.00    -0.169 F 
HETATM   34  F   UNL     1      -0.994   5.590  -0.785  1.00  0.00    -0.169 F 
ENDBRANCH   8  31
TORSDOF 6
