REMARK  4 active torsions:
REMARK  status: ('A' for Active; 'I' for Inactive)
REMARK    1  A    between atoms: C_9  and  C_10 
REMARK    2  A    between atoms: C_11  and  O_12 
REMARK    3  A    between atoms: C_18  and  C_19 
REMARK       I    between atoms: C_19  and  N_20 
REMARK    4  A    between atoms: N_20  and  C_21 
ROOT
HETATM    1  C   UNL     1       1.225   0.091   0.926  1.00  0.00     0.070 C 
HETATM    2  C   UNL     1       2.522  -0.054   0.169  1.00  0.00     0.037 C 
HETATM    3  N   UNL     1       3.088   1.133  -0.285  1.00  0.00    -0.192 N 
HETATM    4  C   UNL     1       4.346   1.209  -0.760  1.00  0.00     0.725 A 
HETATM    5  N   UNL     1       5.066   0.060  -0.955  1.00  0.00    -0.084 N 
HETATM    6  N   UNL     1       6.327   0.336  -1.353  1.00  0.00    -0.149 NA
HETATM    7  C   UNL     1       6.279   1.671  -1.418  1.00  0.00     0.275 A 
HETATM    8  N   UNL     1       5.085   2.245  -1.065  1.00  0.00    -0.054 NA
HETATM    9  C   UNL     1       4.540  -1.291  -0.712  1.00  0.00     0.205 C 
HETATM   10  C   UNL     1       3.173  -1.226  -0.033  1.00  0.00     0.063 C 
HETATM   11  H   UNL     1       2.623   2.002  -0.035  1.00  0.00     0.184 HD
ENDROOT
BRANCH  10  12
HETATM   12  C   UNL     1       2.680  -2.531   0.476  1.00  0.00     0.256 C 
HETATM   13  N   UNL     1       1.449  -2.880  -0.038  1.00  0.00    -0.323 N 
HETATM   14  H   UNL     1       1.031  -2.238  -0.699  1.00  0.00     0.169 HD
HETATM   15  O   UNL     1       3.372  -3.164   1.262  1.00  0.00    -0.267 OA
BRANCH  13  16
HETATM   16  C   UNL     1       0.685  -4.022   0.280  1.00  0.00     0.035 A 
HETATM   17  C   UNL     1       1.130  -5.051   1.113  1.00  0.00     0.031 A 
HETATM   18  C   UNL     1       0.305  -6.147   1.392  1.00  0.00     0.026 A 
HETATM   19  C   UNL     1      -0.971  -6.215   0.842  1.00  0.00     0.034 A 
HETATM   20 CL   UNL     1      -1.988  -7.557   1.193  1.00  0.00    -0.084 Cl
HETATM   21  C   UNL     1      -1.428  -5.199   0.008  1.00  0.00     0.026 A 
HETATM   22  C   UNL     1      -0.599  -4.108  -0.276  1.00  0.00     0.031 A 
ENDBRANCH  13  16
ENDBRANCH  10  12
BRANCH   9  23
HETATM   23  C   UNL     1       4.499  -2.062  -2.032  1.00  0.00     0.005 A 
HETATM   24  C   UNL     1       5.378  -3.137  -2.263  1.00  0.00     0.076 A 
HETATM   25  C   UNL     1       5.330  -3.830  -3.477  1.00  0.00     0.037 A 
HETATM   26  C   UNL     1       4.434  -3.447  -4.477  1.00  0.00     0.003 A 
HETATM   27  C   UNL     1       3.578  -2.371  -4.270  1.00  0.00     0.001 A 
HETATM   28  C   UNL     1       3.608  -1.683  -3.058  1.00  0.00     0.012 A 
BRANCH  24  29
HETATM   29  O   UNL     1       6.225  -3.467  -1.239  1.00  0.00    -0.355 OA
HETATM   30  C   UNL     1       7.450  -4.089  -1.612  1.00  0.00     0.210 C 
ENDBRANCH  24  29
ENDBRANCH   9  23
TORSDOF 4
