REMARK  3 active torsions:
REMARK  status: ('A' for Active; 'I' for Inactive)
REMARK    1  A    between atoms: N_12  and  C_13 
REMARK    2  A    between atoms: C_13  and  C_14 
REMARK       I    between atoms: C_14  and  N_15 
REMARK    3  A    between atoms: N_15  and  C_16 
ROOT
HETATM    1  C   UNL     1       1.080  -0.368  -0.064  1.00  0.00     0.048 C 
HETATM    2  C   UNL     1       2.581  -0.370  -0.039  1.00  0.00    -0.061 A 
HETATM    3  C   UNL     1       3.298   0.834  -0.142  1.00  0.00     0.021 A 
HETATM    4  C   UNL     1       4.707   0.815  -0.112  1.00  0.00     0.005 A 
HETATM    5  C   UNL     1       5.363  -0.415   0.013  1.00  0.00     0.044 A 
HETATM    6  N   UNL     1       6.720  -0.161   0.033  1.00  0.00    -0.350 N 
HETATM    7  H   UNL     1       7.448  -0.858   0.128  1.00  0.00     0.166 HD
HETATM    8  C   UNL     1       6.936   1.184  -0.069  1.00  0.00     0.116 A 
HETATM    9  C   UNL     1       5.717   1.807  -0.169  1.00  0.00     0.028 A 
HETATM   10  C   UNL     1       8.183   1.891  -0.056  1.00  0.00     0.291 A 
HETATM   11  O   UNL     1       9.266   1.331   0.071  1.00  0.00    -0.264 OA
HETATM   12  N   UNL     1       8.024   3.282  -0.215  1.00  0.00    -0.224 N 
HETATM   13  N   UNL     1       6.774   3.935  -0.290  1.00  0.00    -0.180 NA
HETATM   14  C   UNL     1       5.676   3.236  -0.277  1.00  0.00     0.153 A 
HETATM   15  C   UNL     1       4.672  -1.627   0.102  1.00  0.00     0.031 A 
HETATM   16  C   UNL     1       3.273  -1.581   0.074  1.00  0.00     0.009 A 
ENDROOT
BRANCH  12  17
HETATM   17  C   UNL     1       9.178   4.144  -0.013  1.00  0.00     0.258 C 
BRANCH  17  18
HETATM   18  C   UNL     1      10.340   4.211  -1.024  1.00  0.00     0.244 C 
HETATM   19  N   UNL     1      10.102   4.147  -2.405  1.00  0.00    -0.321 N 
HETATM   20  C   UNL     1       8.818   3.745  -2.968  1.00  0.00     0.159 C 
HETATM   21  O   UNL     1      11.459   4.464  -0.552  1.00  0.00    -0.271 OA
BRANCH  19  22
HETATM   22  C   UNL     1      11.154   4.445  -3.343  1.00  0.00     0.036 A 
HETATM   23  C   UNL     1      12.074   5.475  -3.095  1.00  0.00     0.029 A 
HETATM   24  C   UNL     1      13.063   5.804  -4.029  1.00  0.00     0.002 A 
HETATM   25  C   UNL     1      13.154   5.100  -5.226  1.00  0.00     0.000 A 
HETATM   26  C   UNL     1      12.257   4.069  -5.488  1.00  0.00     0.002 A 
HETATM   27  C   UNL     1      11.262   3.749  -4.557  1.00  0.00     0.029 A 
ENDBRANCH  19  22
ENDBRANCH  17  18
ENDBRANCH  12  17
TORSDOF 3
