REMARK  6 active torsions:
REMARK  status: ('A' for Active; 'I' for Inactive)
REMARK    1  A    between atoms: C_4  and  C_5 
REMARK    2  A    between atoms: C_8  and  C_9 
REMARK    3  A    between atoms: C_9  and  N_10 
REMARK       I    between atoms: N_10  and  C_11 
REMARK       I    between atoms: C_11  and  N_12 
REMARK    4  A    between atoms: N_12  and  C_13 
REMARK    5  A    between atoms: C_15  and  C_16 
REMARK    6  A    between atoms: C_30  and  C_31 
ROOT
HETATM    1  C   UNL     1       5.050   2.449  -0.351  1.00  0.00     0.068 C 
HETATM    2  C   UNL     1       5.468   1.459   0.780  1.00  0.00     0.001 C 
HETATM    3  C   UNL     1       6.779   1.889   1.480  1.00  0.00     0.040 C 
HETATM    4  C   UNL     1       7.914   2.076   0.460  1.00  0.00     0.206 C 
HETATM    5  N   UNL     1       7.346   1.688  -0.904  1.00  0.00    -0.065 N 
HETATM    6  H   UNL     1       8.117   1.824  -1.595  1.00  0.00     0.280 HD
HETATM    7  C   UNL     1       6.207   2.577  -1.356  1.00  0.00     0.246 C 
HETATM    8  C   UNL     1       5.766   0.098   0.100  1.00  0.00     0.033 C 
HETATM    9  C   UNL     1       6.917   0.241  -0.905  1.00  0.00     0.236 C 
ENDROOT
BRANCH   4  10
HETATM   10  C   UNL     1       8.547   3.495   0.489  1.00  0.00     0.157 C 
BRANCH  10  11
HETATM   11  N   UNL     1       9.856   3.632  -0.153  1.00  0.00    -0.341 N 
HETATM   12  C   UNL     1      10.101   3.309  -1.468  1.00  0.00     0.320 C 
HETATM   13  N   UNL     1      11.368   3.663  -1.854  1.00  0.00    -0.309 N 
HETATM   14  O   UNL     1       9.260   2.731  -2.147  1.00  0.00    -0.247 OA
HETATM   15  H   UNL     1      11.986   4.003  -1.130  1.00  0.00     0.170 HD
HETATM   16  H   UNL     1      10.426   4.389   0.204  1.00  0.00     0.164 HD
BRANCH  13  17
HETATM   17  C   UNL     1      11.953   3.513  -3.131  1.00  0.00     0.037 A 
HETATM   18  C   UNL     1      11.267   3.041  -4.252  1.00  0.00     0.045 A 
HETATM   19  C   UNL     1      11.911   2.913  -5.497  1.00  0.00     0.050 A 
HETATM   20  C   UNL     1      13.264   3.265  -5.603  1.00  0.00     0.016 A 
HETATM   21  C   UNL     1      13.953   3.745  -4.492  1.00  0.00     0.003 A 
HETATM   22  C   UNL     1      13.300   3.870  -3.264  1.00  0.00     0.029 A 
BRANCH  19  23
HETATM   23  C   UNL     1      11.171   2.372  -6.696  1.00  0.00     0.417 C 
HETATM   24  F   UNL     1       9.816   2.386  -6.542  1.00  0.00    -0.166 F 
HETATM   25  F   UNL     1      11.424   3.071  -7.835  1.00  0.00    -0.166 F 
HETATM   26  F   UNL     1      11.500   1.078  -6.963  1.00  0.00    -0.166 F 
ENDBRANCH  19  23
ENDBRANCH  13  17
ENDBRANCH  10  11
ENDBRANCH   4  10
BRANCH   1  27
HETATM   27  C   UNL     1       4.581   3.823   0.086  1.00  0.00     0.045 A 
HETATM   28  N   UNL     1       5.071   4.323   1.233  1.00  0.00    -0.238 NA
HETATM   29  C   UNL     1       4.670   5.557   1.594  1.00  0.00     0.123 A 
HETATM   30  C   UNL     1       5.149   6.100   2.904  1.00  0.00     0.093 C 
HETATM   31  N   UNL     1       3.888   6.345   0.847  1.00  0.00    -0.233 NA
HETATM   32  C   UNL     1       3.433   5.845  -0.320  1.00  0.00     0.077 A 
HETATM   33  C   UNL     1       3.747   4.564  -0.734  1.00  0.00     0.060 A 
BRANCH  32  34
HETATM   34  C   UNL     1       2.621   6.797  -1.100  1.00  0.00     0.033 A 
HETATM   35  S   UNL     1       2.036   6.421  -2.675  1.00  0.00    -0.100 SA
HETATM   36  C   UNL     1       1.290   7.945  -2.855  1.00  0.00     0.050 A 
HETATM   37  C   UNL     1       1.470   8.739  -1.747  1.00  0.00     0.008 A 
HETATM   38  C   UNL     1       2.231   8.079  -0.741  1.00  0.00     0.021 A 
ENDBRANCH  32  34
ENDBRANCH   1  27
TORSDOF 6
