REMARK  4 active torsions:
REMARK  status: ('A' for Active; 'I' for Inactive)
REMARK    1  A    between atoms: C_3  and  C_4 
REMARK       I    between atoms: C_4  and  N_5 
REMARK    2  A    between atoms: N_5  and  N_6 
REMARK    3  A    between atoms: C_7  and  C_8 
REMARK    4  A    between atoms: C_23  and  C_24 
ROOT
HETATM    1  C   UNL     1       2.735   2.601   0.286  1.00  0.00     0.290 C 
HETATM    2  N   UNL     1       1.398   2.935   0.126  1.00  0.00    -0.242 N 
HETATM    3  O   UNL     1       3.629   3.406   0.533  1.00  0.00    -0.264 OA
HETATM    4  H   UNL     1       0.742   2.207  -0.118  1.00  0.00     0.192 HD
ENDROOT
BRANCH   1   5
HETATM    5  C   UNL     1       3.035   1.189   0.180  1.00  0.00     0.127 A 
HETATM    6  C   UNL     1       2.413   0.078  -0.382  1.00  0.00     0.003 A 
HETATM    7  C   UNL     1       1.163   0.017  -1.187  1.00  0.00     0.053 C 
HETATM    8  C   UNL     1       3.273  -1.028  -0.059  1.00  0.00     0.095 A 
HETATM    9  N   UNL     1       4.375  -0.606   0.575  1.00  0.00    -0.173 NA
HETATM   10  N   UNL     1       4.218   0.715   0.679  1.00  0.00    -0.272 N 
HETATM   11  H   UNL     1       4.951   1.263   1.120  1.00  0.00     0.189 HD
BRANCH   8  12
HETATM   12  C   UNL     1       3.090  -2.450  -0.354  1.00  0.00    -0.005 A 
HETATM   13  C   UNL     1       1.858  -3.081  -0.136  1.00  0.00     0.014 A 
HETATM   14  C   UNL     1       1.696  -4.439  -0.423  1.00  0.00     0.001 A 
HETATM   15  C   UNL     1       2.767  -5.180  -0.921  1.00  0.00     0.000 A 
HETATM   16  C   UNL     1       4.001  -4.567  -1.128  1.00  0.00     0.001 A 
HETATM   17  C   UNL     1       4.163  -3.209  -0.842  1.00  0.00     0.014 A 
ENDBRANCH   8  12
ENDBRANCH   1   5
BRANCH   2  18
HETATM   18  N   UNL     1       0.850   4.192   0.051  1.00  0.00    -0.183 NA
HETATM   19  C   UNL     1       1.458   5.198   0.593  1.00  0.00     0.153 C 
BRANCH  19  20
HETATM   20  C   UNL     1       0.900   6.535   0.460  1.00  0.00     0.018 A 
HETATM   21  C   UNL     1       1.440   7.730   1.046  1.00  0.00     0.004 A 
HETATM   22  C   UNL     1       0.616   8.791   0.673  1.00  0.00     0.043 A 
HETATM   23  C   UNL     1       2.559   8.010   1.861  1.00  0.00     0.014 A 
HETATM   24  C   UNL     1       0.849  10.113   1.070  1.00  0.00     0.030 A 
HETATM   25  N   UNL     1      -0.386   8.268  -0.108  1.00  0.00    -0.358 N 
HETATM   26  C   UNL     1       1.963  10.361   1.877  1.00  0.00     0.002 A 
HETATM   27  C   UNL     1       2.807   9.326   2.269  1.00  0.00     0.001 A 
HETATM   28  H   UNL     1      -1.128   8.816  -0.521  1.00  0.00     0.166 HD
HETATM   29  C   UNL     1      -0.234   6.911  -0.250  1.00  0.00     0.018 A 
HETATM   30  C   UNL     1      -1.194   6.115  -1.061  1.00  0.00     0.069 C 
ENDBRANCH  19  20
ENDBRANCH   2  18
TORSDOF 4
