REMARK  3 active torsions:
REMARK  status: ('A' for Active; 'I' for Inactive)
REMARK    1  A    between atoms: C_2  and  C_3 
REMARK    2  A    between atoms: C_9  and  C_10 
REMARK    3  A    between atoms: C_20  and  N_21 
ROOT
HETATM    1  C   UNL     1       2.976   0.244  -1.126  1.00  0.00     0.043 A 
HETATM    2  N   UNL     1       2.984   1.416  -1.854  1.00  0.00    -0.279 N 
HETATM    3  H   UNL     1       2.749   2.350  -1.536  1.00  0.00     0.189 HD
HETATM    4  N   UNL     1       3.307   1.252  -3.152  1.00  0.00    -0.148 NA
HETATM    5  C   UNL     1       3.557  -0.049  -3.224  1.00  0.00     0.199 A 
HETATM    6  C   UNL     1       3.399  -0.731  -2.012  1.00  0.00     0.035 A 
HETATM    7  C   UNL     1       3.591  -2.203  -1.949  1.00  0.00     0.106 A 
HETATM    8  C   UNL     1       3.826  -2.781  -3.333  1.00  0.00     0.067 A 
HETATM    9  C   UNL     1       3.728  -4.294  -3.441  1.00  0.00     0.020 C 
HETATM   10  N   UNL     1       3.648  -5.549  -3.531  1.00  0.00    -0.096 N 
HETATM   11  C   UNL     1       3.949  -2.021  -4.451  1.00  0.00     0.139 A 
HETATM   12  O   UNL     1       3.875  -0.619  -4.403  1.00  0.00    -0.277 OA
ENDROOT
BRANCH   7  13
HETATM   13  C   UNL     1       4.686  -2.495  -0.930  1.00  0.00    -0.022 A 
HETATM   14  C   UNL     1       6.035  -2.103  -1.036  1.00  0.00     0.041 A 
HETATM   15 CL   UNL     1       6.668  -1.219  -2.376  1.00  0.00    -0.084 Cl
HETATM   16  C   UNL     1       6.959  -2.435  -0.035  1.00  0.00     0.024 A 
HETATM   17  C   UNL     1       6.566  -3.172   1.079  1.00  0.00     0.002 A 
HETATM   18  C   UNL     1       5.246  -3.584   1.198  1.00  0.00     0.001 A 
HETATM   19  C   UNL     1       4.319  -3.252   0.207  1.00  0.00     0.010 A 
ENDBRANCH   7  13
BRANCH  11  20
HETATM   20  N   UNL     1       4.117  -2.504  -5.729  1.00  0.00    -0.282 NA
HETATM   21  H   UNL     1       3.770  -3.442  -5.908  1.00  0.00     0.126 HD
HETATM   22  H   UNL     1       3.837  -1.825  -6.434  1.00  0.00     0.126 HD
ENDBRANCH  11  20
BRANCH   1  23
HETATM   23  C   UNL     1       2.561   0.182   0.312  1.00  0.00     0.029 C 
HETATM   24  C   UNL     1       1.109   0.630   0.491  1.00  0.00     0.016 C 
HETATM   25  C   UNL     1       3.500   0.998   1.199  1.00  0.00     0.016 C 
ENDBRANCH   1  23
TORSDOF 3
