REMARK  6 active torsions:
REMARK  status: ('A' for Active; 'I' for Inactive)
REMARK    1  A    between atoms: C_2  and  O_3 
REMARK    2  A    between atoms: O_3  and  C_4 
REMARK    3  A    between atoms: C_5  and  O_6 
REMARK    4  A    between atoms: C_9  and  C_10 
REMARK    5  A    between atoms: C_19  and  C_20 
REMARK    6  A    between atoms: C_22  and  O_23 
ROOT
HETATM    1  C   UNL     1       6.817  -4.369  -0.769  1.00  0.00     0.156 A 
HETATM    2  N   UNL     1       6.232  -5.722  -0.756  1.00  0.00    -0.343 N 
HETATM    3  C   UNL     1       6.654  -6.519   0.303  1.00  0.00     0.271 A 
HETATM    4  O   UNL     1       6.328  -7.665   0.543  1.00  0.00    -0.266 OA
HETATM    5  C   UNL     1       7.524  -5.671   1.023  1.00  0.00     0.128 A 
HETATM    6  C   UNL     1       7.636  -4.434   0.459  1.00  0.00     0.034 A 
HETATM    7  N   UNL     1       8.273  -5.687   2.135  1.00  0.00    -0.272 N 
HETATM    8  H   UNL     1       8.418  -6.438   2.803  1.00  0.00     0.189 HD
HETATM    9  N   UNL     1       8.878  -4.491   2.340  1.00  0.00    -0.173 NA
HETATM   10  C   UNL     1       8.493  -3.707   1.301  1.00  0.00     0.098 A 
HETATM   11  H   UNL     1       5.563  -6.058  -1.432  1.00  0.00     0.163 HD
ENDROOT
BRANCH   1  12
HETATM   12  C   UNL     1       5.783  -3.281  -0.629  1.00  0.00    -0.028 A 
HETATM   13  C   UNL     1       4.862  -3.232   0.437  1.00  0.00     0.012 A 
HETATM   14  C   UNL     1       3.894  -2.226   0.510  1.00  0.00     0.040 A 
HETATM   15  C   UNL     1       3.832  -1.263  -0.486  1.00  0.00     0.099 A 
HETATM   16  C   UNL     1       4.752  -1.273  -1.531  1.00  0.00     0.102 A 
HETATM   17  C   UNL     1       5.705  -2.286  -1.620  1.00  0.00     0.049 A 
BRANCH  15  18
HETATM   18  O   UNL     1       2.839  -0.329  -0.428  1.00  0.00    -0.358 OA
HETATM   19  H   UNL     1       2.830   0.105  -1.301  1.00  0.00     0.218 HD
ENDBRANCH  15  18
BRANCH  16  20
HETATM   20  O   UNL     1       4.700  -0.330  -2.522  1.00  0.00    -0.349 OA
BRANCH  20  21
HETATM   21  C   UNL     1       5.367   0.873  -2.109  1.00  0.00     0.171 C 
HETATM   22  C   UNL     1       6.044   1.475  -3.326  1.00  0.00     0.034 C 
ENDBRANCH  20  21
ENDBRANCH  16  20
ENDBRANCH   1  12
BRANCH  10  23
HETATM   23  C   UNL     1       8.938  -2.317   1.192  1.00  0.00    -0.002 A 
HETATM   24  C   UNL     1       9.226  -1.583   2.356  1.00  0.00     0.050 A 
HETATM   25  C   UNL     1       9.631  -0.250   2.278  1.00  0.00     0.069 A 
HETATM   26  C   UNL     1       9.751   0.356   1.026  1.00  0.00     0.037 A 
HETATM   27  C   UNL     1       9.481  -0.362  -0.138  1.00  0.00     0.004 A 
HETATM   28  C   UNL     1       9.079  -1.696  -0.056  1.00  0.00     0.014 A 
BRANCH  25  29
HETATM   29  O   UNL     1       9.932   0.562   3.338  1.00  0.00    -0.356 OA
HETATM   30  C   UNL     1       9.880  -0.029   4.631  1.00  0.00     0.210 C 
ENDBRANCH  25  29
ENDBRANCH  10  23
TORSDOF 6
