REMARK  8 active torsions:
REMARK  status: ('A' for Active; 'I' for Inactive)
REMARK    1  A    between atoms: C_2  and  N_3 
REMARK       I    between atoms: N_3  and  C_4 
REMARK    2  A    between atoms: C_4  and  C_5 
REMARK    3  A    between atoms: C_5  and  O_6 
REMARK    4  A    between atoms: O_6  and  C_7 
REMARK    5  A    between atoms: C_11  and  C_12 
REMARK    6  A    between atoms: C_12  and  N_13 
REMARK    7  A    between atoms: N_13  and  C_14 
REMARK    8  A    between atoms: C_25  and  O_26 
ROOT
HETATM    1  C   UNL     1       0.403   2.555  -1.306  1.00  0.00     0.124 A 
HETATM    2  C   UNL     1      -0.162   1.624  -2.187  1.00  0.00     0.070 A 
HETATM    3 CL   UNL     1      -0.059  -0.074  -1.875  1.00  0.00    -0.081 Cl
HETATM    4  C   UNL     1      -0.841   2.047  -3.335  1.00  0.00     0.035 A 
HETATM    5  C   UNL     1      -0.949   3.412  -3.638  1.00  0.00    -0.041 A 
HETATM    6  C   UNL     1      -0.385   4.345  -2.756  1.00  0.00     0.048 A 
HETATM    7  C   UNL     1       0.308   3.917  -1.619  1.00  0.00     0.103 A 
ENDROOT
BRANCH   5   8
HETATM    8  C   UNL     1      -1.686   3.868  -4.875  1.00  0.00     0.131 C 
BRANCH   8   9
HETATM    9  N   UNL     1      -3.089   4.072  -4.549  1.00  0.00    -0.289 NA
HETATM   10  H   UNL     1      -3.215   4.542  -3.655  1.00  0.00     0.128 HD
BRANCH   9  11
HETATM   11  C   UNL     1      -3.953   4.577  -5.532  1.00  0.00     0.010 A 
HETATM   12  C   UNL     1      -3.747   4.382  -6.908  1.00  0.00     0.055 A 
HETATM   13  C   UNL     1      -4.710   4.852  -7.774  1.00  0.00     0.065 A 
HETATM   14  C   UNL     1      -5.869   5.482  -7.332  1.00  0.00     0.063 A 
HETATM   15  N   UNL     1      -4.756   4.800  -9.164  1.00  0.00    -0.306 N 
HETATM   16  N   UNL     1      -6.626   5.822  -8.446  1.00  0.00    -0.307 N 
HETATM   17  C   UNL     1      -6.130   5.665  -5.999  1.00  0.00     0.034 A 
HETATM   18  C   UNL     1      -5.947   5.400  -9.598  1.00  0.00     0.325 A 
HETATM   19  H   UNL     1      -7.523   6.279  -8.460  1.00  0.00     0.170 HD
HETATM   20  O   UNL     1      -6.319   5.527 -10.750  1.00  0.00    -0.247 OA
HETATM   21  C   UNL     1      -5.164   5.190  -5.101  1.00  0.00     0.026 A 
HETATM   22  H   UNL     1      -4.075   4.395  -9.785  1.00  0.00     0.170 HD
ENDBRANCH   9  11
ENDBRANCH   8   9
ENDBRANCH   5   8
BRANCH   7  23
HETATM   23  O   UNL     1       0.846   4.879  -0.805  1.00  0.00    -0.353 OA
HETATM   24  C   UNL     1       2.173   5.196  -1.229  1.00  0.00     0.210 C 
ENDBRANCH   7  23
BRANCH   1  25
HETATM   25  O   UNL     1       1.093   2.070  -0.224  1.00  0.00    -0.337 OA
BRANCH  25  26
HETATM   26  C   UNL     1       0.742   2.680   1.020  1.00  0.00     0.278 C 
BRANCH  26  27
HETATM   27  C   UNL     1       0.922   1.689   2.173  1.00  0.00     0.242 C 
HETATM   28  N   UNL     1       0.908   0.365   1.785  1.00  0.00    -0.351 N 
HETATM   29  H   UNL     1       0.951   0.209   0.781  1.00  0.00     0.163 HD
HETATM   30  O   UNL     1       1.026   2.068   3.336  1.00  0.00    -0.271 OA
BRANCH  28  31
HETATM   31  C   UNL     1       1.112  -0.786   2.674  1.00  0.00     0.022 C 
HETATM   32  C   UNL     1       0.051  -0.826   3.785  1.00  0.00     0.037 C 
HETATM   33  C   UNL     1       2.519  -0.753   3.290  1.00  0.00     0.037 C 
HETATM   34  C   UNL     1       0.975  -2.068   1.832  1.00  0.00     0.037 C 
ENDBRANCH  28  31
ENDBRANCH  26  27
ENDBRANCH  25  26
ENDBRANCH   1  25
TORSDOF 8
