REMARK  3 active torsions:
REMARK  status: ('A' for Active; 'I' for Inactive)
REMARK    1  A    between atoms: C_2  and  O_3 
REMARK    2  A    between atoms: O_3  and  C_4 
REMARK    3  A    between atoms: C_7  and  N_8 
REMARK       I    between atoms: N_8  and  C_9 
REMARK       I    between atoms: C_9  and  N_10 
ROOT
HETATM    1  N   UNL     1       1.893   2.188   5.762  1.00  0.00    -0.309 N 
HETATM    2  C   UNL     1       2.061   3.511   6.101  1.00  0.00     0.323 C 
HETATM    3  N   UNL     1       2.773   4.278   5.186  1.00  0.00    -0.328 N 
HETATM    4  C   UNL     1       2.804   5.732   5.416  1.00  0.00     0.185 C 
HETATM    5  C   UNL     1       2.526   6.405   4.113  1.00  0.00     0.035 A 
HETATM    6  C   UNL     1       2.528   5.822   2.860  1.00  0.00    -0.020 A 
HETATM    7  C   UNL     1       2.810   4.368   2.688  1.00  0.00     0.061 C 
HETATM    8  C   UNL     1       3.483   3.824   3.967  1.00  0.00     0.132 C 
HETATM    9  N   UNL     1       2.215   7.727   3.965  1.00  0.00    -0.357 N 
HETATM   10  H   UNL     1       2.127   8.400   4.715  1.00  0.00     0.166 HD
HETATM   11  C   UNL     1       2.016   8.015   2.631  1.00  0.00     0.043 A 
HETATM   12  C   UNL     1       2.204   6.830   1.913  1.00  0.00    -0.001 A 
HETATM   13  C   UNL     1       1.678   9.224   2.013  1.00  0.00     0.030 A 
HETATM   14  C   UNL     1       1.526   9.223   0.623  1.00  0.00     0.002 A 
HETATM   15  C   UNL     1       1.705   8.056  -0.118  1.00  0.00     0.001 A 
HETATM   16  C   UNL     1       2.044   6.854   0.514  1.00  0.00     0.014 A 
HETATM   17  O   UNL     1       1.615   4.018   7.129  1.00  0.00    -0.247 OA
HETATM   18  H   UNL     1       2.302   1.878   4.902  1.00  0.00     0.170 HD
ENDROOT
BRANCH   1  19
HETATM   19  C   UNL     1       1.147   1.203   6.448  1.00  0.00     0.036 A 
HETATM   20  C   UNL     1       0.408   1.440   7.608  1.00  0.00     0.032 A 
HETATM   21  C   UNL     1      -0.342   0.415   8.194  1.00  0.00     0.039 A 
HETATM   22  C   UNL     1      -0.369  -0.849   7.614  1.00  0.00     0.070 A 
HETATM   23  C   UNL     1       0.403  -1.117   6.490  1.00  0.00     0.039 A 
HETATM   24  C   UNL     1       1.146  -0.089   5.901  1.00  0.00     0.032 A 
BRANCH  22  25
HETATM   25  O   UNL     1      -1.101  -1.818   8.228  1.00  0.00    -0.341 OA
BRANCH  25  26
HETATM   26  C   UNL     1      -2.324  -2.242   7.585  1.00  0.00     0.057 C 
HETATM   27  C   UNL     1      -2.090  -3.639   6.998  1.00  0.00     0.045 C 
HETATM   28  C   UNL     1      -2.902  -1.303   6.509  1.00  0.00     0.045 C 
HETATM   29  C   UNL     1      -3.352  -2.351   8.723  1.00  0.00     0.045 C 
ENDBRANCH  25  26
ENDBRANCH  22  25
ENDBRANCH   1  19
TORSDOF 3
