REMARK  5 active torsions:
REMARK  status: ('A' for Active; 'I' for Inactive)
REMARK    1  A    between atoms: C_3  and  N_4 
REMARK    2  A    between atoms: N_5  and  C_6 
REMARK    3  A    between atoms: C_6  and  C_7 
REMARK    4  A    between atoms: C_7  and  C_8 
REMARK    5  A    between atoms: C_19  and  C_20 
ROOT
HETATM    1  C   UNL     1       1.090  -0.286   1.071  1.00  0.00     0.175 C 
HETATM    2  N   UNL     1       2.432  -0.148   0.525  1.00  0.00    -0.186 N 
HETATM    3  C   UNL     1       3.068   1.012   0.394  1.00  0.00     0.680 C 
HETATM    4  N   UNL     1       4.355   0.775   0.168  1.00  0.00    -0.184 N 
HETATM    5  C   UNL     1       4.513  -0.591  -0.018  1.00  0.00     0.140 C 
HETATM    6  C   UNL     1       3.282  -1.197   0.132  1.00  0.00     0.077 C 
ENDROOT
BRANCH   4   7
HETATM    7  C   UNL     1       5.468   1.750   0.184  1.00  0.00     0.231 C 
BRANCH   7   8
HETATM    8  C   UNL     1       5.249   2.958  -0.721  1.00  0.00     0.178 C 
HETATM    9  O   UNL     1       4.124   3.403  -0.960  1.00  0.00    -0.290 OA
BRANCH   8  10
HETATM   10  C   UNL     1       6.433   3.662  -1.282  1.00  0.00     0.014 A 
HETATM   11  C   UNL     1       7.670   3.661  -0.626  1.00  0.00     0.055 A 
HETATM   12  C   UNL     1       8.698   4.376  -1.207  1.00  0.00     0.106 A 
HETATM   13  C   UNL     1       8.537   5.065  -2.386  1.00  0.00     0.105 A 
HETATM   14  O   UNL     1       9.955   4.499  -0.704  1.00  0.00    -0.323 OA
HETATM   15  O   UNL     1       9.671   5.703  -2.773  1.00  0.00    -0.323 OA
HETATM   16  C   UNL     1       7.333   5.084  -3.055  1.00  0.00     0.040 A 
HETATM   17  C   UNL     1      10.562   5.367  -1.689  1.00  0.00     0.352 A 
HETATM   18  C   UNL     1       6.267   4.378  -2.490  1.00  0.00     0.018 A 
ENDBRANCH   8  10
ENDBRANCH   7   8
ENDBRANCH   4   7
BRANCH   3  19
HETATM   19  N   UNL     1       2.488   2.203   0.495  1.00  0.00    -0.234 N 
HETATM   20  H   UNL     1       1.496   2.307   0.634  1.00  0.00     0.174 HD
HETATM   21  H   UNL     1       2.979   3.010   0.109  1.00  0.00     0.174 HD
ENDBRANCH   3  19
BRANCH   6  22
HETATM   22  C   UNL     1       2.989  -2.658  -0.072  1.00  0.00    -0.007 A 
HETATM   23  C   UNL     1       4.025  -3.602   0.011  1.00  0.00     0.017 A 
HETATM   24  C   UNL     1       3.753  -4.960  -0.183  1.00  0.00     0.043 A 
HETATM   25  C   UNL     1       2.458  -5.369  -0.474  1.00  0.00     0.116 A 
HETATM   26  F   UNL     1       2.202  -6.669  -0.663  1.00  0.00    -0.206 F 
HETATM   27  C   UNL     1       1.428  -4.445  -0.579  1.00  0.00     0.043 A 
HETATM   28  C   UNL     1       1.692  -3.087  -0.381  1.00  0.00     0.017 A 
ENDBRANCH   6  22
TORSDOF 5
