REMARK  3 active torsions:
REMARK  status: ('A' for Active; 'I' for Inactive)
REMARK    1  A    between atoms: O_2  and  C_3 
REMARK    2  A    between atoms: C_4  and  C_5 
REMARK    3  A    between atoms: C_16  and  N_17 
ROOT
HETATM    1  C   UNL     1       1.006   2.398   0.516  1.00  0.00     0.246 A 
HETATM    2  N   UNL     1       0.155   1.234   0.402  1.00  0.00    -0.151 N 
HETATM    3  C   UNL     1      -1.096   1.328  -0.152  1.00  0.00     0.734 A 
HETATM    4  N   UNL     1      -1.679   0.149  -0.122  1.00  0.00    -0.060 NA
HETATM    5  C   UNL     1      -0.799  -0.704   0.496  1.00  0.00     0.103 A 
HETATM    6  C   UNL     1       0.369  -0.040   0.855  1.00  0.00     0.083 A 
HETATM    7  C   UNL     1      -0.935  -2.068   0.792  1.00  0.00     0.034 A 
HETATM    8  C   UNL     1       0.117  -2.721   1.445  1.00  0.00     0.002 A 
HETATM    9  C   UNL     1       1.279  -2.031   1.797  1.00  0.00     0.002 A 
HETATM   10  C   UNL     1       1.434  -0.669   1.510  1.00  0.00     0.033 A 
HETATM   11  N   UNL     1      -1.601   2.488  -0.629  1.00  0.00    -0.033 NA
HETATM   12  C   UNL     1      -0.922   3.568  -0.481  1.00  0.00     0.193 A 
HETATM   13  N   UNL     1       0.341   3.635   0.112  1.00  0.00    -0.338 N 
HETATM   14  H   UNL     1       0.869   4.493   0.149  1.00  0.00     0.164 HD
ENDROOT
BRANCH   1  15
HETATM   15  C   UNL     1       2.294   2.304  -0.290  1.00  0.00     0.020 A 
HETATM   16  C   UNL     1       3.406   3.078   0.108  1.00  0.00     0.078 A 
HETATM   17  C   UNL     1       4.591   3.041  -0.634  1.00  0.00     0.039 A 
HETATM   18  C   UNL     1       4.688   2.232  -1.768  1.00  0.00     0.022 A 
HETATM   19  C   UNL     1       3.596   1.474  -2.172  1.00  0.00     0.011 A 
HETATM   20  C   UNL     1       2.401   1.516  -1.454  1.00  0.00     0.033 A 
HETATM   21 BR   UNL     1       3.727   0.385  -3.711  1.00  0.00    -0.051 Br
BRANCH  16  22
HETATM   22  O   UNL     1       3.210   3.872   1.209  1.00  0.00    -0.355 OA
HETATM   23  C   UNL     1       4.379   4.392   1.841  1.00  0.00     0.210 C 
ENDBRANCH  16  22
ENDBRANCH   1  15
BRANCH  12  24
HETATM   24  N   UNL     1      -1.362   4.773  -0.899  1.00  0.00    -0.272 NA
HETATM   25  H   UNL     1      -2.336   4.723  -1.190  1.00  0.00     0.127 HD
HETATM   26  H   UNL     1      -1.208   5.551  -0.271  1.00  0.00     0.127 HD
ENDBRANCH  12  24
TORSDOF 3
