REMARK  7 active torsions:
REMARK  status: ('A' for Active; 'I' for Inactive)
REMARK    1  A    between atoms: C_8  and  C_9 
REMARK    2  A    between atoms: C_9  and  N_10 
REMARK    3  A    between atoms: C_14  and  C_15 
REMARK    4  A    between atoms: C_15  and  C_16 
REMARK    5  A    between atoms: C_16  and  C_17 
REMARK    6  A    between atoms: N_27  and  C_28 
REMARK    7  A    between atoms: C_28  and  C_29 
ROOT
HETATM    1  C   UNL     1       0.162  -2.622   3.591  1.00  0.00     0.123 C 
HETATM    2  N   UNL     1       0.012  -1.536   4.551  1.00  0.00    -0.324 N 
HETATM    3  C   UNL     1      -0.198  -2.019   5.829  1.00  0.00     0.326 C 
HETATM    4  O   UNL     1      -0.142  -1.296   6.807  1.00  0.00    -0.247 OA
HETATM    5  N   UNL     1      -0.452  -3.349   5.765  1.00  0.00    -0.268 N 
HETATM    6  C   UNL     1      -0.338  -3.790   4.476  1.00  0.00     0.257 C 
HETATM    7  O   UNL     1      -0.579  -4.919   4.077  1.00  0.00    -0.270 OA
HETATM    8  H   UNL     1       0.566  -0.685   4.534  1.00  0.00     0.165 HD
ENDROOT
BRANCH   1   9
HETATM    9  C   UNL     1      -0.743  -2.435   2.329  1.00  0.00     0.027 C 
HETATM   10  C   UNL     1      -0.388  -1.231   1.438  1.00  0.00     0.035 C 
HETATM   11  C   UNL     1      -0.844   0.119   1.981  1.00  0.00     0.235 C 
HETATM   12  N   UNL     1      -2.312   0.108   2.314  1.00  0.00    -0.067 N 
HETATM   13  H   UNL     1      -2.829   0.033   1.426  1.00  0.00     0.280 HD
HETATM   14  C   UNL     1      -2.743  -1.045   3.183  1.00  0.00     0.235 C 
HETATM   15  C   UNL     1      -2.261  -2.369   2.609  1.00  0.00     0.035 C 
BRANCH  12  16
HETATM   16  C   UNL     1      -2.764   1.421   2.941  1.00  0.00     0.278 C 
BRANCH  16  17
HETATM   17  C   UNL     1      -2.604   2.600   2.064  1.00  0.00     0.034 A 
HETATM   18  C   UNL     1      -1.664   3.665   2.174  1.00  0.00     0.062 A 
HETATM   19  C   UNL     1      -0.590   3.860   3.184  1.00  0.00     0.073 C 
HETATM   20  N   UNL     1      -1.810   4.560   1.192  1.00  0.00    -0.176 NA
HETATM   21  N   UNL     1      -2.873   4.127   0.485  1.00  0.00    -0.262 N 
HETATM   22  C   UNL     1      -3.367   4.923  -0.615  1.00  0.00     0.181 C 
HETATM   23  C   UNL     1      -3.345   2.940   0.957  1.00  0.00     0.131 A 
HETATM   24 CL   UNL     1      -4.642   2.138   0.206  1.00  0.00    -0.062 Cl
ENDBRANCH  16  17
ENDBRANCH  12  16
ENDBRANCH   1   9
BRANCH   1  25
HETATM   25  C   UNL     1       1.682  -2.808   3.312  1.00  0.00     0.080 C 
BRANCH  25  26
HETATM   26  C   UNL     1       2.110  -4.052   2.575  1.00  0.00    -0.052 A 
HETATM   27  C   UNL     1       2.172  -4.088   1.178  1.00  0.00     0.049 A 
HETATM   28  C   UNL     1       2.585  -5.250   0.528  1.00  0.00     0.116 A 
HETATM   29  F   UNL     1       2.632  -5.266  -0.810  1.00  0.00    -0.206 F 
HETATM   30  C   UNL     1       2.949  -6.384   1.241  1.00  0.00     0.042 A 
HETATM   31  C   UNL     1       2.901  -6.358   2.632  1.00  0.00     0.003 A 
HETATM   32  C   UNL     1       2.486  -5.200   3.294  1.00  0.00     0.007 A 
ENDBRANCH  25  26
ENDBRANCH   1  25
BRANCH   5  33
HETATM   33  C   UNL     1      -0.723  -4.199   6.913  1.00  0.00     0.140 C 
BRANCH  33  34
HETATM   34  C   UNL     1      -2.212  -4.363   7.272  1.00  0.00    -0.004 C 
HETATM   35  C   UNL     1      -2.884  -3.036   7.622  1.00  0.00     0.011 C 
HETATM   36  C   UNL     1      -3.005  -5.093   6.189  1.00  0.00     0.011 C 
ENDBRANCH  33  34
ENDBRANCH   5  33
TORSDOF 7
