REMARK  3 active torsions:
REMARK  status: ('A' for Active; 'I' for Inactive)
REMARK    1  A    between atoms: O_2  and  C_3 
REMARK       I    between atoms: N_13  and  C_14 
REMARK       I    between atoms: C_14  and  N_15 
REMARK    2  A    between atoms: N_15  and  C_16 
REMARK    3  A    between atoms: C_22  and  C_23 
ROOT
HETATM    1  C   UNL     1       2.994   1.174  -0.169  1.00  0.00     0.069 A 
HETATM    2  C   UNL     1       2.305   2.393  -0.176  1.00  0.00     0.051 A 
HETATM    3  C   UNL     1       3.027   3.601  -0.058  1.00  0.00     0.002 A 
HETATM    4  C   UNL     1       4.419   3.547   0.049  1.00  0.00     0.043 A 
HETATM    5  N   UNL     1       4.880   4.843   0.149  1.00  0.00    -0.356 N 
HETATM    6  H   UNL     1       5.854   5.097   0.240  1.00  0.00     0.166 HD
HETATM    7  C   UNL     1       3.822   5.712   0.151  1.00  0.00     0.045 A 
HETATM    8  C   UNL     1       2.664   4.974  -0.023  1.00  0.00    -0.019 A 
HETATM    9  C   UNL     1       1.331   5.638  -0.155  1.00  0.00     0.061 C 
HETATM   10  C   UNL     1       1.428   7.106   0.312  1.00  0.00     0.133 C 
HETATM   11  N   UNL     1       2.648   7.762  -0.204  1.00  0.00    -0.320 N 
HETATM   12  C   UNL     1       2.525   8.501  -1.370  1.00  0.00     0.319 C 
HETATM   13  N   UNL     1       3.687   9.072  -1.825  1.00  0.00    -0.338 N 
HETATM   14  O   UNL     1       1.452   8.647  -1.949  1.00  0.00    -0.247 OA
HETATM   15  C   UNL     1       3.926   7.207   0.301  1.00  0.00     0.172 C 
HETATM   16  C   UNL     1       5.127   2.342   0.037  1.00  0.00     0.033 A 
HETATM   17  C   UNL     1       4.386   1.161  -0.073  1.00  0.00     0.039 A 
HETATM   18  H   UNL     1       4.328   9.345  -1.099  1.00  0.00     0.164 HD
ENDROOT
BRANCH  15  19
HETATM   19  C   UNL     1       4.199   7.703   1.726  1.00  0.00    -0.029 A 
HETATM   20  C   UNL     1       4.284   6.844   2.839  1.00  0.00     0.012 A 
HETATM   21  C   UNL     1       4.532   7.347   4.119  1.00  0.00     0.043 A 
HETATM   22  C   UNL     1       4.689   8.713   4.302  1.00  0.00     0.116 A 
HETATM   23  F   UNL     1       4.921   9.194   5.531  1.00  0.00    -0.206 F 
HETATM   24  C   UNL     1       4.601   9.588   3.230  1.00  0.00     0.043 A 
HETATM   25  C   UNL     1       4.358   9.086   1.949  1.00  0.00     0.012 A 
ENDBRANCH  15  19
BRANCH  13  26
HETATM   26  C   UNL     1       3.765   9.886  -3.025  1.00  0.00     0.086 C 
HETATM   27  C   UNL     1       3.359   9.180  -4.322  1.00  0.00     0.025 C 
HETATM   28  C   UNL     1       2.955  10.330  -5.231  1.00  0.00     0.002 C 
HETATM   29  C   UNL     1       2.196  11.260  -4.298  1.00  0.00     0.002 C 
HETATM   30  C   UNL     1       2.947  11.185  -2.970  1.00  0.00     0.025 C 
ENDBRANCH  13  26
BRANCH   1  31
HETATM   31  O   UNL     1       2.420  -0.066  -0.257  1.00  0.00    -0.356 OA
HETATM   32  C   UNL     1       1.001  -0.122  -0.169  1.00  0.00     0.210 C 
ENDBRANCH   1  31
TORSDOF 3
