REMARK  5 active torsions:
REMARK  status: ('A' for Active; 'I' for Inactive)
REMARK    1  A    between atoms: C_8  and  O_9 
REMARK    2  A    between atoms: O_9  and  C_10 
REMARK    3  A    between atoms: C_17  and  C_18 
REMARK       I    between atoms: C_18  and  N_19 
REMARK    4  A    between atoms: N_19  and  C_20 
REMARK    5  A    between atoms: C_20  and  C_21 
ROOT
HETATM    1  C   UNL     1       0.974  -0.479   0.680  1.00  0.00     0.051 C 
HETATM    2  C   UNL     1       2.448  -0.211   0.508  1.00  0.00    -0.018 A 
HETATM    3  C   UNL     1       2.972   1.094   0.595  1.00  0.00     0.065 A 
HETATM    4 CL   UNL     1       1.934   2.453   0.879  1.00  0.00    -0.082 Cl
HETATM    5  C   UNL     1       4.351   1.293   0.438  1.00  0.00     0.056 A 
HETATM    6  C   UNL     1       4.979   2.655   0.535  1.00  0.00     0.072 C 
HETATM    7  N   UNL     1       5.211   0.277   0.179  1.00  0.00    -0.227 NA
HETATM    8  C   UNL     1       4.694  -0.966   0.037  1.00  0.00     0.186 A 
HETATM    9  C   UNL     1       3.343  -1.263   0.207  1.00  0.00     0.092 A 
ENDROOT
BRANCH   8  10
HETATM   10  O   UNL     1       5.575  -2.004  -0.238  1.00  0.00    -0.291 OA
BRANCH  10  11
HETATM   11  C   UNL     1       6.658  -1.696  -1.025  1.00  0.00     0.078 A 
HETATM   12  C   UNL     1       7.930  -1.957  -0.512  1.00  0.00     0.040 A 
HETATM   13  C   UNL     1       9.055  -1.707  -1.299  1.00  0.00     0.045 A 
HETATM   14  C   UNL     1       8.893  -1.218  -2.591  1.00  0.00     0.116 A 
HETATM   15  F   UNL     1       9.974  -0.982  -3.346  1.00  0.00    -0.206 F 
HETATM   16  C   UNL     1       7.626  -0.979  -3.117  1.00  0.00     0.045 A 
HETATM   17  C   UNL     1       6.499  -1.227  -2.333  1.00  0.00     0.040 A 
ENDBRANCH  10  11
ENDBRANCH   8  10
BRANCH   9  18
HETATM   18  C   UNL     1       2.853  -2.647  -0.008  1.00  0.00     0.256 C 
HETATM   19  N   UNL     1       3.534  -3.650   0.647  1.00  0.00    -0.353 N 
HETATM   20  H   UNL     1       4.448  -3.444   1.030  1.00  0.00     0.163 HD
HETATM   21  O   UNL     1       1.885  -2.843  -0.733  1.00  0.00    -0.267 OA
BRANCH  19  22
HETATM   22  C   UNL     1       3.227  -5.031   0.371  1.00  0.00     0.149 C 
BRANCH  22  23
HETATM   23  C   UNL     1       3.901  -5.948   1.348  1.00  0.00    -0.018 C 
HETATM   24  C   UNL     1       4.392  -5.654   2.561  1.00  0.00     0.008 C 
ENDBRANCH  22  23
ENDBRANCH  19  22
ENDBRANCH   9  18
TORSDOF 5
