REMARK  10 active torsions:
REMARK  status: ('A' for Active; 'I' for Inactive)
REMARK    1  A    between atoms: C_3  and  N_4 
REMARK       I    between atoms: N_4  and  C_5 
REMARK    2  A    between atoms: C_5  and  C_6 
REMARK    3  A    between atoms: C_13  and  C_14 
REMARK    4  A    between atoms: C_14  and  O_15 
REMARK    5  A    between atoms: O_15  and  C_16 
REMARK    6  A    between atoms: C_16  and  C_17 
REMARK       I    between atoms: C_17  and  N_18 
REMARK    7  A    between atoms: N_18  and  C_19 
REMARK    8  A    between atoms: C_19  and  C_20 
REMARK    9  A    between atoms: C_20  and  C_21 
REMARK   10  A    between atoms: C_24  and  O_25 
ROOT
HETATM    1  C   UNL     1       6.322  -0.534  -0.400  1.00  0.00     0.293 C 
HETATM    2  O   UNL     1       5.155  -0.650  -0.051  1.00  0.00    -0.259 OA
ENDROOT
BRANCH   1   3
HETATM    3  C   UNL     1       7.044   0.759  -0.445  1.00  0.00     0.041 A 
HETATM    4  C   UNL     1       8.132   0.965  -1.303  1.00  0.00     0.047 A 
HETATM    5  C   UNL     1       8.816   2.188  -1.321  1.00  0.00     0.042 A 
HETATM    6  C   UNL     1       8.390   3.223  -0.458  1.00  0.00    -0.035 A 
HETATM    7  C   UNL     1       9.074   4.563  -0.372  1.00  0.00     0.050 C 
HETATM    8  C   UNL     1       7.295   3.003   0.398  1.00  0.00     0.010 A 
HETATM    9  C   UNL     1       6.617   1.786   0.397  1.00  0.00     0.018 A 
BRANCH   5  10
HETATM   10  N   UNL     1       9.928   2.405  -2.164  1.00  0.00    -0.321 N 
HETATM   11  C   UNL     1      10.365   1.629  -3.226  1.00  0.00     0.279 C 
HETATM   12  O   UNL     1       9.809   0.619  -3.643  1.00  0.00    -0.265 OA
HETATM   13  H   UNL     1      10.467   3.252  -2.029  1.00  0.00     0.169 HD
BRANCH  11  14
HETATM   14  C   UNL     1      11.566   2.154  -3.850  1.00  0.00     0.142 A 
HETATM   15  O   UNL     1      12.176   3.263  -3.320  1.00  0.00    -0.317 OA
HETATM   16  C   UNL     1      13.267   3.521  -4.087  1.00  0.00     0.143 A 
HETATM   17  C   UNL     1      13.368   2.608  -5.109  1.00  0.00     0.027 A 
HETATM   18  C   UNL     1      12.273   1.727  -4.958  1.00  0.00     0.045 A 
ENDBRANCH  11  14
ENDBRANCH   5  10
ENDBRANCH   1   3
BRANCH   1  19
HETATM   19  O   UNL     1       7.147  -1.547  -0.750  1.00  0.00    -0.308 OA
BRANCH  19  20
HETATM   20  C   UNL     1       6.602  -2.862  -0.632  1.00  0.00     0.281 C 
BRANCH  20  21
HETATM   21  C   UNL     1       5.724  -3.283  -1.812  1.00  0.00     0.241 C 
HETATM   22  N   UNL     1       4.484  -2.680  -1.843  1.00  0.00    -0.359 N 
HETATM   23  H   UNL     1       4.336  -1.882  -1.225  1.00  0.00     0.162 HD
HETATM   24  O   UNL     1       6.090  -4.112  -2.641  1.00  0.00    -0.271 OA
BRANCH  22  25
HETATM   25  C   UNL     1       3.573  -2.901  -2.948  1.00  0.00     0.127 C 
BRANCH  25  26
HETATM   26  C   UNL     1       2.215  -2.245  -2.704  1.00  0.00     0.058 C 
BRANCH  26  27
HETATM   27  C   UNL     1       1.232  -2.554  -3.805  1.00  0.00    -0.057 A 
HETATM   28  C   UNL     1       0.364  -3.645  -3.690  1.00  0.00     0.010 A 
HETATM   29  C   UNL     1      -0.537  -3.939  -4.716  1.00  0.00     0.037 A 
HETATM   30  C   UNL     1      -0.584  -3.156  -5.871  1.00  0.00     0.068 A 
HETATM   31  C   UNL     1       0.287  -2.074  -5.995  1.00  0.00     0.037 A 
HETATM   32  C   UNL     1       1.191  -1.776  -4.968  1.00  0.00     0.010 A 
BRANCH  30  33
HETATM   33  O   UNL     1      -1.514  -3.553  -6.792  1.00  0.00    -0.356 OA
HETATM   34  C   UNL     1      -1.630  -2.763  -7.969  1.00  0.00     0.210 C 
ENDBRANCH  30  33
ENDBRANCH  26  27
ENDBRANCH  25  26
ENDBRANCH  22  25
ENDBRANCH  20  21
ENDBRANCH  19  20
ENDBRANCH   1  19
TORSDOF 10
