REMARK  6 active torsions:
REMARK  status: ('A' for Active; 'I' for Inactive)
REMARK    1  A    between atoms: O_2  and  C_3 
REMARK    2  A    between atoms: C_5  and  N_6 
REMARK    3  A    between atoms: C_7  and  C_9 
REMARK    4  A    between atoms: C_7  and  O_8 
REMARK       I    between atoms: C_9  and  N_10 
REMARK    5  A    between atoms: N_10  and  C_11 
REMARK    6  A    between atoms: C_11  and  C_12 
ROOT
HETATM    1  N   UNL     1       5.615  -2.352  -2.956  1.00  0.00    -0.254 N 
HETATM    2  C   UNL     1       6.106  -1.081  -3.521  1.00  0.00     0.256 C 
HETATM    3  C   UNL     1       6.471  -1.115  -4.993  1.00  0.00     0.034 A 
HETATM    4  C   UNL     1       6.499  -2.333  -5.651  1.00  0.00     0.048 A 
HETATM    5  N   UNL     1       6.201  -3.481  -4.942  1.00  0.00    -0.308 N 
HETATM    6  C   UNL     1       5.794  -3.543  -3.647  1.00  0.00     0.330 C 
HETATM    7  O   UNL     1       5.642  -4.674  -3.183  1.00  0.00    -0.246 OA
HETATM    8  C   UNL     1       6.834   0.037  -5.717  1.00  0.00     0.015 A 
HETATM    9  C   UNL     1       7.177  -0.044  -7.069  1.00  0.00     0.001 A 
HETATM   10  C   UNL     1       7.182  -1.278  -7.712  1.00  0.00     0.002 A 
HETATM   11  C   UNL     1       6.850  -2.428  -7.000  1.00  0.00     0.030 A 
HETATM   12  H   UNL     1       6.270  -4.385  -5.392  1.00  0.00     0.170 HD
ENDROOT
BRANCH   2  13
HETATM   13  C   UNL     1       5.017   0.069  -3.333  1.00  0.00     0.279 C 
HETATM   14  N   UNL     1       5.538   1.215  -2.750  1.00  0.00    -0.352 N 
HETATM   15  H   UNL     1       6.548   1.244  -2.633  1.00  0.00     0.162 HD
HETATM   16  O   UNL     1       3.842  -0.023  -3.682  1.00  0.00    -0.268 OA
BRANCH  14  17
HETATM   17  C   UNL     1       4.781   2.435  -2.624  1.00  0.00     0.163 C 
BRANCH  17  18
HETATM   18  C   UNL     1       5.216   3.218  -1.413  1.00  0.00    -0.019 A 
HETATM   19  C   UNL     1       6.435   3.911  -1.354  1.00  0.00     0.042 A 
HETATM   20 CL   UNL     1       7.543   3.914  -2.681  1.00  0.00    -0.084 Cl
HETATM   21  C   UNL     1       6.800   4.615  -0.201  1.00  0.00     0.024 A 
HETATM   22  C   UNL     1       5.954   4.633   0.907  1.00  0.00     0.002 A 
HETATM   23  C   UNL     1       4.746   3.943   0.867  1.00  0.00     0.001 A 
HETATM   24  C   UNL     1       4.381   3.237  -0.281  1.00  0.00     0.010 A 
ENDBRANCH  17  18
ENDBRANCH  14  17
ENDBRANCH   2  13
BRANCH   2  25
HETATM   25  O   UNL     1       7.336  -0.778  -2.854  1.00  0.00    -0.359 OA
HETATM   26  H   UNL     1       7.468  -1.544  -2.270  1.00  0.00     0.213 HD
ENDBRANCH   2  25
BRANCH   1  27
HETATM   27  C   UNL     1       4.987  -2.369  -1.642  1.00  0.00     0.045 A 
HETATM   28  C   UNL     1       4.050  -3.362  -1.305  1.00  0.00     0.066 A 
HETATM   29  C   UNL     1       3.435  -3.416  -0.046  1.00  0.00     0.070 A 
HETATM   30  C   UNL     1       3.722  -2.440   0.900  1.00  0.00     0.037 A 
HETATM   31  C   UNL     1       4.630  -1.431   0.589  1.00  0.00     0.005 A 
HETATM   32  C   UNL     1       5.256  -1.399  -0.663  1.00  0.00     0.030 A 
BRANCH  29  33
HETATM   33  O   UNL     1       2.555  -4.451   0.122  1.00  0.00    -0.356 OA
HETATM   34  C   UNL     1       2.233  -4.793   1.464  1.00  0.00     0.210 C 
ENDBRANCH  29  33
ENDBRANCH   1  27
TORSDOF 6
