REMARK  9 active torsions:
REMARK  status: ('A' for Active; 'I' for Inactive)
REMARK    1  A    between atoms: C_3  and  C_4 
REMARK    2  A    between atoms: C_4  and  C_5 
REMARK       I    between atoms: C_5  and  N_6 
REMARK    3  A    between atoms: N_6  and  C_7 
REMARK    4  A    between atoms: C_16  and  N_17 
REMARK       I    between atoms: N_17  and  C_18 
REMARK    5  A    between atoms: C_18  and  C_19 
REMARK    6  A    between atoms: C_19  and  O_20 
REMARK    7  A    between atoms: C_26  and  C_27 
REMARK    8  A    between atoms: C_27  and  O_28 
REMARK    9  A    between atoms: C_30  and  O_31 
ROOT
HETATM    1  C   UNL     1      -2.496   1.491  -0.205  1.00  0.00     0.016 C 
HETATM    2  C   UNL     1      -1.004   1.063  -0.043  1.00  0.00    -0.030 C 
HETATM    3  C   UNL     1      -0.929  -0.360   0.662  1.00  0.00     0.056 C 
HETATM    4  C   UNL     1      -1.273  -1.455  -0.324  1.00  0.00     0.056 A 
HETATM    5  C   UNL     1      -1.266  -1.288  -1.694  1.00  0.00     0.012 A 
HETATM    6  S   UNL     1      -1.604  -2.764  -2.476  1.00  0.00    -0.055 SA
HETATM    7  C   UNL     1      -1.770  -3.502  -0.946  1.00  0.00     0.174 A 
HETATM    8  N   UNL     1      -1.578  -2.736   0.100  1.00  0.00    -0.227 NA
HETATM    9  C   UNL     1      -1.015  -0.015  -2.421  1.00  0.00     0.055 C 
HETATM   10  C   UNL     1      -0.345   1.036  -1.490  1.00  0.00     0.012 C 
HETATM   11  C   UNL     1       1.243   1.011  -1.534  1.00  0.00     0.008 C 
HETATM   12  C   UNL     1       1.670   1.750  -2.840  1.00  0.00     0.020 C 
HETATM   13  C   UNL     1       1.860   1.817  -0.349  1.00  0.00     0.128 C 
HETATM   14  C   UNL     1       0.882   2.831   0.231  1.00  0.00     0.033 C 
HETATM   15  C   UNL     1      -0.323   2.139   0.861  1.00  0.00     0.013 C 
ENDROOT
BRANCH   3  16
HETATM   16  C   UNL     1      -1.785  -0.457   1.943  1.00  0.00     0.114 C 
BRANCH  16  17
HETATM   17  C   UNL     1      -1.108  -1.226   3.062  1.00  0.00     0.218 C 
HETATM   18  N   UNL     1      -0.857  -2.549   2.801  1.00  0.00    -0.356 N 
HETATM   19  H   UNL     1      -1.265  -2.947   1.950  1.00  0.00     0.162 HD
HETATM   20  O   UNL     1      -0.836  -0.681   4.130  1.00  0.00    -0.274 OA
BRANCH  18  21
HETATM   21  C   UNL     1      -0.455  -3.466   3.843  1.00  0.00     0.084 C 
HETATM   22  C   UNL     1      -1.655  -4.090   4.552  1.00  0.00     0.025 C 
HETATM   23  C   UNL     1      -1.156  -5.426   5.097  1.00  0.00     0.002 C 
HETATM   24  C   UNL     1       0.196  -5.688   4.437  1.00  0.00     0.002 C 
HETATM   25  C   UNL     1       0.312  -4.670   3.313  1.00  0.00     0.025 C 
ENDBRANCH  18  21
ENDBRANCH  16  17
ENDBRANCH   3  16
BRANCH  11  26
HETATM   26  C   UNL     1       1.848  -0.416  -1.612  1.00  0.00     0.176 C 
BRANCH  26  27
HETATM   27  O   UNL     1       3.273  -0.379  -1.557  1.00  0.00    -0.400 OA
HETATM   28  H   UNL     1       3.478  -0.136  -0.631  1.00  0.00     0.209 HD
ENDBRANCH  26  27
ENDBRANCH  11  26
BRANCH   7  29
HETATM   29  N   UNL     1      -2.069  -4.830  -0.995  1.00  0.00    -0.304 N 
HETATM   30  C   UNL     1      -2.325  -5.576   0.132  1.00  0.00     0.247 C 
HETATM   31  O   UNL     1      -2.438  -5.162   1.281  1.00  0.00    -0.271 OA
HETATM   32  H   UNL     1      -2.074  -5.288  -1.897  1.00  0.00     0.171 HD
BRANCH  30  33
HETATM   33  C   UNL     1      -2.534  -7.055  -0.205  1.00  0.00     0.270 C 
BRANCH  33  34
HETATM   34  O   UNL     1      -1.818  -7.470  -1.368  1.00  0.00    -0.387 OA
HETATM   35  C   UNL     1      -0.479  -7.848  -1.060  1.00  0.00     0.202 C 
ENDBRANCH  33  34
ENDBRANCH  30  33
ENDBRANCH   7  29
BRANCH  13  36
HETATM   36  O   UNL     1       2.289   0.934   0.692  1.00  0.00    -0.395 OA
HETATM   37  H   UNL     1       2.581   1.479   1.446  1.00  0.00     0.210 HD
ENDBRANCH  13  36
TORSDOF 9
