REMARK  7 active torsions:
REMARK  status: ('A' for Active; 'I' for Inactive)
REMARK    1  A    between atoms: C_2  and  C_3 
REMARK    2  A    between atoms: C_6  and  C_7 
REMARK    3  A    between atoms: N_9  and  C_10 
REMARK    4  A    between atoms: C_10  and  C_11 
REMARK    5  A    between atoms: C_18  and  C_19 
REMARK       I    between atoms: C_19  and  N_20 
REMARK    6  A    between atoms: N_20  and  C_21 
REMARK    7  A    between atoms: C_24  and  O_25 
ROOT
HETATM    1  C   UNL     1       3.551  -4.652  -3.364  1.00  0.00     0.104 A 
HETATM    2  N   UNL     1       3.637  -4.747  -4.706  1.00  0.00    -0.171 NA
HETATM    3  N   UNL     1       3.542  -6.055  -4.967  1.00  0.00    -0.275 N 
HETATM    4  C   UNL     1       3.422  -6.820  -3.847  1.00  0.00     0.132 A 
HETATM    5  C   UNL     1       3.374  -5.949  -2.768  1.00  0.00     0.080 A 
ENDROOT
BRANCH   5   6
HETATM    6  C   UNL     1       3.177  -6.313  -1.364  1.00  0.00     0.255 C 
HETATM    7  N   UNL     1       2.735  -7.604  -1.169  1.00  0.00    -0.352 N 
HETATM    8  H   UNL     1       2.473  -8.124  -1.993  1.00  0.00     0.163 HD
HETATM    9  O   UNL     1       3.379  -5.533  -0.444  1.00  0.00    -0.268 OA
BRANCH   7  10
HETATM   10  C   UNL     1       2.432  -8.258   0.103  1.00  0.00     0.084 C 
HETATM   11  C   UNL     1       3.649  -8.439   1.019  1.00  0.00     0.028 C 
HETATM   12  C   UNL     1       3.854  -7.339   2.059  1.00  0.00     0.034 C 
HETATM   13  C   UNL     1       2.566  -6.978   2.789  1.00  0.00     0.118 C 
HETATM   14  C   UNL     1       1.451  -6.599   1.820  1.00  0.00     0.034 C 
HETATM   15  C   UNL     1       1.182  -7.699   0.794  1.00  0.00     0.028 C 
BRANCH  13  16
HETATM   16  O   UNL     1       2.154  -8.104   3.566  1.00  0.00    -0.396 OA
HETATM   17  H   UNL     1       1.387  -7.822   4.094  1.00  0.00     0.210 HD
ENDBRANCH  13  16
ENDBRANCH   7  10
ENDBRANCH   5   6
BRANCH   1  18
HETATM   18  C   UNL     1       3.614  -3.320  -2.759  1.00  0.00    -0.005 A 
HETATM   19  C   UNL     1       2.875  -2.271  -3.325  1.00  0.00     0.014 A 
HETATM   20  C   UNL     1       2.962  -0.969  -2.817  1.00  0.00     0.008 A 
HETATM   21  C   UNL     1       3.799  -0.682  -1.735  1.00  0.00    -0.059 A 
HETATM   22  C   UNL     1       4.534  -1.736  -1.167  1.00  0.00     0.008 A 
HETATM   23  C   UNL     1       4.451  -3.037  -1.679  1.00  0.00     0.014 A 
BRANCH  21  24
HETATM   24  C   UNL     1       3.951   0.699  -1.139  1.00  0.00     0.034 C 
HETATM   25  C   UNL     1       3.279   1.846  -1.884  1.00  0.00     0.010 C 
ENDBRANCH  21  24
ENDBRANCH   1  18
BRANCH   3  26
HETATM   26  C   UNL     1       3.561  -6.521  -6.350  1.00  0.00     0.189 C 
BRANCH  26  27
HETATM   27  C   UNL     1       2.213  -7.041  -6.791  1.00  0.00    -0.038 A 
HETATM   28  C   UNL     1       1.054  -6.261  -6.644  1.00  0.00     0.009 A 
HETATM   29  C   UNL     1      -0.186  -6.743  -7.063  1.00  0.00     0.001 A 
HETATM   30  C   UNL     1      -0.282  -8.003  -7.650  1.00  0.00     0.000 A 
HETATM   31  C   UNL     1       0.863  -8.780  -7.821  1.00  0.00     0.001 A 
HETATM   32  C   UNL     1       2.104  -8.301  -7.397  1.00  0.00     0.009 A 
ENDBRANCH  26  27
ENDBRANCH   3  26
TORSDOF 7
