REMARK  6 active torsions:
REMARK  status: ('A' for Active; 'I' for Inactive)
REMARK    1  A    between atoms: C_2  and  O_3 
REMARK    2  A    between atoms: C_2  and  C_4 
REMARK    3  A    between atoms: C_7  and  N_8 
REMARK       I    between atoms: N_8  and  C_9 
REMARK    4  A    between atoms: C_9  and  C_10 
REMARK    5  A    between atoms: C_13  and  C_14 
REMARK    6  A    between atoms: C_19  and  C_20 
ROOT
HETATM    1  C   UNL     1       2.899  -6.537   0.263  1.00  0.00     0.096 A 
HETATM    2  C   UNL     1       2.433  -5.387   0.876  1.00  0.00     0.138 A 
HETATM    3  N   UNL     1       1.843  -5.800   2.050  1.00  0.00    -0.240 N 
HETATM    4  C   UNL     1       1.295  -4.912   3.059  1.00  0.00     0.221 C 
HETATM    5  C   UNL     1       1.721  -3.456   2.774  1.00  0.00     0.066 C 
HETATM    6  C   UNL     1       1.600  -3.126   1.278  1.00  0.00     0.118 C 
HETATM    7  N   UNL     1       2.489  -4.059   0.549  1.00  0.00    -0.365 N 
HETATM    8  N   UNL     1       1.794  -7.131   2.189  1.00  0.00    -0.181 NA
HETATM    9  C   UNL     1       2.463  -7.577   1.123  1.00  0.00     0.160 A 
HETATM   10  H   UNL     1       3.427  -3.665   0.435  1.00  0.00     0.161 HD
ENDROOT
BRANCH   1  11
HETATM   11  C   UNL     1       3.645  -6.723  -0.974  1.00  0.00     0.261 C 
HETATM   12  N   UNL     1       3.835  -5.562  -1.698  1.00  0.00    -0.323 N 
HETATM   13  H   UNL     1       3.355  -4.745  -1.340  1.00  0.00     0.169 HD
HETATM   14  O   UNL     1       4.054  -7.836  -1.279  1.00  0.00    -0.267 OA
BRANCH  12  15
HETATM   15  C   UNL     1       4.642  -5.384  -2.839  1.00  0.00     0.035 A 
HETATM   16  C   UNL     1       5.326  -6.418  -3.479  1.00  0.00     0.030 A 
HETATM   17  C   UNL     1       6.156  -6.159  -4.579  1.00  0.00     0.012 A 
HETATM   18  C   UNL     1       6.329  -4.858  -5.065  1.00  0.00    -0.030 A 
HETATM   19  C   UNL     1       5.623  -3.826  -4.425  1.00  0.00     0.012 A 
HETATM   20  C   UNL     1       4.786  -4.085  -3.333  1.00  0.00     0.030 A 
BRANCH  18  21
HETATM   21  C   UNL     1       7.263  -4.514  -6.209  1.00  0.00     0.147 C 
HETATM   22  C   UNL     1       7.941  -5.687  -6.912  1.00  0.00     0.044 C 
BRANCH  21  23
HETATM   23  O   UNL     1       6.525  -3.772  -7.181  1.00  0.00    -0.391 OA
HETATM   24  H   UNL     1       7.137  -3.551  -7.902  1.00  0.00     0.210 HD
ENDBRANCH  21  23
ENDBRANCH  18  21
ENDBRANCH  12  15
ENDBRANCH   1  11
BRANCH   4  25
HETATM   25  C   UNL     1       1.746  -5.294   4.454  1.00  0.00     0.409 C 
HETATM   26  F   UNL     1       1.277  -6.484   4.875  1.00  0.00    -0.169 F 
HETATM   27  F   UNL     1       3.093  -5.294   4.575  1.00  0.00    -0.169 F 
HETATM   28  F   UNL     1       1.283  -4.371   5.343  1.00  0.00    -0.169 F 
ENDBRANCH   4  25
BRANCH   6  29
HETATM   29  C   UNL     1       0.174  -3.136   0.723  1.00  0.00    -0.035 A 
HETATM   30  C   UNL     1      -0.912  -2.662   1.487  1.00  0.00     0.012 A 
HETATM   31  C   UNL     1      -2.214  -2.671   0.977  1.00  0.00     0.043 A 
HETATM   32  C   UNL     1      -2.443  -3.127  -0.313  1.00  0.00     0.116 A 
HETATM   33  F   UNL     1      -3.691  -3.133  -0.800  1.00  0.00    -0.206 F 
HETATM   34  C   UNL     1      -1.394  -3.564  -1.106  1.00  0.00     0.043 A 
HETATM   35  C   UNL     1      -0.093  -3.560  -0.594  1.00  0.00     0.012 A 
ENDBRANCH   6  29
TORSDOF 6
