REMARK  10 active torsions:
REMARK  status: ('A' for Active; 'I' for Inactive)
REMARK    1  A    between atoms: C_2  and  C_3 
REMARK    2  A    between atoms: C_3  and  C_4 
REMARK    3  A    between atoms: C_4  and  O_5 
REMARK    4  A    between atoms: O_5  and  C_6 
REMARK    5  A    between atoms: C_9  and  C_10 
REMARK       I    between atoms: C_10  and  N_11 
REMARK    6  A    between atoms: N_11  and  C_12 
REMARK    7  A    between atoms: C_12  and  N_13 
REMARK    8  A    between atoms: N_13  and  C_14 
REMARK    9  A    between atoms: C_16  and  C_17 
REMARK   10  A    between atoms: C_27  and  O_28 
ROOT
HETATM    1  N   UNL     1      10.023   1.757   4.002  1.00  0.00    -0.333 N 
HETATM    2  H   UNL     1      10.216   2.223   4.885  1.00  0.00     0.168 HD
ENDROOT
BRANCH   1   3
HETATM    3  C   UNL     1      11.143   1.672   3.222  1.00  0.00     0.179 C 
HETATM    4  S   UNL     1      12.506   2.480   3.767  1.00  0.00    -0.040 SA
BRANCH   3   5
HETATM    5  N   UNL     1      11.086   0.864   2.118  1.00  0.00    -0.299 N 
HETATM    6  C   UNL     1      11.971   0.900   1.052  1.00  0.00     0.257 C 
HETATM    7  O   UNL     1      12.293   1.918   0.450  1.00  0.00    -0.267 OA
HETATM    8  H   UNL     1      10.624  -0.017   2.300  1.00  0.00     0.171 HD
BRANCH   6   9
HETATM    9  C   UNL     1      12.348  -0.418   0.499  1.00  0.00     0.032 A 
HETATM   10  C   UNL     1      12.229  -0.631  -0.876  1.00  0.00     0.020 A 
HETATM   11  C   UNL     1      12.613  -1.856  -1.429  1.00  0.00     0.038 A 
HETATM   12  C   UNL     1      13.136  -2.861  -0.612  1.00  0.00     0.068 A 
HETATM   13  C   UNL     1      13.273  -2.630   0.762  1.00  0.00     0.038 A 
HETATM   14  C   UNL     1      12.874  -1.414   1.325  1.00  0.00     0.020 A 
BRANCH  12  15
HETATM   15  O   UNL     1      13.571  -4.088  -1.033  1.00  0.00    -0.351 OA
BRANCH  15  16
HETATM   16  C   UNL     1      13.254  -4.453  -2.377  1.00  0.00     0.175 C 
BRANCH  16  17
HETATM   17  C   UNL     1      13.760  -5.873  -2.616  1.00  0.00     0.026 C 
BRANCH  17  18
HETATM   18  C   UNL     1      13.349  -6.385  -3.995  1.00  0.00    -0.002 C 
HETATM   19  C   UNL     1      13.891  -7.780  -4.260  1.00  0.00     0.005 C 
ENDBRANCH  17  18
ENDBRANCH  16  17
ENDBRANCH  15  16
ENDBRANCH  12  15
ENDBRANCH   6   9
ENDBRANCH   3   5
ENDBRANCH   1   3
BRANCH   1  20
HETATM   20  C   UNL     1       8.653   1.563   3.719  1.00  0.00     0.035 A 
HETATM   21  C   UNL     1       8.124   1.260   2.458  1.00  0.00     0.048 A 
HETATM   22  C   UNL     1       6.731   1.171   2.258  1.00  0.00     0.052 A 
HETATM   23  C   UNL     1       5.879   1.421   3.345  1.00  0.00     0.080 A 
HETATM   24  C   UNL     1       6.391   1.712   4.603  1.00  0.00     0.040 A 
HETATM   25  C   UNL     1       7.771   1.780   4.787  1.00  0.00     0.032 A 
BRANCH  22  26
HETATM   26  C   UNL     1       6.167   0.839   0.954  1.00  0.00     0.183 A 
HETATM   27  O   UNL     1       6.976   0.184   0.061  1.00  0.00    -0.289 OA
HETATM   28  C   UNL     1       6.150  -0.079  -0.995  1.00  0.00     0.107 A 
HETATM   29  C   UNL     1       4.902   0.443  -0.698  1.00  0.00     0.093 A 
HETATM   30  C   UNL     1       6.463  -0.760  -2.166  1.00  0.00     0.046 A 
HETATM   31  N   UNL     1       4.918   1.011   0.550  1.00  0.00    -0.221 NA
HETATM   32  C   UNL     1       3.869   0.310  -1.632  1.00  0.00     0.035 A 
HETATM   33  C   UNL     1       4.143  -0.372  -2.828  1.00  0.00     0.009 A 
HETATM   34  C   UNL     1       5.417  -0.908  -3.094  1.00  0.00    -0.059 A 
HETATM   35  C   UNL     1       5.640  -1.663  -4.375  1.00  0.00     0.048 C 
ENDBRANCH  22  26
BRANCH  23  36
HETATM   36  O   UNL     1       4.511   1.403   3.244  1.00  0.00    -0.360 OA
HETATM   37  H   UNL     1       4.268   1.311   2.297  1.00  0.00     0.217 HD
ENDBRANCH  23  36
ENDBRANCH   1  20
TORSDOF 10
