REMARK  4 active torsions:
REMARK  status: ('A' for Active; 'I' for Inactive)
REMARK    1  A    between atoms: C_3  and  O_4 
REMARK    2  A    between atoms: O_4  and  C_5 
REMARK    3  A    between atoms: C_11  and  C_12 
REMARK    4  A    between atoms: C_23  and  N_24 
ROOT
HETATM    1  C   UNL     1       5.341  -2.680   0.172  1.00  0.00     0.244 A 
HETATM    2  N   UNL     1       5.756  -2.600  -1.209  1.00  0.00    -0.151 N 
HETATM    3  C   UNL     1       5.694  -3.701  -2.025  1.00  0.00     0.734 A 
HETATM    4  N   UNL     1       6.112  -3.380  -3.229  1.00  0.00    -0.060 NA
HETATM    5  C   UNL     1       6.397  -2.038  -3.196  1.00  0.00     0.103 A 
HETATM    6  C   UNL     1       6.169  -1.512  -1.928  1.00  0.00     0.083 A 
HETATM    7  C   UNL     1       6.849  -1.196  -4.221  1.00  0.00     0.034 A 
HETATM    8  C   UNL     1       7.053   0.159  -3.937  1.00  0.00     0.002 A 
HETATM    9  C   UNL     1       6.814   0.664  -2.657  1.00  0.00     0.002 A 
HETATM   10  C   UNL     1       6.367  -0.161  -1.618  1.00  0.00     0.033 A 
HETATM   11  N   UNL     1       5.260  -4.907  -1.595  1.00  0.00    -0.033 NA
HETATM   12  C   UNL     1       4.828  -5.022  -0.391  1.00  0.00     0.193 A 
HETATM   13  N   UNL     1       4.786  -3.979   0.540  1.00  0.00    -0.339 N 
HETATM   14  H   UNL     1       4.381  -4.117   1.452  1.00  0.00     0.164 HD
ENDROOT
BRANCH   1  15
HETATM   15  C   UNL     1       6.474  -2.412   1.150  1.00  0.00    -0.014 A 
HETATM   16  C   UNL     1       6.237  -1.628   2.292  1.00  0.00     0.020 A 
HETATM   17  C   UNL     1       7.234  -1.425   3.261  1.00  0.00    -0.027 A 
HETATM   18  C   UNL     1       8.491  -2.014   3.068  1.00  0.00     0.086 A 
HETATM   19  C   UNL     1       6.890  -0.628   4.490  1.00  0.00     0.051 C 
HETATM   20  C   UNL     1       8.744  -2.839   1.960  1.00  0.00    -0.027 A 
HETATM   21  C   UNL     1      10.076  -3.514   1.770  1.00  0.00     0.051 C 
HETATM   22  C   UNL     1       7.736  -3.017   1.003  1.00  0.00     0.020 A 
BRANCH  18  23
HETATM   23  O   UNL     1       9.461  -1.862   4.023  1.00  0.00    -0.289 OA
BRANCH  23  24
HETATM   24  C   UNL     1      10.338  -0.794   3.682  1.00  0.00     0.505 C 
HETATM   25  F   UNL     1      10.065   0.248   4.505  1.00  0.00    -0.184 F 
HETATM   26  F   UNL     1      11.600  -1.202   3.968  1.00  0.00    -0.184 F 
ENDBRANCH  23  24
ENDBRANCH  18  23
ENDBRANCH   1  15
BRANCH  12  27
HETATM   27  N   UNL     1       4.356  -6.180   0.112  1.00  0.00    -0.272 NA
HETATM   28  H   UNL     1       4.520  -6.950  -0.534  1.00  0.00     0.127 HD
HETATM   29  H   UNL     1       4.660  -6.424   1.045  1.00  0.00     0.127 HD
ENDBRANCH  12  27
TORSDOF 4
