REMARK  4 active torsions:
REMARK  status: ('A' for Active; 'I' for Inactive)
REMARK    1  A    between atoms: C_6  and  N_7 
REMARK       I    between atoms: N_7  and  C_8 
REMARK    2  A    between atoms: C_8  and  C_9 
REMARK    3  A    between atoms: C_10  and  C_11 
REMARK    4  A    between atoms: C_12  and  O_13 
ROOT
HETATM    1  C   UNL     1       6.667  -2.475  -0.608  1.00  0.00     0.063 A 
HETATM    2  C   UNL     1       7.540  -3.656  -0.206  1.00  0.00     0.205 A 
HETATM    3  N   UNL     1       6.832  -4.932  -0.385  1.00  0.00    -0.084 N 
HETATM    4  C   UNL     1       5.545  -5.037  -0.841  1.00  0.00     0.725 A 
HETATM    5  N   UNL     1       4.855  -3.920  -1.134  1.00  0.00    -0.192 N 
HETATM    6  N   UNL     1       7.402  -6.151  -0.252  1.00  0.00    -0.149 NA
HETATM    7  C   UNL     1       6.368  -6.941  -0.562  1.00  0.00     0.275 A 
HETATM    8  N   UNL     1       5.216  -6.300  -0.935  1.00  0.00    -0.054 NA
HETATM    9  C   UNL     1       5.392  -2.641  -1.039  1.00  0.00     0.037 A 
HETATM   10  C   UNL     1       4.479  -1.516  -1.463  1.00  0.00     0.070 C 
HETATM   11  H   UNL     1       3.901  -4.007  -1.474  1.00  0.00     0.184 HD
ENDROOT
BRANCH   1  12
HETATM   12  C   UNL     1       7.227  -1.107  -0.444  1.00  0.00     0.256 C 
HETATM   13  N   UNL     1       8.370  -0.896  -1.187  1.00  0.00    -0.323 N 
HETATM   14  H   UNL     1       8.749  -1.687  -1.686  1.00  0.00     0.169 HD
HETATM   15  O   UNL     1       6.642  -0.304   0.273  1.00  0.00    -0.267 OA
BRANCH  13  16
HETATM   16  C   UNL     1       9.064   0.326  -1.372  1.00  0.00     0.041 A 
HETATM   17  C   UNL     1      10.246   0.328  -2.145  1.00  0.00    -0.035 A 
HETATM   18  C   UNL     1      10.911   1.545  -2.392  1.00  0.00     0.015 A 
HETATM   19  C   UNL     1      10.831  -0.931  -2.729  1.00  0.00     0.050 C 
HETATM   20  C   UNL     1      10.437   2.752  -1.869  1.00  0.00    -0.061 A 
HETATM   21  C   UNL     1      11.123   4.048  -2.179  1.00  0.00     0.048 C 
HETATM   22  C   UNL     1       9.274   2.738  -1.101  1.00  0.00     0.009 A 
HETATM   23  C   UNL     1       8.600   1.538  -0.851  1.00  0.00     0.030 A 
ENDBRANCH  13  16
ENDBRANCH   1  12
BRANCH   2  24
HETATM   24  C   UNL     1       8.083  -3.548   1.213  1.00  0.00     0.005 A 
HETATM   25  C   UNL     1       9.470  -3.524   1.452  1.00  0.00     0.076 A 
HETATM   26  C   UNL     1       9.950  -3.412   2.761  1.00  0.00     0.037 A 
HETATM   27  C   UNL     1       9.062  -3.345   3.837  1.00  0.00     0.003 A 
HETATM   28  C   UNL     1       7.690  -3.379   3.612  1.00  0.00     0.001 A 
HETATM   29  C   UNL     1       7.201  -3.477   2.310  1.00  0.00     0.012 A 
BRANCH  25  30
HETATM   30  O   UNL     1      10.283  -3.568   0.348  1.00  0.00    -0.355 OA
HETATM   31  C   UNL     1      11.585  -4.108   0.558  1.00  0.00     0.210 C 
ENDBRANCH  25  30
ENDBRANCH   2  24
TORSDOF 4
