REMARK  8 active torsions:
REMARK  status: ('A' for Active; 'I' for Inactive)
REMARK    1  A    between atoms: C_2  and  N_3 
REMARK    2  A    between atoms: C_2  and  C_26 
REMARK       I    between atoms: N_3  and  C_4 
REMARK    3  A    between atoms: C_4  and  C_5 
REMARK    4  A    between atoms: C_5  and  S_6 
REMARK    5  A    between atoms: S_6  and  C_7 
REMARK    6  A    between atoms: C_10  and  C_11 
REMARK    7  A    between atoms: C_11  and  O_12 
REMARK    8  A    between atoms: O_12  and  C_13 
ROOT
HETATM    1  C   UNL     1       0.312   2.359   3.185  1.00  0.00     0.191 A 
HETATM    2  N   UNL     1      -0.632   2.110   4.141  1.00  0.00    -0.314 N 
HETATM    3  C   UNL     1      -0.862   0.876   4.846  1.00  0.00     0.160 C 
HETATM    4  C   UNL     1      -1.301   3.301   4.314  1.00  0.00     0.154 A 
HETATM    5  N   UNL     1      -0.828   4.181   3.452  1.00  0.00    -0.132 NA
HETATM    6  N   UNL     1       0.172   3.583   2.735  1.00  0.00    -0.123 NA
ENDROOT
BRANCH   1   7
HETATM    7  S   UNL     1       1.551   1.250   2.719  1.00  0.00    -0.081 SA
BRANCH   7   8
HETATM    8  C   UNL     1       2.467   2.233   1.493  1.00  0.00     0.185 C 
BRANCH   8   9
HETATM    9  C   UNL     1       3.430   3.207   2.155  1.00  0.00     0.227 C 
HETATM   10  N   UNL     1       2.850   4.349   2.650  1.00  0.00    -0.352 N 
HETATM   11  H   UNL     1       1.833   4.432   2.616  1.00  0.00     0.163 HD
HETATM   12  O   UNL     1       4.639   2.990   2.208  1.00  0.00    -0.273 OA
BRANCH  10  13
HETATM   13  C   UNL     1       3.589   5.429   3.280  1.00  0.00     0.113 C 
HETATM   14  C   UNL     1       4.217   5.005   4.612  1.00  0.00     0.037 C 
BRANCH  13  15
HETATM   15  C   UNL     1       2.672   6.629   3.450  1.00  0.00    -0.036 A 
HETATM   16  C   UNL     1       2.839   7.765   2.644  1.00  0.00     0.009 A 
HETATM   17  C   UNL     1       1.976   8.857   2.765  1.00  0.00     0.001 A 
HETATM   18  C   UNL     1       0.933   8.827   3.689  1.00  0.00     0.000 A 
HETATM   19  C   UNL     1       0.748   7.703   4.489  1.00  0.00     0.001 A 
HETATM   20  C   UNL     1       1.608   6.611   4.369  1.00  0.00     0.009 A 
ENDBRANCH  13  15
ENDBRANCH  10  13
ENDBRANCH   8   9
ENDBRANCH   7   8
ENDBRANCH   1   7
BRANCH   4  21
HETATM   21  C   UNL     1      -2.339   3.565   5.345  1.00  0.00     0.256 C 
BRANCH  21  22
HETATM   22  O   UNL     1      -3.543   2.942   4.900  1.00  0.00    -0.344 OA
BRANCH  22  23
HETATM   23  C   UNL     1      -4.680   3.347   5.547  1.00  0.00     0.069 A 
HETATM   24  C   UNL     1      -4.731   3.847   6.849  1.00  0.00     0.044 A 
HETATM   25  C   UNL     1      -5.954   4.241   7.420  1.00  0.00    -0.049 A 
HETATM   26  C   UNL     1      -7.142   4.097   6.683  1.00  0.00    -0.052 A 
HETATM   27  C   UNL     1      -5.966   4.750   8.842  1.00  0.00     0.039 C 
HETATM   28  C   UNL     1      -8.474   4.538   7.240  1.00  0.00     0.039 C 
HETATM   29  C   UNL     1      -7.083   3.586   5.380  1.00  0.00     0.010 A 
HETATM   30  C   UNL     1      -8.469   4.696   8.759  1.00  0.00     0.005 C 
HETATM   31  C   UNL     1      -7.250   5.491   9.208  1.00  0.00     0.005 C 
HETATM   32  C   UNL     1      -5.862   3.205   4.821  1.00  0.00     0.037 A 
ENDBRANCH  22  23
ENDBRANCH  21  22
ENDBRANCH   4  21
TORSDOF 8
