REMARK  5 active torsions:
REMARK  status: ('A' for Active; 'I' for Inactive)
REMARK    1  A    between atoms: C_2  and  C_3 
REMARK    2  A    between atoms: C_3  and  N_4 
REMARK    3  A    between atoms: C_7  and  C_8 
REMARK    4  A    between atoms: C_8  and  O_9 
REMARK    5  A    between atoms: N_13  and  C_15 
ROOT
HETATM    1  N   UNL     1       0.038   3.487  -0.086  1.00  0.00    -0.067 N 
HETATM    2  H   UNL     1      -0.735   3.022   0.411  1.00  0.00     0.280 HD
HETATM    3  C   UNL     1       0.348   4.711   0.735  1.00  0.00     0.242 C 
HETATM    4  C   UNL     1       1.325   5.661   0.000  1.00  0.00     0.044 C 
HETATM    5  C   UNL     1       0.814   6.093  -1.431  1.00  0.00    -0.029 C 
HETATM    6  C   UNL     1      -0.459   6.995  -1.407  1.00  0.00     0.037 C 
HETATM    7  C   UNL     1      -0.219   8.504  -1.309  1.00  0.00     0.236 C 
HETATM    8  N   UNL     1       0.731   8.974  -2.384  1.00  0.00    -0.067 N 
HETATM    9  H   UNL     1       0.900   9.970  -2.178  1.00  0.00     0.280 HD
HETATM   10  C   UNL     1       2.068   8.301  -2.167  1.00  0.00     0.236 C 
HETATM   11  C   UNL     1       1.940   6.782  -2.274  1.00  0.00     0.037 C 
HETATM   12  C   UNL     1       0.474   4.753  -2.180  1.00  0.00     0.037 C 
HETATM   13  C   UNL     1      -0.487   3.822  -1.446  1.00  0.00     0.236 C 
ENDROOT
BRANCH   4  14
HETATM   14  C   UNL     1       1.702   6.790   0.969  1.00  0.00     0.171 C 
BRANCH  14  15
HETATM   15  O   UNL     1       2.257   6.198   2.131  1.00  0.00    -0.400 OA
HETATM   16  H   UNL     1       2.578   6.902   2.729  1.00  0.00     0.209 HD
ENDBRANCH  14  15
ENDBRANCH   4  14
BRANCH   1  17
HETATM   17  C   UNL     1       1.127   2.420  -0.083  1.00  0.00     0.273 C 
BRANCH  17  18
HETATM   18  C   UNL     1       1.397   1.857   1.289  1.00  0.00    -0.033 A 
HETATM   19  C   UNL     1       0.468   1.003   1.907  1.00  0.00     0.010 A 
HETATM   20  C   UNL     1       0.696   0.531   3.203  1.00  0.00     0.024 A 
HETATM   21  C   UNL     1       1.850   0.903   3.887  1.00  0.00     0.034 A 
HETATM   22  C   UNL     1       2.786   1.738   3.282  1.00  0.00     0.024 A 
HETATM   23 CL   UNL     1       2.118   0.335   5.486  1.00  0.00    -0.084 Cl
HETATM   24  C   UNL     1       2.562   2.214   1.988  1.00  0.00     0.010 A 
ENDBRANCH  17  18
ENDBRANCH   1  17
BRANCH   8  25
HETATM   25  C   UNL     1       0.187   8.951  -3.840  1.00  0.00     0.192 C 
HETATM   26  C   UNL     1      -1.137   9.721  -3.963  1.00  0.00     0.059 C 
HETATM   27  C   UNL     1      -0.930  11.222  -3.830  1.00  0.00     0.169 C 
HETATM   28  O   UNL     1       0.024  11.670  -4.782  1.00  0.00    -0.391 OA
HETATM   29  C   UNL     1       1.305  11.066  -4.669  1.00  0.00     0.169 C 
HETATM   30  C   UNL     1       1.191   9.558  -4.832  1.00  0.00     0.059 C 
ENDBRANCH   8  25
TORSDOF 5
