REMARK  6 active torsions:
REMARK  status: ('A' for Active; 'I' for Inactive)
REMARK    1  A    between atoms: C_2  and  O_3 
REMARK    2  A    between atoms: O_3  and  C_4 
REMARK    3  A    between atoms: C_7  and  C_8 
REMARK    4  A    between atoms: C_8  and  N_9 
REMARK       I    between atoms: N_9  and  C_10 
REMARK    5  A    between atoms: C_10  and  C_11 
REMARK    6  A    between atoms: C_15  and  C_16 
ROOT
HETATM    1  N   UNL     1       8.807   2.234   2.377  1.00  0.00    -0.347 N 
HETATM    2  C   UNL     1       9.691   3.231   2.025  1.00  0.00     0.272 C 
HETATM    3  O   UNL     1      10.094   3.407   0.878  1.00  0.00    -0.266 OA
HETATM    4  H   UNL     1       8.621   2.146   3.371  1.00  0.00     0.163 HD
ENDROOT
BRANCH   2   5
HETATM    5  C   UNL     1      10.148   4.050   3.155  1.00  0.00     0.146 A 
HETATM    6  N   UNL     1       9.827   3.776   4.434  1.00  0.00    -0.169 NA
HETATM    7  N   UNL     1      10.486   4.715   5.138  1.00  0.00    -0.277 N 
HETATM    8  H   UNL     1      10.412   4.686   6.148  1.00  0.00     0.189 HD
HETATM    9  C   UNL     1      11.213   5.601   4.381  1.00  0.00     0.063 A 
HETATM   10  C   UNL     1      10.998   5.182   3.081  1.00  0.00     0.071 A 
BRANCH   9  11
HETATM   11  C   UNL     1      12.029   6.693   4.924  1.00  0.00    -0.008 A 
HETATM   12  C   UNL     1      12.948   7.362   4.098  1.00  0.00     0.014 A 
HETATM   13  C   UNL     1      13.741   8.402   4.592  1.00  0.00     0.001 A 
HETATM   14  C   UNL     1      13.629   8.792   5.922  1.00  0.00     0.000 A 
HETATM   15  C   UNL     1      12.723   8.144   6.756  1.00  0.00     0.001 A 
HETATM   16  C   UNL     1      11.927   7.103   6.261  1.00  0.00     0.014 A 
ENDBRANCH   9  11
ENDBRANCH   2   5
BRANCH   1  17
HETATM   17  C   UNL     1       8.484   1.157   1.468  1.00  0.00     0.114 C 
HETATM   18  C   UNL     1       9.550   0.058   1.534  1.00  0.00     0.037 C 
BRANCH  17  19
HETATM   19  C   UNL     1       7.090   0.617   1.721  1.00  0.00    -0.036 A 
HETATM   20  C   UNL     1       6.081   0.845   0.773  1.00  0.00     0.012 A 
HETATM   21  C   UNL     1       4.808   0.296   0.939  1.00  0.00     0.037 A 
HETATM   22  C   UNL     1       4.521  -0.496   2.048  1.00  0.00     0.068 A 
HETATM   23  C   UNL     1       5.494  -0.683   3.029  1.00  0.00     0.037 A 
HETATM   24  C   UNL     1       6.771  -0.129   2.866  1.00  0.00     0.012 A 
BRANCH  22  25
HETATM   25  O   UNL     1       3.257  -1.019   2.080  1.00  0.00    -0.352 OA
BRANCH  25  26
HETATM   26  C   UNL     1       3.115  -2.246   2.796  1.00  0.00     0.171 C 
HETATM   27  C   UNL     1       1.833  -2.913   2.328  1.00  0.00     0.034 C 
ENDBRANCH  25  26
ENDBRANCH  22  25
ENDBRANCH  17  19
ENDBRANCH   1  17
TORSDOF 6
