REMARK  8 active torsions:
REMARK  status: ('A' for Active; 'I' for Inactive)
REMARK    1  A    between atoms: N_9  and  N_10 
REMARK    2  A    between atoms: C_11  and  C_12 
REMARK    3  A    between atoms: C_14  and  O_15 
REMARK    4  A    between atoms: C_19  and  N_20 
REMARK    5  A    between atoms: C_21  and  C_22 
REMARK       I    between atoms: C_22  and  N_23 
REMARK    6  A    between atoms: N_23  and  C_24 
REMARK    7  A    between atoms: C_24  and  C_25 
REMARK    8  A    between atoms: C_25  and  C_26 
ROOT
HETATM    1  C   UNL     1      -1.355   2.482   1.306  1.00  0.00     0.002 A 
HETATM    2  C   UNL     1       0.032   2.567   1.444  1.00  0.00     0.034 A 
HETATM    3  C   UNL     1       0.880   1.608   0.899  1.00  0.00     0.086 A 
HETATM    4  C   UNL     1       0.314   0.513   0.192  1.00  0.00     0.088 A 
HETATM    5  N   UNL     1       1.058  -0.456  -0.365  1.00  0.00    -0.225 NA
HETATM    6  C   UNL     1       2.390  -0.258  -0.214  1.00  0.00     0.183 A 
HETATM    7  C   UNL     1       2.964   0.814   0.461  1.00  0.00     0.125 A 
HETATM    8  N   UNL     1       2.204   1.763   1.065  1.00  0.00    -0.242 NA
HETATM    9  N   UNL     1       3.414  -1.072  -0.666  1.00  0.00    -0.197 N 
HETATM   10  C   UNL     1       4.631  -0.470  -0.336  1.00  0.00     0.143 A 
HETATM   11  C   UNL     1       4.368   0.669   0.408  1.00  0.00     0.110 A 
HETATM   12  C   UNL     1      -1.068   0.441   0.066  1.00  0.00     0.034 A 
HETATM   13  C   UNL     1      -1.907   1.413   0.614  1.00  0.00     0.002 A 
ENDROOT
BRANCH  11  14
HETATM   14  C   UNL     1       5.399   1.415   1.094  1.00  0.00     0.257 C 
HETATM   15  N   UNL     1       5.252   1.391   2.468  1.00  0.00    -0.356 N 
HETATM   16  H   UNL     1       4.426   0.937   2.838  1.00  0.00     0.162 HD
HETATM   17  O   UNL     1       6.404   1.833   0.530  1.00  0.00    -0.267 OA
BRANCH  15  18
HETATM   18  C   UNL     1       6.432   1.441   3.312  1.00  0.00     0.127 C 
BRANCH  18  19
HETATM   19  C   UNL     1       7.226   0.112   3.264  1.00  0.00     0.053 C 
BRANCH  19  20
HETATM   20  C   UNL     1       8.716   0.124   2.957  1.00  0.00    -0.082 C 
HETATM   21  C   UNL     1       9.418  -1.193   3.234  1.00  0.00     0.034 C 
HETATM   22  C   UNL     1      10.946  -1.095   3.260  1.00  0.00     0.005 C 
HETATM   23  C   UNL     1      11.462  -0.262   2.096  1.00  0.00     0.004 C 
HETATM   24  C   UNL     1      10.866   1.143   2.124  1.00  0.00     0.027 C 
HETATM   25  C   UNL     1       9.400   1.168   2.453  1.00  0.00    -0.024 C 
ENDBRANCH  19  20
ENDBRANCH  18  19
ENDBRANCH  15  18
ENDBRANCH  11  14
BRANCH  10  26
HETATM   26  N   UNL     1       5.834  -1.043  -0.623  1.00  0.00    -0.383 N 
HETATM   27  H   UNL     1       5.912  -2.054  -0.714  1.00  0.00     0.157 HD
HETATM   28  H   UNL     1       6.689  -0.612  -0.261  1.00  0.00     0.157 HD
ENDBRANCH  10  26
BRANCH   9  29
HETATM   29  N   UNL     1       3.274  -2.366  -1.100  1.00  0.00    -0.176 NA
HETATM   30  C   UNL     1       3.924  -2.625  -2.189  1.00  0.00     0.150 C 
BRANCH  30  31
HETATM   31  C   UNL     1       4.187  -4.018  -2.600  1.00  0.00    -0.014 A 
HETATM   32  C   UNL     1       3.999  -5.058  -1.682  1.00  0.00     0.049 A 
HETATM   33  C   UNL     1       4.409  -6.341  -2.022  1.00  0.00     0.066 A 
HETATM   34  C   UNL     1       4.981  -6.601  -3.262  1.00  0.00     0.036 A 
HETATM   35  C   UNL     1       5.151  -5.564  -4.181  1.00  0.00     0.004 A 
HETATM   36  C   UNL     1       4.762  -4.265  -3.848  1.00  0.00     0.013 A 
BRANCH  33  37
HETATM   37  O   UNL     1       4.292  -7.378  -1.144  1.00  0.00    -0.361 OA
HETATM   38  H   UNL     1       3.892  -7.047  -0.322  1.00  0.00     0.217 HD
ENDBRANCH  33  37
ENDBRANCH  30  31
ENDBRANCH   9  29
TORSDOF 8
