REMARK  5 active torsions:
REMARK  status: ('A' for Active; 'I' for Inactive)
REMARK    1  A    between atoms: C_4  and  C_5 
REMARK    2  A    between atoms: C_10  and  C_11 
REMARK    3  A    between atoms: C_11  and  N_12 
REMARK    4  A    between atoms: N_12  and  C_14 
REMARK    5  A    between atoms: N_17  and  C_18 
ROOT
HETATM    1  N   UNL     1       7.227   0.316  -1.015  1.00  0.00    -0.067 N 
HETATM    2  H   UNL     1       7.068  -0.519  -0.429  1.00  0.00     0.280 HD
HETATM    3  C   UNL     1       8.608   0.145  -1.572  1.00  0.00     0.270 C 
ENDROOT
BRANCH   1   4
HETATM    4  C   UNL     1       7.205   1.441   0.020  1.00  0.00     0.277 C 
BRANCH   4   5
HETATM    5  C   UNL     1       6.005   1.433   0.886  1.00  0.00     0.016 A 
HETATM    6  C   UNL     1       5.676   0.561   1.917  1.00  0.00     0.069 A 
HETATM    7  N   UNL     1       4.458   0.997   2.387  1.00  0.00    -0.277 N 
HETATM    8  H   UNL     1       3.919   0.630   3.168  1.00  0.00     0.189 HD
HETATM    9  N   UNL     1       3.964   2.037   1.701  1.00  0.00    -0.186 NA
HETATM   10  C   UNL     1       4.919   2.336   0.828  1.00  0.00     0.149 A 
BRANCH   6  11
HETATM   11  C   UNL     1       6.381  -0.568   2.515  1.00  0.00    -0.007 A 
HETATM   12  C   UNL     1       5.723  -1.790   2.716  1.00  0.00     0.020 A 
HETATM   13  C   UNL     1       6.383  -2.870   3.319  1.00  0.00    -0.061 A 
HETATM   14  C   UNL     1       5.670  -4.172   3.549  1.00  0.00     0.048 C 
HETATM   15  C   UNL     1       7.727  -2.733   3.682  1.00  0.00     0.007 A 
HETATM   16  C   UNL     1       8.389  -1.522   3.488  1.00  0.00     0.001 A 
HETATM   17  C   UNL     1       7.716  -0.441   2.917  1.00  0.00     0.014 A 
ENDBRANCH   6  11
ENDBRANCH   4   5
ENDBRANCH   1   4
BRANCH   1  18
HETATM   18  C   UNL     1       6.052   0.326  -2.008  1.00  0.00     0.190 C 
HETATM   19  C   UNL     1       5.935   1.607  -2.841  1.00  0.00     0.048 C 
HETATM   20  C   UNL     1       6.667   1.568  -4.176  1.00  0.00     0.099 C 
HETATM   21  N   UNL     1       6.279   0.353  -4.897  1.00  0.00    -0.268 NA
HETATM   22  C   UNL     1       6.657  -0.891  -4.214  1.00  0.00     0.099 C 
HETATM   23  C   UNL     1       5.982  -0.962  -2.842  1.00  0.00     0.048 C 
BRANCH  21  24
HETATM   24  C   UNL     1       6.571   0.368  -6.273  1.00  0.00     0.109 A 
HETATM   25  N   UNL     1       7.329  -0.608  -6.806  1.00  0.00    -0.224 NA
HETATM   26  C   UNL     1       7.540  -0.598  -8.146  1.00  0.00     0.102 A 
HETATM   27  C   UNL     1       8.359  -1.694  -8.752  1.00  0.00     0.091 C 
HETATM   28  N   UNL     1       7.039   0.338  -8.962  1.00  0.00    -0.348 N 
HETATM   29  H   UNL     1       7.231   0.283  -9.961  1.00  0.00     0.167 HD
HETATM   30  C   UNL     1       6.281   1.326  -8.464  1.00  0.00     0.009 A 
HETATM   31  C   UNL     1       5.730   2.359  -9.393  1.00  0.00     0.068 C 
HETATM   32  C   UNL     1       6.025   1.352  -7.092  1.00  0.00     0.069 A 
ENDBRANCH  21  24
ENDBRANCH   1  18
TORSDOF 5
