REMARK  4 active torsions:
REMARK  status: ('A' for Active; 'I' for Inactive)
REMARK    1  A    between atoms: C_9  and  C_10 
REMARK    2  A    between atoms: C_17  and  C_18 
REMARK       I    between atoms: C_18  and  N_19 
REMARK    3  A    between atoms: N_19  and  C_20 
REMARK    4  A    between atoms: C_23  and  O_24 
ROOT
HETATM    1  C   UNL     1       0.875  -0.021  -1.024  1.00  0.00     0.070 C 
HETATM    2  C   UNL     1       2.287   0.063  -0.497  1.00  0.00     0.037 C 
HETATM    3  N   UNL     1       2.757   1.352  -0.256  1.00  0.00    -0.192 N 
HETATM    4  C   UNL     1       4.068   1.633  -0.108  1.00  0.00     0.725 A 
HETATM    5  N   UNL     1       4.961   0.606   0.031  1.00  0.00    -0.084 N 
HETATM    6  N   UNL     1       6.230   1.061   0.076  1.00  0.00    -0.149 NA
HETATM    7  C   UNL     1       6.020   2.380   0.001  1.00  0.00     0.275 A 
HETATM    8  N   UNL     1       4.710   2.772  -0.106  1.00  0.00    -0.054 NA
HETATM    9  C   UNL     1       4.578  -0.810   0.082  1.00  0.00     0.202 C 
HETATM   10  C   UNL     1       3.121  -0.997  -0.334  1.00  0.00     0.062 C 
HETATM   11  H   UNL     1       2.139   2.126  -0.490  1.00  0.00     0.184 HD
ENDROOT
BRANCH  10  12
HETATM   12  C   UNL     1       2.781  -2.400  -0.696  1.00  0.00     0.256 C 
HETATM   13  N   UNL     1       1.608  -2.861  -0.140  1.00  0.00    -0.323 N 
HETATM   14  H   UNL     1       1.130  -2.248   0.508  1.00  0.00     0.169 HD
HETATM   15  O   UNL     1       3.565  -3.026  -1.399  1.00  0.00    -0.267 OA
BRANCH  13  16
HETATM   16  C   UNL     1       0.966  -4.089  -0.414  1.00  0.00     0.035 A 
HETATM   17  C   UNL     1       1.473  -5.059  -1.279  1.00  0.00     0.032 A 
HETATM   18  C   UNL     1       0.758  -6.237  -1.521  1.00  0.00     0.039 A 
HETATM   19  C   UNL     1      -0.473  -6.469  -0.907  1.00  0.00     0.068 A 
HETATM   20  C   UNL     1      -0.988  -5.504  -0.045  1.00  0.00     0.039 A 
HETATM   21  C   UNL     1      -0.270  -4.324   0.202  1.00  0.00     0.032 A 
BRANCH  19  22
HETATM   22  O   UNL     1      -1.062  -7.657  -1.237  1.00  0.00    -0.356 OA
HETATM   23  C   UNL     1      -2.260  -7.995  -0.551  1.00  0.00     0.210 C 
ENDBRANCH  19  22
ENDBRANCH  13  16
ENDBRANCH  10  12
BRANCH   9  24
HETATM   24  C   UNL     1       4.855  -1.383   1.474  1.00  0.00    -0.028 A 
HETATM   25  C   UNL     1       4.397  -0.748   2.644  1.00  0.00     0.011 A 
HETATM   26  C   UNL     1       4.683  -1.281   3.903  1.00  0.00     0.024 A 
HETATM   27  C   UNL     1       5.416  -2.461   4.006  1.00  0.00     0.034 A 
HETATM   28 CL   UNL     1       5.776  -3.109   5.558  1.00  0.00    -0.084 Cl
HETATM   29  C   UNL     1       5.858  -3.116   2.860  1.00  0.00     0.024 A 
HETATM   30  C   UNL     1       5.576  -2.583   1.600  1.00  0.00     0.011 A 
ENDBRANCH   9  24
TORSDOF 4
