REMARK  2 active torsions:
REMARK  status: ('A' for Active; 'I' for Inactive)
REMARK    1  A    between atoms: C_5  and  O_6 
REMARK    2  A    between atoms: C_5  and  C_7 
ROOT
HETATM    1  C   UNL     1       1.191  -0.223   0.256  1.00  0.00     0.050 C 
HETATM    2  C   UNL     1       2.657  -0.067   0.009  1.00  0.00    -0.035 A 
HETATM    3  C   UNL     1       3.310   1.149   0.135  1.00  0.00     0.051 A 
HETATM    4  C   UNL     1       4.691   1.295  -0.070  1.00  0.00     0.018 A 
HETATM    5  C   UNL     1       5.076   2.739   0.117  1.00  0.00     0.198 A 
HETATM    6  C   UNL     1       3.699   3.387   0.479  1.00  0.00     0.266 A 
HETATM    7  O   UNL     1       3.466   4.575   0.660  1.00  0.00    -0.269 OA
HETATM    8  N   UNL     1       2.746   2.374   0.474  1.00  0.00    -0.323 N 
HETATM    9  C   UNL     1       5.466   0.201  -0.421  1.00  0.00     0.013 A 
HETATM   10  C   UNL     1       4.839  -1.042  -0.531  1.00  0.00     0.001 A 
HETATM   11  C   UNL     1       3.454  -1.175  -0.314  1.00  0.00     0.009 A 
HETATM   12  H   UNL     1       1.769   2.548   0.651  1.00  0.00     0.169 HD
ENDROOT
BRANCH   5  13
HETATM   13  O   UNL     1       5.567   3.247  -1.120  1.00  0.00    -0.371 OA
HETATM   14  H   UNL     1       5.551   4.214  -1.012  1.00  0.00     0.212 HD
ENDBRANCH   5  13
BRANCH   5  15
HETATM   15  C   UNL     1       6.074   2.881   1.243  1.00  0.00     0.018 A 
HETATM   16  C   UNL     1       6.166   2.176   2.504  1.00  0.00     0.002 A 
HETATM   17  C   UNL     1       7.249   2.710   3.210  1.00  0.00     0.043 A 
HETATM   18  C   UNL     1       5.440   1.133   3.124  1.00  0.00     0.014 A 
HETATM   19  C   UNL     1       7.640   2.257   4.476  1.00  0.00     0.030 A 
HETATM   20  N   UNL     1       7.791   3.703   2.435  1.00  0.00    -0.365 N 
HETATM   21  C   UNL     1       6.910   1.215   5.051  1.00  0.00     0.002 A 
HETATM   22  C   UNL     1       5.825   0.659   4.385  1.00  0.00     0.001 A 
HETATM   23  H   UNL     1       8.583   4.271   2.704  1.00  0.00     0.165 HD
HETATM   24  C   UNL     1       7.106   3.812   1.260  1.00  0.00     0.100 A 
ENDBRANCH   5  15
TORSDOF 2
