REMARK  7 active torsions:
REMARK  status: ('A' for Active; 'I' for Inactive)
REMARK    1  A    between atoms: C_5  and  N_6 
REMARK    2  A    between atoms: N_6  and  C_9 
REMARK    3  A    between atoms: C_9  and  C_10 
REMARK    4  A    between atoms: C_10  and  C_11 
REMARK    5  A    between atoms: C_10  and  C_13 
REMARK    6  A    between atoms: C_11  and  O_12 
REMARK    7  A    between atoms: C_13  and  C_14 
ROOT
HETATM    1  N   UNL     1       6.208   6.342   3.696  1.00  0.00    -0.066 N 
HETATM    2  H   UNL     1       7.089   6.827   3.451  1.00  0.00     0.278 HD
HETATM    3  H   UNL     1       6.056   6.531   4.706  1.00  0.00     0.278 HD
ENDROOT
BRANCH   1   4
HETATM    4  C   UNL     1       5.067   6.903   2.937  1.00  0.00     0.220 C 
HETATM    5  C   UNL     1       4.545   8.161   3.557  1.00  0.00    -0.021 A 
HETATM    6  C   UNL     1       4.911   9.296   2.819  1.00  0.00    -0.040 A 
HETATM    7  C   UNL     1       3.802   8.268   4.725  1.00  0.00     0.010 A 
HETATM    8  C   UNL     1       4.518  10.569   3.227  1.00  0.00    -0.055 A 
HETATM    9  C   UNL     1       5.734   8.912   1.619  1.00  0.00     0.018 C 
HETATM   10  C   UNL     1       4.898  11.812   2.478  1.00  0.00     0.049 C 
HETATM   11  C   UNL     1       3.778  10.674   4.415  1.00  0.00     0.007 A 
HETATM   12  C   UNL     1       3.421   9.538   5.153  1.00  0.00     0.001 A 
HETATM   13  C   UNL     1       5.499   7.384   1.542  1.00  0.00     0.047 C 
HETATM   14  C   UNL     1       7.204   9.279   1.780  1.00  0.00     0.015 C 
ENDBRANCH   1   4
BRANCH   1  15
HETATM   15  C   UNL     1       6.442   4.877   3.564  1.00  0.00     0.240 C 
BRANCH  15  16
HETATM   16  C   UNL     1       7.348   4.361   4.701  1.00  0.00     0.040 C 
BRANCH  16  17
HETATM   17  C   UNL     1       6.568   4.343   6.025  1.00  0.00     0.170 C 
BRANCH  17  18
HETATM   18  O   UNL     1       6.033   5.645   6.273  1.00  0.00    -0.400 OA
HETATM   19  H   UNL     1       5.714   5.638   7.200  1.00  0.00     0.209 HD
ENDBRANCH  17  18
ENDBRANCH  16  17
BRANCH  16  20
HETATM   20  C   UNL     1       8.653   5.164   4.896  1.00  0.00     0.067 C 
BRANCH  20  21
HETATM   21  C   UNL     1       9.447   5.335   3.629  1.00  0.00     0.034 A 
HETATM   22  N   UNL     1       8.939   6.203   2.713  1.00  0.00    -0.266 NA
HETATM   23  C   UNL     1       9.661   6.370   1.576  1.00  0.00     0.117 A 
HETATM   24  C   UNL     1      10.848   5.711   1.304  1.00  0.00     0.019 A 
HETATM   25  C   UNL     1      11.338   4.825   2.252  1.00  0.00     0.003 A 
HETATM   26  C   UNL     1      10.631   4.630   3.434  1.00  0.00     0.027 A 
ENDBRANCH  20  21
ENDBRANCH  16  20
ENDBRANCH  15  16
ENDBRANCH   1  15
TORSDOF 7
