REMARK  8 active torsions:
REMARK  status: ('A' for Active; 'I' for Inactive)
REMARK    1  A    between atoms: C_4  and  S_5 
REMARK    2  A    between atoms: S_5  and  C_6 
REMARK    3  A    between atoms: C_6  and  C_7 
REMARK       I    between atoms: C_7  and  N_8 
REMARK    4  A    between atoms: N_8  and  C_9 
REMARK    5  A    between atoms: C_20  and  C_21 
REMARK    6  A    between atoms: C_27  and  C_28 
REMARK       I    between atoms: C_28  and  N_29 
REMARK    7  A    between atoms: N_29  and  C_30 
REMARK    8  A    between atoms: C_31  and  O_32 
ROOT
HETATM    1  C   UNL     1       1.086  -0.586  -0.616  1.00  0.00     0.069 C 
HETATM    2  C   UNL     1       2.513  -0.356  -0.188  1.00  0.00     0.019 C 
HETATM    3  N   UNL     1       3.091   0.825  -0.596  1.00  0.00    -0.353 N 
HETATM    4  C   UNL     1       4.391   1.215  -0.335  1.00  0.00     0.088 C 
HETATM    5  C   UNL     1       5.169   0.463   0.486  1.00  0.00     0.069 C 
HETATM    6  C   UNL     1       6.494   0.856   0.855  1.00  0.00     0.099 C 
HETATM    7  N   UNL     1       7.571   1.186   1.136  1.00  0.00    -0.192 NA
HETATM    8  C   UNL     1       4.681  -0.919   0.952  1.00  0.00     0.106 C 
HETATM    9  C   UNL     1       3.255  -1.228   0.526  1.00  0.00     0.046 C 
HETATM   10  H   UNL     1       2.532   1.484  -1.130  1.00  0.00     0.166 HD
ENDROOT
BRANCH   4  11
HETATM   11  S   UNL     1       4.959   2.669  -1.135  1.00  0.00    -0.102 SA
BRANCH  11  12
HETATM   12  C   UNL     1       6.267   2.068  -2.251  1.00  0.00     0.184 C 
BRANCH  12  13
HETATM   13  C   UNL     1       6.143   0.609  -2.672  1.00  0.00     0.231 C 
HETATM   14  N   UNL     1       5.529   0.415  -3.895  1.00  0.00    -0.325 N 
HETATM   15  H   UNL     1       5.091   1.215  -4.342  1.00  0.00     0.169 HD
HETATM   16  O   UNL     1       6.580  -0.293  -1.959  1.00  0.00    -0.272 OA
BRANCH  14  17
HETATM   17  C   UNL     1       5.426  -0.806  -4.615  1.00  0.00     0.056 A 
HETATM   18  C   UNL     1       4.712  -0.817  -5.828  1.00  0.00     0.060 A 
HETATM   19 CL   UNL     1       3.940   0.616  -6.418  1.00  0.00    -0.082 Cl
HETATM   20  C   UNL     1       4.609  -1.983  -6.595  1.00  0.00     0.026 A 
HETATM   21  C   UNL     1       5.220  -3.158  -6.161  1.00  0.00     0.002 A 
HETATM   22  C   UNL     1       5.929  -3.164  -4.965  1.00  0.00     0.002 A 
HETATM   23  C   UNL     1       6.032  -1.997  -4.198  1.00  0.00     0.031 A 
ENDBRANCH  14  17
ENDBRANCH  12  13
ENDBRANCH  11  12
ENDBRANCH   4  11
BRANCH   8  24
HETATM   24  C   UNL     1       4.930  -1.153   2.440  1.00  0.00    -0.044 A 
HETATM   25  C   UNL     1       4.115  -0.583   3.429  1.00  0.00     0.008 A 
HETATM   26  C   UNL     1       4.386  -0.804   4.781  1.00  0.00     0.001 A 
HETATM   27  C   UNL     1       5.476  -1.585   5.162  1.00  0.00     0.000 A 
HETATM   28  C   UNL     1       6.300  -2.149   4.191  1.00  0.00     0.001 A 
HETATM   29  C   UNL     1       6.029  -1.935   2.840  1.00  0.00     0.008 A 
ENDBRANCH   8  24
BRANCH   9  30
HETATM   30  C   UNL     1       2.731  -2.597   0.761  1.00  0.00     0.255 C 
HETATM   31  N   UNL     1       3.097  -3.421  -0.286  1.00  0.00    -0.321 N 
HETATM   32  H   UNL     1       3.568  -2.959  -1.055  1.00  0.00     0.169 HD
HETATM   33  O   UNL     1       1.971  -2.803   1.693  1.00  0.00    -0.268 OA
BRANCH  31  34
HETATM   34  C   UNL     1       2.733  -4.764  -0.533  1.00  0.00     0.068 A 
HETATM   35  C   UNL     1       2.265  -5.690   0.409  1.00  0.00     0.095 A 
HETATM   36  C   UNL     1       1.936  -6.995   0.009  1.00  0.00     0.039 A 
HETATM   37  C   UNL     1       2.052  -7.381  -1.325  1.00  0.00     0.003 A 
HETATM   38  C   UNL     1       2.529  -6.476  -2.265  1.00  0.00     0.002 A 
HETATM   39  C   UNL     1       2.877  -5.183  -1.869  1.00  0.00     0.032 A 
BRANCH  35  40
HETATM   40  O   UNL     1       2.282  -5.404   1.747  1.00  0.00    -0.354 OA
HETATM   41  C   UNL     1       0.984  -5.503   2.333  1.00  0.00     0.210 C 
ENDBRANCH  35  40
ENDBRANCH  31  34
ENDBRANCH   9  30
TORSDOF 8
