REMARK  8 active torsions:
REMARK  status: ('A' for Active; 'I' for Inactive)
REMARK    1  A    between atoms: C_2  and  C_3 
REMARK    2  A    between atoms: C_3  and  N_4 
REMARK    3  A    between atoms: C_3  and  C_19 
REMARK       I    between atoms: C_19  and  N_20 
REMARK    4  A    between atoms: N_20  and  C_21 
REMARK    5  A    between atoms: C_21  and  C_22 
REMARK    6  A    between atoms: C_22  and  C_23 
REMARK    7  A    between atoms: C_23  and  O_24 
REMARK    8  A    between atoms: O_24  and  C_25 
ROOT
HETATM    1  N   UNL     1       2.781   2.336  -1.021  1.00  0.00    -0.220 N 
HETATM    2  N   UNL     1       3.534   3.394  -1.555  1.00  0.00    -0.172 NA
HETATM    3  C   UNL     1       3.158   4.624  -1.337  1.00  0.00     0.069 A 
HETATM    4  C   UNL     1       3.998   5.738  -1.903  1.00  0.00     0.074 C 
HETATM    5  C   UNL     1       1.973   4.897  -0.572  1.00  0.00     0.048 A 
HETATM    6  C   UNL     1       1.187   3.892  -0.069  1.00  0.00     0.064 A 
HETATM    7  C   UNL     1       1.570   2.507  -0.309  1.00  0.00     0.277 A 
HETATM    8  O   UNL     1       0.879   1.570   0.081  1.00  0.00    -0.266 OA
HETATM    9  S   UNL     1       1.398   6.440  -0.201  1.00  0.00    -0.086 SA
HETATM   10  C   UNL     1       0.043   5.805   0.653  1.00  0.00     0.017 A 
HETATM   11  C   UNL     1       0.045   4.404   0.647  1.00  0.00    -0.002 A 
HETATM   12  C   UNL     1      -0.971   6.543   1.296  1.00  0.00     0.020 A 
HETATM   13  C   UNL     1      -2.002   5.859   1.940  1.00  0.00     0.001 A 
HETATM   14  C   UNL     1      -2.029   4.472   1.948  1.00  0.00     0.001 A 
HETATM   15  C   UNL     1      -1.020   3.744   1.312  1.00  0.00     0.014 A 
ENDROOT
BRANCH   1  16
HETATM   16  C   UNL     1       3.202   0.951  -1.337  1.00  0.00     0.205 C 
BRANCH  16  17
HETATM   17  C   UNL     1       2.646   0.472  -2.691  1.00  0.00     0.032 C 
HETATM   18  C   UNL     1       3.195   1.205  -3.907  1.00  0.00     0.007 C 
ENDBRANCH  16  17
BRANCH  16  19
HETATM   19  C   UNL     1       4.706   0.617  -1.210  1.00  0.00     0.242 C 
HETATM   20  N   UNL     1       5.567   1.675  -1.360  1.00  0.00    -0.359 N 
HETATM   21  H   UNL     1       5.133   2.585  -1.503  1.00  0.00     0.162 HD
HETATM   22  O   UNL     1       5.099  -0.544  -1.104  1.00  0.00    -0.271 OA
BRANCH  20  23
HETATM   23  C   UNL     1       7.009   1.553  -1.324  1.00  0.00     0.125 C 
BRANCH  23  24
HETATM   24  C   UNL     1       7.572   1.020  -2.639  1.00  0.00     0.046 C 
BRANCH  24  25
HETATM   25  C   UNL     1       9.093   1.128  -2.690  1.00  0.00     0.169 C 
BRANCH  25  26
HETATM   26  O   UNL     1       9.651   0.472  -1.556  1.00  0.00    -0.387 OA
BRANCH  26  27
HETATM   27  C   UNL     1      11.079   0.400  -1.564  1.00  0.00     0.113 C 
HETATM   28  C   UNL     1      11.699   1.753  -1.230  1.00  0.00     0.039 C 
HETATM   29  C   UNL     1      11.471  -0.633  -0.512  1.00  0.00     0.039 C 
ENDBRANCH  26  27
ENDBRANCH  25  26
ENDBRANCH  24  25
ENDBRANCH  23  24
ENDBRANCH  20  23
ENDBRANCH  16  19
ENDBRANCH   1  16
TORSDOF 8
