REMARK  6 active torsions:
REMARK  status: ('A' for Active; 'I' for Inactive)
REMARK    1  A    between atoms: C_6  and  C_7 
REMARK    2  A    between atoms: C_7  and  N_8 
REMARK    3  A    between atoms: C_7  and  C_24 
REMARK       I    between atoms: N_8  and  C_9 
REMARK       I    between atoms: C_9  and  N_10 
REMARK    4  A    between atoms: N_10  and  C_11 
REMARK    5  A    between atoms: C_14  and  C_15 
REMARK    6  A    between atoms: C_24  and  O_25 
ROOT
HETATM    1  N   UNL     1       4.925  -4.606   2.071  1.00  0.00    -0.331 N 
HETATM    2  C   UNL     1       4.527  -3.628   1.186  1.00  0.00     0.321 C 
HETATM    3  N   UNL     1       5.540  -3.337   0.301  1.00  0.00    -0.309 N 
HETATM    4  O   UNL     1       3.415  -3.122   1.226  1.00  0.00    -0.247 OA
HETATM    5  H   UNL     1       5.653  -5.228   1.756  1.00  0.00     0.165 HD
HETATM    6  H   UNL     1       6.462  -3.633   0.586  1.00  0.00     0.170 HD
ENDROOT
BRANCH   1   7
HETATM    7  C   UNL     1       4.007  -5.135   3.067  1.00  0.00     0.161 C 
BRANCH   7   8
HETATM    8  C   UNL     1       4.863  -5.926   4.014  1.00  0.00     0.056 A 
HETATM    9  N   UNL     1       5.254  -5.462   5.248  1.00  0.00    -0.277 N 
HETATM   10  C   UNL     1       4.935  -4.189   5.853  1.00  0.00     0.179 C 
HETATM   11  N   UNL     1       6.044  -6.325   5.917  1.00  0.00    -0.185 NA
HETATM   12  C   UNL     1       6.130  -7.378   5.107  1.00  0.00     0.141 A 
HETATM   13  C   UNL     1       5.425  -7.186   3.908  1.00  0.00     0.050 A 
ENDBRANCH   7   8
BRANCH   7  14
HETATM   14  C   UNL     1       2.871  -5.983   2.448  1.00  0.00     0.198 C 
BRANCH  14  15
HETATM   15  O   UNL     1       1.938  -6.378   3.462  1.00  0.00    -0.394 OA
HETATM   16  C   UNL     1       0.867  -7.137   2.917  1.00  0.00     0.201 C 
ENDBRANCH  14  15
ENDBRANCH   7  14
ENDBRANCH   1   7
BRANCH   3  17
HETATM   17  C   UNL     1       5.468  -2.531  -0.851  1.00  0.00     0.036 A 
HETATM   18  C   UNL     1       4.280  -2.033  -1.377  1.00  0.00     0.030 A 
HETATM   19  C   UNL     1       4.290  -1.271  -2.552  1.00  0.00     0.010 A 
HETATM   20  C   UNL     1       5.486  -0.971  -3.230  1.00  0.00    -0.054 A 
HETATM   21  C   UNL     1       6.669  -1.497  -2.699  1.00  0.00     0.010 A 
HETATM   22  C   UNL     1       6.661  -2.262  -1.525  1.00  0.00     0.030 A 
BRANCH  20  23
HETATM   23  C   UNL     1       5.421  -0.158  -4.523  1.00  0.00     0.018 C 
HETATM   24  C   UNL     1       4.739   1.215  -4.331  1.00  0.00     0.009 C 
HETATM   25  C   UNL     1       5.658   2.243  -3.675  1.00  0.00     0.001 C 
HETATM   26  C   UNL     1       6.936   2.432  -4.483  1.00  0.00     0.000 C 
HETATM   27  C   UNL     1       7.662   1.110  -4.697  1.00  0.00     0.001 C 
HETATM   28  C   UNL     1       6.747   0.036  -5.293  1.00  0.00     0.009 C 
ENDBRANCH  20  23
ENDBRANCH   3  17
TORSDOF 6
