REMARK  6 active torsions:
REMARK  status: ('A' for Active; 'I' for Inactive)
REMARK    1  A    between atoms: C_4  and  C_5 
REMARK    2  A    between atoms: C_6  and  O_7 
REMARK    3  A    between atoms: O_7  and  C_8 
REMARK    4  A    between atoms: C_8  and  C_9 
REMARK       I    between atoms: C_9  and  N_10 
REMARK    5  A    between atoms: N_10  and  N_11 
REMARK       I    between atoms: N_11  and  C_12 
REMARK    6  A    between atoms: C_12  and  C_13 
ROOT
HETATM    1  C   UNL     1       2.689   4.921  -0.843  1.00  0.00     0.260 C 
HETATM    2  N   UNL     1       1.984   5.452   0.211  1.00  0.00    -0.265 N 
HETATM    3  O   UNL     1       2.675   5.484  -1.939  1.00  0.00    -0.269 OA
HETATM    4  H   UNL     1       1.606   6.386   0.046  1.00  0.00     0.190 HD
ENDROOT
BRANCH   1   5
HETATM    5  C   UNL     1       3.450   3.616  -0.617  1.00  0.00     0.280 C 
BRANCH   5   6
HETATM    6  O   UNL     1       2.584   2.510  -0.367  1.00  0.00    -0.341 OA
BRANCH   6   7
HETATM    7  C   UNL     1       2.425   1.676  -1.449  1.00  0.00     0.080 A 
HETATM    8  C   UNL     1       2.589   0.287  -1.261  1.00  0.00     0.007 A 
HETATM    9  C   UNL     1       2.392  -0.556  -2.375  1.00  0.00     0.015 A 
HETATM   10  C   UNL     1       2.022  -0.046  -3.620  1.00  0.00     0.001 A 
HETATM   11  C   UNL     1       1.830   1.321  -3.777  1.00  0.00     0.003 A 
HETATM   12  C   UNL     1       2.022   2.179  -2.695  1.00  0.00     0.037 A 
BRANCH   8  13
HETATM   13  C   UNL     1       2.966  -0.312   0.034  1.00  0.00    -0.023 A 
HETATM   14  C   UNL     1       2.159  -1.299   0.628  1.00  0.00     0.012 A 
HETATM   15  C   UNL     1       2.525  -1.901   1.834  1.00  0.00     0.001 A 
HETATM   16  C   UNL     1       3.705  -1.526   2.470  1.00  0.00     0.000 A 
HETATM   17  C   UNL     1       4.518  -0.549   1.900  1.00  0.00     0.001 A 
HETATM   18  C   UNL     1       4.152   0.050   0.691  1.00  0.00     0.012 A 
ENDBRANCH   8  13
ENDBRANCH   6   7
ENDBRANCH   5   6
ENDBRANCH   1   5
BRANCH   2  19
HETATM   19  N   UNL     1       2.317   5.166   1.540  1.00  0.00    -0.262 N 
HETATM   20  C   UNL     1       2.381   6.218   2.442  1.00  0.00     0.291 C 
HETATM   21  O   UNL     1       2.289   7.394   2.093  1.00  0.00    -0.264 OA
HETATM   22  H   UNL     1       2.204   4.219   1.904  1.00  0.00     0.190 HD
BRANCH  20  23
HETATM   23  C   UNL     1       2.547   5.790   3.836  1.00  0.00     0.158 A 
HETATM   24  N   UNL     1       2.648   4.484   4.166  1.00  0.00    -0.168 NA
HETATM   25  N   UNL     1       2.788   4.502   5.505  1.00  0.00    -0.277 N 
HETATM   26  H   UNL     1       2.888   3.617   5.990  1.00  0.00     0.189 HD
HETATM   27  C   UNL     1       2.775   5.752   6.060  1.00  0.00     0.063 A 
HETATM   28  C   UNL     1       2.617   6.625   4.990  1.00  0.00     0.028 A 
HETATM   29  C   UNL     1       2.886   6.180   7.387  1.00  0.00     0.032 A 
HETATM   30  C   UNL     1       2.563   8.010   5.247  1.00  0.00     0.016 A 
HETATM   31  C   UNL     1       2.669   8.461   6.568  1.00  0.00     0.001 A 
HETATM   32  C   UNL     1       2.829   7.559   7.619  1.00  0.00     0.002 A 
ENDBRANCH  20  23
ENDBRANCH   2  19
TORSDOF 6
