REMARK  7 active torsions:
REMARK  status: ('A' for Active; 'I' for Inactive)
REMARK    1  A    between atoms: C_2  and  O_3 
REMARK    2  A    between atoms: O_3  and  C_4 
REMARK    3  A    between atoms: C_5  and  N_6 
REMARK    4  A    between atoms: N_9  and  C_11 
REMARK    5  A    between atoms: C_11  and  C_12 
REMARK       I    between atoms: C_12  and  N_13 
REMARK    6  A    between atoms: N_13  and  C_14 
REMARK    7  A    between atoms: C_15  and  C_16 
ROOT
HETATM    1  C   UNL     1       3.074   7.805   1.727  1.00  0.00     0.275 C 
HETATM    2  C   UNL     1       2.386   9.007   2.362  1.00  0.00     0.050 C 
ENDROOT
BRANCH   1   3
HETATM    3  N   UNL     1       4.426   7.520   2.413  1.00  0.00    -0.056 N 
HETATM    4  C   UNL     1       5.416   8.693   2.424  1.00  0.00     0.255 C 
HETATM    5  C   UNL     1       6.788   8.205   2.936  1.00  0.00     0.150 C 
HETATM    6  N   UNL     1       6.654   7.595   4.271  1.00  0.00    -0.375 N 
HETATM    7  C   UNL     1       5.703   6.464   4.325  1.00  0.00     0.150 C 
HETATM    8  C   UNL     1       4.315   6.881   3.790  1.00  0.00     0.255 C 
HETATM    9  H   UNL     1       4.875   6.831   1.787  1.00  0.00     0.281 HD
BRANCH   6  10
HETATM   10  C   UNL     1       6.873   8.351   5.434  1.00  0.00     0.064 A 
HETATM   11  C   UNL     1       7.154   7.752   6.695  1.00  0.00     0.095 A 
HETATM   12  C   UNL     1       7.385   8.547   7.831  1.00  0.00     0.039 A 
HETATM   13  C   UNL     1       7.349   9.936   7.751  1.00  0.00     0.003 A 
HETATM   14  C   UNL     1       7.097  10.544   6.532  1.00  0.00     0.002 A 
HETATM   15  C   UNL     1       6.872   9.762   5.396  1.00  0.00     0.032 A 
BRANCH  11  16
HETATM   16  O   UNL     1       7.256   6.379   6.726  1.00  0.00    -0.349 OA
BRANCH  16  17
HETATM   17  C   UNL     1       7.324   5.742   8.001  1.00  0.00     0.171 C 
HETATM   18  C   UNL     1       7.173   4.247   7.785  1.00  0.00     0.034 C 
ENDBRANCH  16  17
ENDBRANCH  11  16
ENDBRANCH   6  10
ENDBRANCH   1   3
BRANCH   1  19
HETATM   19  C   UNL     1       3.289   7.969   0.200  1.00  0.00     0.253 C 
HETATM   20  N   UNL     1       2.183   8.375  -0.511  1.00  0.00    -0.325 N 
HETATM   21  H   UNL     1       1.266   8.275  -0.087  1.00  0.00     0.169 HD
HETATM   22  O   UNL     1       4.395   7.694  -0.265  1.00  0.00    -0.271 OA
BRANCH  20  23
HETATM   23  C   UNL     1       2.162   8.866  -1.844  1.00  0.00     0.045 A 
HETATM   24  C   UNL     1       0.910   9.033  -2.488  1.00  0.00     0.001 A 
HETATM   25  C   UNL     1       0.879   9.612  -3.771  1.00  0.00     0.014 A 
HETATM   26  C   UNL     1       2.052  10.013  -4.409  1.00  0.00     0.001 A 
HETATM   27  C   UNL     1       3.276   9.833  -3.778  1.00  0.00     0.002 A 
HETATM   28  C   UNL     1       3.333   9.263  -2.504  1.00  0.00     0.030 A 
BRANCH  24  29
HETATM   29  C   UNL     1      -0.359   8.590  -1.886  1.00  0.00    -0.024 A 
HETATM   30  C   UNL     1      -1.310   9.519  -1.439  1.00  0.00     0.012 A 
HETATM   31  C   UNL     1      -2.513   9.091  -0.872  1.00  0.00     0.001 A 
HETATM   32  C   UNL     1      -2.780   7.729  -0.745  1.00  0.00     0.000 A 
HETATM   33  C   UNL     1      -1.848   6.793  -1.188  1.00  0.00     0.001 A 
HETATM   34  C   UNL     1      -0.647   7.221  -1.757  1.00  0.00     0.012 A 
ENDBRANCH  24  29
ENDBRANCH  20  23
ENDBRANCH   1  19
TORSDOF 7
