REMARK  6 active torsions:
REMARK  status: ('A' for Active; 'I' for Inactive)
REMARK    1  A    between atoms: C_3  and  N_4 
REMARK    2  A    between atoms: N_4  and  C_5 
REMARK    3  A    between atoms: C_5  and  C_6 
REMARK    4  A    between atoms: N_8  and  C_10 
REMARK    5  A    between atoms: C_10  and  C_11 
REMARK    6  A    between atoms: C_12  and  O_13 
ROOT
HETATM    1  C   UNL     1       4.991  -0.502  -0.440  1.00  0.00     0.026 C 
HETATM    2  C   UNL     1       6.024  -1.543  -0.023  1.00  0.00     0.241 C 
HETATM    3  N   UNL     1       7.270  -0.733   0.244  1.00  0.00    -0.067 N 
HETATM    4  H   UNL     1       7.685  -1.060   1.138  1.00  0.00     0.280 HD
HETATM    5  C   UNL     1       6.867   0.714   0.402  1.00  0.00     0.235 C 
HETATM    6  C   UNL     1       5.348   0.674   0.466  1.00  0.00     0.035 C 
ENDROOT
BRANCH   3   7
HETATM    7  C   UNL     1       8.398  -0.942  -0.739  1.00  0.00     0.276 C 
BRANCH   7   8
HETATM    8  C   UNL     1       8.966  -2.334  -0.702  1.00  0.00     0.002 A 
HETATM    9  C   UNL     1       9.375  -2.920   0.504  1.00  0.00     0.073 A 
HETATM   10  C   UNL     1       9.928  -4.198   0.540  1.00  0.00     0.038 A 
HETATM   11  C   UNL     1      10.078  -4.915  -0.647  1.00  0.00     0.022 A 
HETATM   12  C   UNL     1       9.680  -4.346  -1.855  1.00  0.00     0.011 A 
HETATM   13 BR   UNL     1       9.873  -5.320  -3.462  1.00  0.00    -0.051 Br
HETATM   14  C   UNL     1       9.134  -3.062  -1.890  1.00  0.00     0.030 A 
BRANCH   9  15
HETATM   15  O   UNL     1       9.193  -2.211   1.662  1.00  0.00    -0.360 OA
HETATM   16  H   UNL     1       9.732  -2.643   2.359  1.00  0.00     0.217 HD
ENDBRANCH   9  15
ENDBRANCH   7   8
ENDBRANCH   3   7
BRANCH   1  17
HETATM   17  C   UNL     1       3.543  -0.992  -0.304  1.00  0.00     0.100 C 
BRANCH  17  18
HETATM   18  N   UNL     1       2.638   0.006  -0.867  1.00  0.00    -0.279 NA
HETATM   19  H   UNL     1       2.943   0.338  -1.787  1.00  0.00     0.129 HD
BRANCH  18  20
HETATM   20  C   UNL     1       1.251  -0.148  -0.879  1.00  0.00     0.079 A 
HETATM   21  C   UNL     1       0.465   0.768  -1.595  1.00  0.00     0.042 A 
HETATM   22  C   UNL     1      -0.924   0.661  -1.594  1.00  0.00     0.005 A 
HETATM   23  C   UNL     1      -1.527  -0.346  -0.856  1.00  0.00     0.017 A 
HETATM   24  C   UNL     1      -0.726  -1.211  -0.128  1.00  0.00     0.089 A 
HETATM   25  N   UNL     1       0.612  -1.082  -0.154  1.00  0.00    -0.357 N 
HETATM   26  H   UNL     1       1.158  -1.716   0.416  1.00  0.00     0.166 HD
ENDBRANCH  18  20
ENDBRANCH  17  18
ENDBRANCH   1  17
TORSDOF 6
