REMARK  3 active torsions:
REMARK  status: ('A' for Active; 'I' for Inactive)
REMARK    1  A    between atoms: C_3  and  C_4 
REMARK    2  A    between atoms: C_8  and  C_9 
REMARK       I    between atoms: C_9  and  N_10 
REMARK    3  A    between atoms: N_10  and  C_11 
ROOT
HETATM    1  C   UNL     1       1.724   2.222   0.198  1.00  0.00     0.064 A 
HETATM    2  N   UNL     1       1.187   3.483   0.175  1.00  0.00    -0.277 N 
HETATM    3  H   UNL     1       0.225   3.741   0.376  1.00  0.00     0.189 HD
HETATM    4  N   UNL     1       2.050   4.454  -0.179  1.00  0.00    -0.169 NA
HETATM    5  C   UNL     1       3.202   3.792  -0.409  1.00  0.00     0.147 A 
HETATM    6  C   UNL     1       3.044   2.405  -0.167  1.00  0.00     0.071 A 
ENDROOT
BRANCH   5   7
HETATM    7  C   UNL     1       4.425   4.478  -0.864  1.00  0.00     0.276 C 
HETATM    8  N   UNL     1       4.224   5.835  -1.022  1.00  0.00    -0.322 N 
HETATM    9  H   UNL     1       3.283   6.133  -0.771  1.00  0.00     0.169 HD
HETATM   10  O   UNL     1       5.465   3.861  -1.068  1.00  0.00    -0.266 OA
BRANCH   8  11
HETATM   11  C   UNL     1       5.123   6.804  -1.495  1.00  0.00     0.035 A 
HETATM   12  C   UNL     1       6.421   6.510  -1.923  1.00  0.00     0.039 A 
HETATM   13  C   UNL     1       7.217   7.544  -2.393  1.00  0.00    -0.024 A 
HETATM   14  C   UNL     1       6.755   8.848  -2.446  1.00  0.00    -0.026 A 
HETATM   15  C   UNL     1       8.599   7.490  -2.930  1.00  0.00     0.207 C 
HETATM   16  C   UNL     1       7.809   9.719  -3.020  1.00  0.00     0.207 C 
HETATM   17  C   UNL     1       5.476   9.167  -2.029  1.00  0.00     0.012 A 
HETATM   18  O   UNL     1       8.981   8.875  -3.107  1.00  0.00    -0.382 OA
HETATM   19  C   UNL     1       4.661   8.135  -1.550  1.00  0.00     0.030 A 
ENDBRANCH   8  11
ENDBRANCH   5   7
BRANCH   1  20
HETATM   20  C   UNL     1       0.985   1.007   0.565  1.00  0.00     0.014 A 
HETATM   21  C   UNL     1       1.671   0.005   1.276  1.00  0.00     0.015 A 
HETATM   22  C   UNL     1       1.039  -1.183   1.652  1.00  0.00     0.001 A 
HETATM   23  C   UNL     1      -0.294  -1.397   1.320  1.00  0.00     0.002 A 
HETATM   24  C   UNL     1      -0.996  -0.421   0.616  1.00  0.00     0.025 A 
HETATM   25  C   UNL     1      -0.366   0.773   0.239  1.00  0.00     0.046 A 
HETATM   26 CL   UNL     1      -1.326   1.904  -0.656  1.00  0.00    -0.083 Cl
ENDBRANCH   1  20
TORSDOF 3
