REMARK  10 active torsions:
REMARK  status: ('A' for Active; 'I' for Inactive)
REMARK    1  A    between atoms: C_2  and  N_3 
REMARK    2  A    between atoms: N_3  and  C_4 
REMARK    3  A    between atoms: N_3  and  C_37 
REMARK    4  A    between atoms: C_7  and  C_8 
REMARK    5  A    between atoms: N_9  and  C_11 
REMARK    6  A    between atoms: C_11  and  C_12 
REMARK       I    between atoms: C_12  and  N_13 
REMARK    7  A    between atoms: N_13  and  C_14 
REMARK    8  A    between atoms: C_20  and  C_21 
REMARK    9  A    between atoms: C_21  and  O_22 
REMARK   10  A    between atoms: C_28  and  O_29 
ROOT
HETATM    1  C   UNL     1       0.327  -1.233  -0.186  1.00  0.00     0.228 C 
HETATM    2  N   UNL     1      -0.233  -0.590   1.077  1.00  0.00    -0.054 N 
HETATM    3  H   UNL     1      -0.653   0.302   0.761  1.00  0.00     0.281 HD
HETATM    4  C   UNL     1      -1.408  -1.346   1.647  1.00  0.00     0.239 C 
HETATM    5  C   UNL     1      -1.019  -2.782   1.957  1.00  0.00     0.066 C 
HETATM    6  C   UNL     1      -0.503  -3.483   0.703  1.00  0.00     0.065 C 
HETATM    7  C   UNL     1       0.700  -2.716   0.095  1.00  0.00     0.055 C 
HETATM    8  C   UNL     1      -0.116  -4.941   1.009  1.00  0.00     0.038 C 
HETATM    9  C   UNL     1       0.399  -5.668  -0.232  1.00  0.00     0.003 C 
HETATM   10  C   UNL     1       1.537  -4.906  -0.898  1.00  0.00     0.001 C 
HETATM   11  C   UNL     1       1.165  -3.452  -1.186  1.00  0.00     0.010 C 
ENDROOT
BRANCH   2  12
HETATM   12  C   UNL     1       0.759  -0.095   2.142  1.00  0.00     0.338 C 
BRANCH  12  13
HETATM   13  C   UNL     1       0.062   0.941   3.035  1.00  0.00     0.248 C 
HETATM   14  N   UNL     1       0.554   1.017   4.319  1.00  0.00    -0.319 N 
HETATM   15  H   UNL     1       1.536   0.797   4.496  1.00  0.00     0.169 HD
HETATM   16  O   UNL     1      -0.886   1.563   2.555  1.00  0.00    -0.271 OA
BRANCH  14  17
HETATM   17  C   UNL     1      -0.112   1.583   5.402  1.00  0.00     0.094 A 
HETATM   18  S   UNL     1      -1.794   1.776   5.364  1.00  0.00    -0.076 SA
HETATM   19  C   UNL     1      -1.846   2.366   6.960  1.00  0.00    -0.012 A 
HETATM   20  C   UNL     1      -3.167   2.738   7.559  1.00  0.00     0.057 C 
HETATM   21  C   UNL     1      -0.585   2.429   7.538  1.00  0.00    -0.030 A 
HETATM   22  C   UNL     1      -0.334   2.918   8.934  1.00  0.00     0.050 C 
HETATM   23  C   UNL     1       0.444   1.949   6.621  1.00  0.00     0.080 A 
BRANCH  23  24
HETATM   24  C   UNL     1       1.890   1.837   6.854  1.00  0.00     0.296 C 
HETATM   25  O   UNL     1       2.638   1.302   6.037  1.00  0.00    -0.259 OA
BRANCH  24  26
HETATM   26  O   UNL     1       2.302   2.385   8.027  1.00  0.00    -0.322 OA
HETATM   27  C   UNL     1       3.710   2.329   8.256  1.00  0.00     0.213 C 
ENDBRANCH  24  26
ENDBRANCH  23  24
ENDBRANCH  14  17
ENDBRANCH  12  13
ENDBRANCH   2  12
BRANCH   1  28
HETATM   28  C   UNL     1       1.390  -0.355  -0.832  1.00  0.00    -0.027 A 
HETATM   29  C   UNL     1       2.766  -0.595  -0.710  1.00  0.00     0.011 A 
HETATM   30  C   UNL     1       3.699   0.194  -1.396  1.00  0.00     0.030 A 
HETATM   31  C   UNL     1       3.296   1.271  -2.190  1.00  0.00     0.030 A 
HETATM   32  C   UNL     1       1.927   1.558  -2.243  1.00  0.00     0.030 A 
HETATM   33  C   UNL     1       0.986   0.757  -1.586  1.00  0.00     0.011 A 
BRANCH  31  34
HETATM   34  N   UNL     1       4.180   2.037  -2.946  1.00  0.00    -0.382 N 
BRANCH  34  35
HETATM   35  C   UNL     1       5.274   1.374  -3.671  1.00  0.00     0.118 C 
HETATM   36  C   UNL     1       4.733   0.473  -4.775  1.00  0.00     0.026 C 
ENDBRANCH  34  35
BRANCH  34  37
HETATM   37  C   UNL     1       4.451   3.388  -2.432  1.00  0.00     0.118 C 
HETATM   38  C   UNL     1       5.482   3.383  -1.310  1.00  0.00     0.026 C 
ENDBRANCH  34  37
ENDBRANCH  31  34
ENDBRANCH   1  28
BRANCH   6  39
HETATM   39  O   UNL     1      -1.574  -3.466  -0.248  1.00  0.00    -0.389 OA
HETATM   40  H   UNL     1      -2.116  -4.272  -0.141  1.00  0.00     0.210 HD
ENDBRANCH   6  39
TORSDOF 10
