REMARK  6 active torsions:
REMARK  status: ('A' for Active; 'I' for Inactive)
REMARK    1  A    between atoms: C_9  and  N_10 
REMARK       I    between atoms: N_10  and  C_11 
REMARK    2  A    between atoms: C_11  and  C_12 
REMARK    3  A    between atoms: C_12  and  N_13 
REMARK    4  A    between atoms: C_12  and  C_21 
REMARK       I    between atoms: N_13  and  C_14 
REMARK    5  A    between atoms: C_14  and  C_15 
REMARK    6  A    between atoms: C_21  and  C_22 
ROOT
HETATM    1  C   UNL     1       9.565   1.320   0.030  1.00  0.00     0.181 C 
ENDROOT
BRANCH   1   2
HETATM    2  C   UNL     1      10.360   1.402   1.369  1.00  0.00     0.245 C 
HETATM    3  N   UNL     1       9.653   0.995   2.491  1.00  0.00    -0.325 N 
HETATM    4  H   UNL     1       8.662   0.838   2.393  1.00  0.00     0.169 HD
HETATM    5  O   UNL     1      11.559   1.683   1.364  1.00  0.00    -0.271 OA
BRANCH   3   6
HETATM    6  C   UNL     1      10.155   0.781   3.798  1.00  0.00     0.037 A 
HETATM    7  C   UNL     1      11.512   0.854   4.136  1.00  0.00     0.063 A 
HETATM    8  C   UNL     1      11.905   0.574   5.456  1.00  0.00     0.087 A 
HETATM    9  N   UNL     1      13.161   0.554   6.014  1.00  0.00    -0.234 NA
HETATM   10  C   UNL     1      10.942   0.246   6.401  1.00  0.00     0.062 A 
HETATM   11  C   UNL     1      12.988   0.224   7.276  1.00  0.00     0.101 A 
HETATM   12  C   UNL     1      14.042   0.053   8.302  1.00  0.00     0.091 C 
HETATM   13  N   UNL     1      11.656   0.039   7.554  1.00  0.00    -0.343 N 
HETATM   14  H   UNL     1      11.271  -0.218   8.451  1.00  0.00     0.167 HD
HETATM   15  C   UNL     1       9.582   0.176   6.112  1.00  0.00     0.034 A 
HETATM   16  C   UNL     1       9.212   0.445   4.786  1.00  0.00     0.032 A 
ENDBRANCH   3   6
ENDBRANCH   1   2
BRANCH   1  17
HETATM   17  N   UNL     1      10.355   1.925  -1.047  1.00  0.00    -0.343 N 
HETATM   18  C   UNL     1      10.544   3.284  -1.177  1.00  0.00     0.259 C 
HETATM   19  O   UNL     1      10.018   4.084  -0.407  1.00  0.00    -0.267 OA
HETATM   20  H   UNL     1      10.949   1.324  -1.603  1.00  0.00     0.163 HD
BRANCH  18  21
HETATM   21  C   UNL     1      11.369   3.707  -2.302  1.00  0.00     0.072 A 
HETATM   22  S   UNL     1      11.964   2.605  -3.474  1.00  0.00    -0.097 SA
HETATM   23  C   UNL     1      12.701   3.854  -4.379  1.00  0.00     0.050 A 
HETATM   24  C   UNL     1      12.515   5.089  -3.802  1.00  0.00     0.009 A 
HETATM   25  C   UNL     1      11.748   5.003  -2.605  1.00  0.00     0.025 A 
ENDBRANCH  18  21
ENDBRANCH   1  17
BRANCH   1  26
HETATM   26  C   UNL     1       8.104   1.818   0.062  1.00  0.00     0.073 C 
BRANCH  26  27
HETATM   27  C   UNL     1       7.358   1.479  -1.213  1.00  0.00    -0.056 A 
HETATM   28  C   UNL     1       6.746   0.226  -1.367  1.00  0.00     0.007 A 
HETATM   29  C   UNL     1       6.107  -0.106  -2.563  1.00  0.00     0.001 A 
HETATM   30  C   UNL     1       6.079   0.805  -3.617  1.00  0.00     0.000 A 
HETATM   31  C   UNL     1       6.680   2.054  -3.473  1.00  0.00     0.001 A 
HETATM   32  C   UNL     1       7.311   2.392  -2.275  1.00  0.00     0.007 A 
ENDBRANCH  26  27
ENDBRANCH   1  26
TORSDOF 6
