REMARK  6 active torsions:
REMARK  status: ('A' for Active; 'I' for Inactive)
REMARK    1  A    between atoms: O_2  and  C_3 
REMARK    2  A    between atoms: C_4  and  C_5 
REMARK    3  A    between atoms: C_5  and  N_6 
REMARK    4  A    between atoms: N_6  and  C_7 
REMARK    5  A    between atoms: C_9  and  N_10 
REMARK    6  A    between atoms: N_10  and  C_11 
ROOT
HETATM    1  C   UNL     1      -0.571   4.469  -0.615  1.00  0.00     0.181 A 
HETATM    2  N   UNL     1      -0.795   5.709  -1.061  1.00  0.00    -0.207 NA
HETATM    3  C   UNL     1      -1.965   5.960  -1.672  1.00  0.00     0.119 A 
HETATM    4  C   UNL     1      -2.937   4.950  -1.845  1.00  0.00     0.031 A 
HETATM    5  C   UNL     1      -2.620   3.667  -1.352  1.00  0.00     0.048 A 
HETATM    6  N   UNL     1      -1.444   3.475  -0.740  1.00  0.00    -0.330 N 
HETATM    7  H   UNL     1      -1.206   2.591  -0.307  1.00  0.00     0.168 HD
HETATM    8  C   UNL     1      -4.202   5.135  -2.449  1.00  0.00     0.017 A 
HETATM    9  C   UNL     1      -5.102   4.074  -2.574  1.00  0.00     0.001 A 
HETATM   10  C   UNL     1      -4.765   2.812  -2.094  1.00  0.00     0.002 A 
HETATM   11  C   UNL     1      -3.530   2.606  -1.479  1.00  0.00     0.030 A 
ENDROOT
BRANCH   1  12
HETATM   12  N   UNL     1       0.594   4.273   0.097  1.00  0.00    -0.258 NA
HETATM   13  H   UNL     1       1.096   5.163   0.067  1.00  0.00     0.130 HD
BRANCH  12  14
HETATM   14  C   UNL     1       1.462   3.163  -0.288  1.00  0.00     0.136 C 
BRANCH  14  15
HETATM   15  C   UNL     1       1.552   2.128   0.813  1.00  0.00    -0.012 A 
HETATM   16  C   UNL     1       2.080   0.853   0.524  1.00  0.00     0.075 A 
HETATM   17  C   UNL     1       2.228  -0.092   1.546  1.00  0.00     0.037 A 
HETATM   18  C   UNL     1       1.882   0.228   2.859  1.00  0.00     0.003 A 
HETATM   19  C   UNL     1       1.386   1.490   3.161  1.00  0.00     0.001 A 
HETATM   20  C   UNL     1       1.227   2.435   2.148  1.00  0.00     0.011 A 
BRANCH  16  21
HETATM   21  O   UNL     1       2.404   0.622  -0.789  1.00  0.00    -0.355 OA
HETATM   22  C   UNL     1       3.329  -0.437  -1.033  1.00  0.00     0.210 C 
ENDBRANCH  16  21
ENDBRANCH  14  15
ENDBRANCH  12  14
ENDBRANCH   1  12
BRANCH   3  23
HETATM   23  N   UNL     1      -2.245   7.273  -2.073  1.00  0.00    -0.272 NA
HETATM   24  H   UNL     1      -2.556   7.293  -3.043  1.00  0.00     0.129 HD
BRANCH  23  25
HETATM   25  C   UNL     1      -1.225   8.292  -1.820  1.00  0.00     0.061 C 
HETATM   26  C   UNL     1      -1.636   9.618  -2.458  1.00  0.00     0.020 C 
HETATM   27  C   UNL     1      -0.758  10.630  -1.741  1.00  0.00     0.002 C 
HETATM   28  C   UNL     1      -0.683  10.130  -0.303  1.00  0.00     0.002 C 
HETATM   29  C   UNL     1      -1.107   8.661  -0.338  1.00  0.00     0.020 C 
ENDBRANCH  23  25
ENDBRANCH   3  23
TORSDOF 6
