REMARK  9 active torsions:
REMARK  status: ('A' for Active; 'I' for Inactive)
REMARK    1  A    between atoms: C_2  and  O_3 
REMARK    2  A    between atoms: O_3  and  C_4 
REMARK    3  A    between atoms: C_4  and  C_5 
REMARK    4  A    between atoms: C_11  and  O_12 
REMARK    5  A    between atoms: C_13  and  C_14 
REMARK    6  A    between atoms: C_14  and  N_15 
REMARK    7  A    between atoms: N_19  and  C_20 
REMARK    8  A    between atoms: C_26  and  C_27 
REMARK    9  A    between atoms: C_27  and  N_28 
ROOT
HETATM    1  C   UNL     1       5.324  -0.252   0.475  1.00  0.00     0.077 A 
HETATM    2  C   UNL     1       5.520   1.175   0.272  1.00  0.00     0.020 A 
HETATM    3  C   UNL     1       6.639   1.296  -0.566  1.00  0.00     0.053 A 
HETATM    4  C   UNL     1       7.179   2.547  -0.923  1.00  0.00     0.053 A 
HETATM    5  C   UNL     1       6.580   3.697  -0.431  1.00  0.00     0.047 A 
HETATM    6 BR   UNL     1       7.329   5.377  -0.887  1.00  0.00    -0.048 Br
HETATM    7  C   UNL     1       5.459   3.613   0.388  1.00  0.00     0.092 A 
HETATM    8  C   UNL     1       4.861   2.374   0.735  1.00  0.00     0.016 A 
HETATM    9  N   UNL     1       7.115   0.022  -0.857  1.00  0.00    -0.312 N 
HETATM   10  C   UNL     1       6.288  -0.932  -0.282  1.00  0.00     0.060 A 
ENDROOT
BRANCH  10  11
HETATM   11  C   UNL     1       6.498  -2.407  -0.487  1.00  0.00     0.293 C 
BRANCH  11  12
HETATM   12  N   UNL     1       6.250  -2.865  -1.899  1.00  0.00    -0.066 N 
HETATM   13  H   UNL     1       6.887  -2.336  -2.510  1.00  0.00     0.280 HD
HETATM   14  C   UNL     1       4.843  -2.664  -2.422  1.00  0.00     0.235 C 
HETATM   15  C   UNL     1       4.293  -4.063  -2.597  1.00  0.00     0.029 C 
HETATM   16  C   UNL     1       5.510  -4.852  -3.028  1.00  0.00     0.029 C 
HETATM   17  C   UNL     1       6.595  -4.336  -2.104  1.00  0.00     0.235 C 
ENDBRANCH  11  12
ENDBRANCH  10  11
BRANCH   1  18
HETATM   18  C   UNL     1       4.322  -0.885   1.342  1.00  0.00     0.296 C 
HETATM   19  O   UNL     1       3.878  -0.340   2.341  1.00  0.00    -0.259 OA
BRANCH  18  20
HETATM   20  O   UNL     1       3.918  -2.103   0.885  1.00  0.00    -0.318 OA
BRANCH  20  21
HETATM   21  C   UNL     1       2.935  -2.784   1.688  1.00  0.00     0.174 C 
HETATM   22  C   UNL     1       1.541  -2.342   1.288  1.00  0.00     0.034 C 
ENDBRANCH  20  21
ENDBRANCH  18  20
ENDBRANCH   1  18
BRANCH   9  23
HETATM   23  C   UNL     1       8.270  -0.247  -1.638  1.00  0.00     0.040 A 
HETATM   24  C   UNL     1       9.319  -0.994  -1.090  1.00  0.00     0.030 A 
HETATM   25  C   UNL     1      10.448  -1.265  -1.863  1.00  0.00     0.002 A 
HETATM   26  C   UNL     1      10.528  -0.790  -3.171  1.00  0.00     0.000 A 
HETATM   27  C   UNL     1       9.486  -0.034  -3.710  1.00  0.00     0.002 A 
HETATM   28  C   UNL     1       8.354   0.246  -2.945  1.00  0.00     0.030 A 
ENDBRANCH   9  23
BRANCH   8  29
HETATM   29  C   UNL     1       3.643   2.350   1.651  1.00  0.00     0.276 C 
BRANCH  29  30
HETATM   30  N   UNL     1       2.751   3.572   1.655  1.00  0.00    -0.075 N 
HETATM   31  H   UNL     1       3.410   4.369   1.595  1.00  0.00     0.279 HD
HETATM   32  C   UNL     1       1.857   3.665   0.460  1.00  0.00     0.269 C 
HETATM   33  C   UNL     1       1.999   3.725   2.941  1.00  0.00     0.269 C 
ENDBRANCH  29  30
ENDBRANCH   8  29
BRANCH   7  34
HETATM   34  O   UNL     1       4.908   4.771   0.897  1.00  0.00    -0.359 OA
HETATM   35  H   UNL     1       5.501   5.510   0.630  1.00  0.00     0.218 HD
ENDBRANCH   7  34
TORSDOF 9
