REMARK  4 active torsions:
REMARK  status: ('A' for Active; 'I' for Inactive)
REMARK    1  A    between atoms: S_2  and  C_3 
REMARK    2  A    between atoms: C_5  and  C_6 
REMARK    3  A    between atoms: C_6  and  N_7 
REMARK       I    between atoms: N_7  and  C_8 
REMARK    4  A    between atoms: C_8  and  C_9 
ROOT
HETATM    1  N   UNL     1       6.398  -0.676   4.331  1.00  0.00    -0.353 N 
HETATM    2  C   UNL     1       7.382  -0.427   5.255  1.00  0.00     0.254 C 
HETATM    3  O   UNL     1       7.822  -1.275   6.025  1.00  0.00    -0.268 OA
HETATM    4  H   UNL     1       6.193   0.016   3.623  1.00  0.00     0.163 HD
ENDROOT
BRANCH   2   5
HETATM    5  C   UNL     1       7.966   0.945   5.204  1.00  0.00     0.058 A 
HETATM    6  C   UNL     1       7.226   2.222   5.129  1.00  0.00    -0.003 A 
HETATM    7  C   UNL     1       7.952   3.425   5.018  1.00  0.00     0.043 A 
HETATM    8  C   UNL     1       5.828   2.306   5.209  1.00  0.00     0.013 A 
HETATM    9  C   UNL     1       7.302   4.664   4.944  1.00  0.00     0.018 A 
HETATM   10  C   UNL     1       9.439   3.390   5.014  1.00  0.00     0.256 A 
HETATM   11  C   UNL     1       5.912   4.720   4.996  1.00  0.00     0.001 A 
HETATM   12  C   UNL     1       5.178   3.544   5.134  1.00  0.00     0.001 A 
HETATM   13  O   UNL     1      10.115   4.407   4.913  1.00  0.00    -0.267 OA
HETATM   14  N   UNL     1      10.014   2.147   5.140  1.00  0.00    -0.332 N 
HETATM   15  C   UNL     1       9.309   0.975   5.227  1.00  0.00     0.109 A 
HETATM   16  H   UNL     1      11.028   2.132   5.156  1.00  0.00     0.168 HD
ENDBRANCH   2   5
BRANCH   1  17
HETATM   17  C   UNL     1       5.894  -2.017   4.124  1.00  0.00     0.161 C 
BRANCH  17  18
HETATM   18  C   UNL     1       4.396  -2.053   3.960  1.00  0.00    -0.039 A 
HETATM   19  C   UNL     1       3.816  -2.842   2.952  1.00  0.00     0.027 A 
HETATM   20  C   UNL     1       2.424  -2.963   2.832  1.00  0.00     0.000 A 
HETATM   21  C   UNL     1       1.607  -2.297   3.747  1.00  0.00     0.018 A 
HETATM   22  C   UNL     1       2.168  -1.513   4.758  1.00  0.00     0.002 A 
HETATM   23  C   UNL     1       3.554  -1.399   4.868  1.00  0.00     0.009 A 
BRANCH  20  24
HETATM   24  S   UNL     1       1.792  -4.042   1.554  1.00  0.00    -0.134 SA
HETATM   25  C   UNL     1       0.278  -3.179   1.054  1.00  0.00     0.095 C 
ENDBRANCH  20  24
ENDBRANCH  17  18
ENDBRANCH   1  17
TORSDOF 4
