REMARK  8 active torsions:
REMARK  status: ('A' for Active; 'I' for Inactive)
REMARK    1  A    between atoms: N_2  and  C_3 
REMARK    2  A    between atoms: C_4  and  C_5 
REMARK       I    between atoms: C_5  and  N_6 
REMARK    3  A    between atoms: N_6  and  C_7 
REMARK    4  A    between atoms: C_7  and  C_8 
REMARK    5  A    between atoms: N_13  and  C_15 
REMARK    6  A    between atoms: C_15  and  C_16 
REMARK    7  A    between atoms: C_16  and  C_17 
REMARK    8  A    between atoms: C_17  and  C_18 
ROOT
HETATM    1  C   UNL     1      -0.119  -1.215  -2.092  1.00  0.00     0.140 C 
HETATM    2  O   UNL     1      -1.303  -0.449  -1.796  1.00  0.00    -0.373 OA
HETATM    3  C   UNL     1      -1.654  -0.617  -0.409  1.00  0.00     0.064 C 
HETATM    4  C   UNL     1      -3.105  -1.111  -0.390  1.00  0.00     0.066 C 
HETATM    5  C   UNL     1      -4.056  -0.062  -0.962  1.00  0.00     0.237 C 
HETATM    6  N   UNL     1      -3.917   1.262  -0.235  1.00  0.00    -0.071 N 
HETATM    7  H   UNL     1      -4.451   1.932  -0.802  1.00  0.00     0.279 HD
HETATM    8  C   UNL     1      -2.480   1.754  -0.318  1.00  0.00     0.237 C 
HETATM    9  C   UNL     1      -1.546   0.733   0.306  1.00  0.00     0.066 C 
HETATM   10  C   UNL     1      -0.675  -1.640   0.173  1.00  0.00     0.041 C 
HETATM   11  C   UNL     1      -0.108  -2.321  -1.052  1.00  0.00     0.036 C 
ENDROOT
BRANCH   1  12
HETATM   12  C   UNL     1       1.134  -0.320  -2.036  1.00  0.00     0.155 C 
BRANCH  12  13
HETATM   13  N   UNL     1       1.138   0.680  -3.090  1.00  0.00    -0.354 N 
HETATM   14  C   UNL     1       0.626   1.954  -2.917  1.00  0.00     0.253 C 
HETATM   15  O   UNL     1       0.158   2.363  -1.861  1.00  0.00    -0.268 OA
HETATM   16  H   UNL     1       1.416   0.393  -4.021  1.00  0.00     0.162 HD
BRANCH  14  17
HETATM   17  C   UNL     1       0.722   2.818  -4.130  1.00  0.00     0.053 A 
HETATM   18  C   UNL     1      -0.380   3.560  -4.615  1.00  0.00     0.025 A 
HETATM   19  C   UNL     1      -0.174   4.332  -5.777  1.00  0.00     0.025 A 
HETATM   20  C   UNL     1       1.068   4.381  -6.419  1.00  0.00     0.002 A 
HETATM   21  C   UNL     1       2.143   3.661  -5.915  1.00  0.00     0.001 A 
HETATM   22  C   UNL     1       1.974   2.885  -4.772  1.00  0.00     0.019 A 
BRANCH  18  23
HETATM   23  N   UNL     1      -1.659   3.482  -4.005  1.00  0.00    -0.291 NA
HETATM   24  C   UNL     1      -2.444   2.392  -4.587  1.00  0.00     0.116 C 
HETATM   25  C   UNL     1      -2.366   4.762  -3.912  1.00  0.00     0.116 C 
ENDBRANCH  18  23
ENDBRANCH  14  17
ENDBRANCH  12  13
ENDBRANCH   1  12
BRANCH   6  26
HETATM   26  C   UNL     1      -4.556   1.245   1.136  1.00  0.00     0.235 C 
BRANCH  26  27
HETATM   27  C   UNL     1      -4.510   2.586   1.859  1.00  0.00     0.032 C 
BRANCH  27  28
HETATM   28  C   UNL     1      -5.234   3.717   1.127  1.00  0.00     0.040 C 
BRANCH  28  29
HETATM   29  C   UNL     1      -5.142   5.000   1.911  1.00  0.00    -0.058 A 
HETATM   30  C   UNL     1      -4.055   5.866   1.724  1.00  0.00     0.007 A 
HETATM   31  C   UNL     1      -3.945   7.033   2.481  1.00  0.00     0.001 A 
HETATM   32  C   UNL     1      -4.915   7.343   3.432  1.00  0.00     0.000 A 
HETATM   33  C   UNL     1      -5.997   6.487   3.626  1.00  0.00     0.001 A 
HETATM   34  C   UNL     1      -6.111   5.319   2.871  1.00  0.00     0.007 A 
ENDBRANCH  28  29
ENDBRANCH  27  28
ENDBRANCH  26  27
ENDBRANCH   6  26
TORSDOF 8
