REMARK  6 active torsions:
REMARK  status: ('A' for Active; 'I' for Inactive)
REMARK    1  A    between atoms: C_6  and  C_7 
REMARK       I    between atoms: C_7  and  N_8 
REMARK    2  A    between atoms: N_8  and  C_9 
REMARK    3  A    between atoms: C_9  and  C_10 
REMARK    4  A    between atoms: C_10  and  O_11 
REMARK    5  A    between atoms: C_10  and  C_12 
REMARK    6  A    between atoms: C_15  and  O_16 
ROOT
HETATM    1  C   UNL     1      -0.765   0.377  -5.017  1.00  0.00     0.258 C 
HETATM    2  N   UNL     1      -0.064   0.041  -3.880  1.00  0.00    -0.350 N 
HETATM    3  O   UNL     1      -1.254  -0.454  -5.773  1.00  0.00    -0.267 OA
HETATM    4  H   UNL     1       0.205   0.819  -3.279  1.00  0.00     0.163 HD
ENDROOT
BRANCH   2   5
HETATM    5  C   UNL     1       0.050  -1.335  -3.389  1.00  0.00     0.114 C 
HETATM    6  C   UNL     1       1.013  -2.134  -4.276  1.00  0.00     0.035 C 
BRANCH   5   7
HETATM    7  C   UNL     1       0.487  -1.326  -1.894  1.00  0.00     0.173 C 
BRANCH   7   8
HETATM    8  O   UNL     1       1.861  -0.942  -1.760  1.00  0.00    -0.389 OA
HETATM    9  H   UNL     1       2.006  -0.197  -2.369  1.00  0.00     0.210 HD
ENDBRANCH   7   8
BRANCH   7  10
HETATM   10  C   UNL     1       0.230  -2.645  -1.195  1.00  0.00    -0.028 A 
HETATM   11  C   UNL     1      -1.060  -2.941  -0.731  1.00  0.00     0.012 A 
HETATM   12  C   UNL     1      -1.329  -4.162  -0.108  1.00  0.00     0.037 A 
HETATM   13  C   UNL     1      -0.323  -5.115   0.056  1.00  0.00     0.068 A 
HETATM   14  C   UNL     1       0.964  -4.828  -0.394  1.00  0.00     0.037 A 
HETATM   15  C   UNL     1       1.238  -3.602  -1.013  1.00  0.00     0.012 A 
BRANCH  13  16
HETATM   16  O   UNL     1      -0.724  -6.270   0.669  1.00  0.00    -0.356 OA
HETATM   17  C   UNL     1       0.222  -7.330   0.716  1.00  0.00     0.210 C 
ENDBRANCH  13  16
ENDBRANCH   7  10
ENDBRANCH   5   7
ENDBRANCH   2   5
BRANCH   1  18
HETATM   18  C   UNL     1      -0.900   1.807  -5.242  1.00  0.00     0.105 A 
HETATM   19  C   UNL     1      -1.493   2.466  -6.352  1.00  0.00     0.071 A 
HETATM   20  C   UNL     1      -2.102   1.845  -7.558  1.00  0.00     0.073 C 
HETATM   21  N   UNL     1      -1.465   3.798  -6.230  1.00  0.00    -0.170 NA
HETATM   22  N   UNL     1      -0.866   4.024  -5.041  1.00  0.00    -0.225 N 
HETATM   23  C   UNL     1      -0.492   2.835  -4.408  1.00  0.00     0.168 A 
HETATM   24  C   UNL     1      -0.616   5.252  -4.439  1.00  0.00     0.122 A 
HETATM   25  N   UNL     1       0.139   2.827  -3.185  1.00  0.00    -0.240 NA
HETATM   26  C   UNL     1       0.353   3.996  -2.655  1.00  0.00     0.120 A 
HETATM   27  C   UNL     1      -0.012   5.313  -3.245  1.00  0.00     0.038 A 
ENDBRANCH   1  18
TORSDOF 6
