REMARK  6 active torsions:
REMARK  status: ('A' for Active; 'I' for Inactive)
REMARK    1  A    between atoms: C_2  and  O_3 
REMARK    2  A    between atoms: C_2  and  C_4 
REMARK    3  A    between atoms: C_6  and  N_7 
REMARK       I    between atoms: N_7  and  C_8 
REMARK    4  A    between atoms: C_8  and  C_9 
REMARK    5  A    between atoms: C_14  and  C_15 
REMARK    6  A    between atoms: C_23  and  C_24 
ROOT
HETATM    1  C   UNL     1       1.892   3.881   1.786  1.00  0.00     0.148 C 
HETATM    2  N   UNL     1       2.381   4.087   3.034  1.00  0.00    -0.165 NA
HETATM    3  N   UNL     1       2.197   2.897   3.631  1.00  0.00    -0.240 N 
HETATM    4  C   UNL     1       1.770   1.911   2.790  1.00  0.00     0.123 C 
HETATM    5  N   UNL     1       1.724   0.626   3.197  1.00  0.00    -0.366 N 
HETATM    6  C   UNL     1       2.432   0.157   4.392  1.00  0.00     0.118 C 
HETATM    7  C   UNL     1       3.277   1.269   5.055  1.00  0.00     0.066 C 
HETATM    8  C   UNL     1       2.594   2.640   5.000  1.00  0.00     0.221 C 
HETATM    9  C   UNL     1       1.468   2.533   1.610  1.00  0.00     0.089 C 
HETATM   10  H   UNL     1       1.408  -0.111   2.566  1.00  0.00     0.161 HD
ENDROOT
BRANCH   1  11
HETATM   11  C   UNL     1       1.890   4.944   0.764  1.00  0.00     0.276 C 
HETATM   12  N   UNL     1       2.599   6.053   1.183  1.00  0.00    -0.322 N 
HETATM   13  H   UNL     1       3.005   5.944   2.110  1.00  0.00     0.169 HD
HETATM   14  O   UNL     1       1.346   4.786  -0.323  1.00  0.00    -0.266 OA
BRANCH  12  15
HETATM   15  C   UNL     1       2.869   7.236   0.477  1.00  0.00     0.035 A 
HETATM   16  C   UNL     1       2.308   7.542  -0.765  1.00  0.00     0.039 A 
HETATM   17  C   UNL     1       2.617   8.747  -1.421  1.00  0.00    -0.028 A 
HETATM   18  C   UNL     1       3.522   9.633  -0.820  1.00  0.00     0.010 A 
HETATM   19  C   UNL     1       4.085   9.336   0.419  1.00  0.00     0.003 A 
HETATM   20  C   UNL     1       3.752   8.146   1.068  1.00  0.00     0.029 A 
BRANCH  17  21
HETATM   21  C   UNL     1       1.983   9.063  -2.758  1.00  0.00     0.147 C 
HETATM   22  C   UNL     1       2.955   8.894  -3.916  1.00  0.00     0.044 C 
BRANCH  21  23
HETATM   23  O   UNL     1       1.491  10.403  -2.760  1.00  0.00    -0.391 OA
HETATM   24  H   UNL     1       1.103  10.559  -1.882  1.00  0.00     0.210 HD
ENDBRANCH  21  23
ENDBRANCH  17  21
ENDBRANCH  12  15
ENDBRANCH   1  11
BRANCH   8  25
HETATM   25  C   UNL     1       1.398   2.739   5.920  1.00  0.00     0.409 C 
HETATM   26  F   UNL     1       0.833   3.966   5.896  1.00  0.00    -0.169 F 
HETATM   27  F   UNL     1       0.433   1.834   5.659  1.00  0.00    -0.169 F 
HETATM   28  F   UNL     1       1.793   2.521   7.202  1.00  0.00    -0.169 F 
ENDBRANCH   8  25
BRANCH   6  29
HETATM   29  C   UNL     1       3.326  -1.018   4.020  1.00  0.00    -0.035 A 
HETATM   30  C   UNL     1       4.173  -0.956   2.894  1.00  0.00     0.012 A 
HETATM   31  C   UNL     1       5.014  -2.021   2.574  1.00  0.00     0.043 A 
HETATM   32  C   UNL     1       5.020  -3.150   3.380  1.00  0.00     0.116 A 
HETATM   33  F   UNL     1       5.831  -4.173   3.079  1.00  0.00    -0.206 F 
HETATM   34  C   UNL     1       4.198  -3.235   4.499  1.00  0.00     0.043 A 
HETATM   35  C   UNL     1       3.351  -2.172   4.820  1.00  0.00     0.012 A 
ENDBRANCH   6  29
TORSDOF 6
