MODEL 1
REMARK VINA RESULT:      -8.8      0.000      0.000
REMARK  3 active torsions:
REMARK  status: ('A' for Active; 'I' for Inactive)
REMARK    1  A    between atoms: C_7  and  C_8 
REMARK       I    between atoms: C_8  and  N_9 
REMARK    2  A    between atoms: N_9  and  N_10 
REMARK    3  A    between atoms: C_11  and  C_12 
ROOT
HETATM    1  N   UNL     1       5.543  28.190  54.405  1.00  0.00    -0.184 NA
HETATM    2  C   UNL     1       5.206  26.958  54.198  1.00  0.00     0.148 C 
ENDROOT
BRANCH   1   3
HETATM    3  N   UNL     1       6.740  28.441  55.007  1.00  0.00    -0.243 N 
HETATM    4  C   UNL     1       6.915  29.541  55.841  1.00  0.00     0.280 C 
HETATM    5  O   UNL     1       6.029  30.366  56.055  1.00  0.00    -0.265 OA
HETATM    6  H   UNL     1       7.521  27.814  54.857  1.00  0.00     0.192 HD
BRANCH   4   7
HETATM    7  C   UNL     1       8.225  29.619  56.470  1.00  0.00     0.102 A 
HETATM    8  C   UNL     1       8.530  29.928  57.787  1.00  0.00     0.056 A 
HETATM    9  C   UNL     1       7.570  30.264  58.874  1.00  0.00     0.072 C 
HETATM   10  N   UNL     1       9.883  29.898  58.098  1.00  0.00    -0.228 NA
HETATM   11  C   UNL     1      10.586  29.570  57.046  1.00  0.00     0.165 A 
HETATM   12  N   UNL     1      11.923  29.460  57.065  1.00  0.00    -0.378 N 
HETATM   13  S   UNL     1       9.685  29.300  55.616  1.00  0.00    -0.045 SA
HETATM   14  H   UNL     1      12.378  29.874  57.871  1.00  0.00     0.158 HD
HETATM   15  H   UNL     1      12.430  29.576  56.197  1.00  0.00     0.158 HD
ENDBRANCH   4   7
ENDBRANCH   1   3
BRANCH   2  16
HETATM   16  C   UNL     1       5.890  25.702  54.600  1.00  0.00    -0.014 C 
HETATM   17  C   UNL     1       6.007  25.428  56.067  1.00  0.00     0.216 C 
HETATM   18  O   UNL     1       7.024  24.481  56.433  1.00  0.00    -0.344 OA
HETATM   19  C   UNL     1       7.355  23.527  55.505  1.00  0.00     0.101 A 
HETATM   20  C   UNL     1       7.093  23.697  54.138  1.00  0.00     0.001 A 
HETATM   21  C   UNL     1       8.021  22.374  55.943  1.00  0.00     0.069 A 
HETATM   22  C   UNL     1       7.474  22.706  53.226  1.00  0.00     0.038 A 
HETATM   23  C   UNL     1       6.443  24.915  53.671  1.00  0.00     0.025 C 
HETATM   24  C   UNL     1       8.116  21.554  53.682  1.00  0.00     0.036 A 
HETATM   25  C   UNL     1       8.395  21.384  55.035  1.00  0.00     0.050 A 
HETATM   26 CL   UNL     1       8.567  20.333  52.557  1.00  0.00    -0.084 Cl
HETATM   27 CL   UNL     1       8.386  22.131  57.614  1.00  0.00    -0.081 Cl
ENDBRANCH   2  16
TORSDOF 3
ENDMDL
MODEL 2
REMARK VINA RESULT:      -8.5      1.636      2.010
REMARK  3 active torsions:
REMARK  status: ('A' for Active; 'I' for Inactive)
REMARK    1  A    between atoms: C_7  and  C_8 
REMARK       I    between atoms: C_8  and  N_9 
REMARK    2  A    between atoms: N_9  and  N_10 
REMARK    3  A    between atoms: C_11  and  C_12 
ROOT
HETATM    1  N   UNL     1       4.638  27.585  53.909  1.00  0.00    -0.184 NA
HETATM    2  C   UNL     1       4.864  26.407  53.424  1.00  0.00     0.148 C 
ENDROOT
BRANCH   1   3
HETATM    3  N   UNL     1       5.240  27.928  55.083  1.00  0.00    -0.243 N 
HETATM    4  C   UNL     1       6.530  28.451  55.110  1.00  0.00     0.280 C 
HETATM    5  O   UNL     1       7.213  28.597  54.099  1.00  0.00    -0.265 OA
HETATM    6  H   UNL     1       4.742  27.814  55.957  1.00  0.00     0.192 HD
BRANCH   4   7
HETATM    7  C   UNL     1       6.994  28.843  56.432  1.00  0.00     0.102 A 
HETATM    8  C   UNL     1       7.877  28.174  57.267  1.00  0.00     0.056 A 
HETATM    9  C   UNL     1       8.556  26.877  56.999  1.00  0.00     0.072 C 
HETATM   10  N   UNL     1       8.148  28.817  58.468  1.00  0.00    -0.228 NA
HETATM   11  C   UNL     1       7.492  29.945  58.541  1.00  0.00     0.165 A 
HETATM   12  N   UNL     1       7.573  30.771  59.594  1.00  0.00    -0.378 N 
HETATM   13  S   UNL     1       6.494  30.301  57.197  1.00  0.00    -0.045 SA
HETATM   14  H   UNL     1       7.982  30.367  60.429  1.00  0.00     0.158 HD
HETATM   15  H   UNL     1       6.804  31.404  59.773  1.00  0.00     0.158 HD
ENDBRANCH   4   7
ENDBRANCH   1   3
BRANCH   2  16
HETATM   16  C   UNL     1       5.633  25.272  53.995  1.00  0.00    -0.014 C 
HETATM   17  C   UNL     1       5.631  25.127  55.485  1.00  0.00     0.216 C 
HETATM   18  O   UNL     1       6.700  24.333  56.024  1.00  0.00    -0.344 OA
HETATM   19  C   UNL     1       7.222  23.355  55.218  1.00  0.00     0.101 A 
HETATM   20  C   UNL     1       7.083  23.388  53.823  1.00  0.00     0.001 A 
HETATM   21  C   UNL     1       7.959  22.322  55.815  1.00  0.00     0.069 A 
HETATM   22  C   UNL     1       7.657  22.380  53.041  1.00  0.00     0.038 A 
HETATM   23  C   UNL     1       6.358  24.484  53.194  1.00  0.00     0.025 C 
HETATM   24  C   UNL     1       8.368  21.347  53.653  1.00  0.00     0.036 A 
HETATM   25  C   UNL     1       8.526  21.315  55.035  1.00  0.00     0.050 A 
HETATM   26 CL   UNL     1       9.057  20.103  52.685  1.00  0.00    -0.084 Cl
HETATM   27 CL   UNL     1       8.178  22.252  57.527  1.00  0.00    -0.081 Cl
ENDBRANCH   2  16
TORSDOF 3
ENDMDL
MODEL 3
REMARK VINA RESULT:      -8.5      6.651     10.967
REMARK  3 active torsions:
REMARK  status: ('A' for Active; 'I' for Inactive)
REMARK    1  A    between atoms: C_7  and  C_8 
REMARK       I    between atoms: C_8  and  N_9 
REMARK    2  A    between atoms: N_9  and  N_10 
REMARK    3  A    between atoms: C_11  and  C_12 
ROOT
HETATM    1  N   UNL     1       9.262  30.722  60.687  1.00  0.00    -0.184 NA
HETATM    2  C   UNL     1       9.178  31.456  61.749  1.00  0.00     0.148 C 
ENDROOT
BRANCH   1   3
HETATM    3  N   UNL     1       8.119  30.456  59.992  1.00  0.00    -0.243 N 
HETATM    4  C   UNL     1       8.126  30.333  58.606  1.00  0.00     0.280 C 
HETATM    5  O   UNL     1       9.136  30.494  57.926  1.00  0.00    -0.265 OA
HETATM    6  H   UNL     1       7.245  30.332  60.488  1.00  0.00     0.192 HD
BRANCH   4   7
HETATM    7  C   UNL     1       6.843  29.965  58.027  1.00  0.00     0.102 A 
HETATM    8  C   UNL     1       5.721  30.761  57.845  1.00  0.00     0.056 A 
HETATM    9  C   UNL     1       5.570  32.194  58.215  1.00  0.00     0.072 C 
HETATM   10  N   UNL     1       4.646  30.126  57.238  1.00  0.00    -0.228 NA
HETATM   11  C   UNL     1       4.944  28.884  56.962  1.00  0.00     0.165 A 
HETATM   12  N   UNL     1       4.087  28.041  56.366  1.00  0.00    -0.378 N 
HETATM   13  S   UNL     1       6.513  28.385  57.428  1.00  0.00    -0.045 SA
HETATM   14  H   UNL     1       3.120  28.345  56.355  1.00  0.00     0.158 HD
HETATM   15  H   UNL     1       4.208  27.047  56.509  1.00  0.00     0.158 HD
ENDBRANCH   4   7
ENDBRANCH   1   3
BRANCH   2  16
HETATM   16  C   UNL     1       7.982  32.014  62.430  1.00  0.00    -0.014 C 
HETATM   17  C   UNL     1       6.675  31.912  61.707  1.00  0.00     0.216 C 
HETATM   18  O   UNL     1       5.655  32.820  62.156  1.00  0.00    -0.344 OA
HETATM   19  C   UNL     1       5.712  33.228  63.464  1.00  0.00     0.101 A 
HETATM   20  C   UNL     1       6.897  33.168  64.212  1.00  0.00     0.001 A 
HETATM   21  C   UNL     1       4.555  33.769  64.043  1.00  0.00     0.069 A 
HETATM   22  C   UNL     1       6.910  33.622  65.535  1.00  0.00     0.038 A 
HETATM   23  C   UNL     1       8.114  32.651  63.599  1.00  0.00     0.025 C 
HETATM   24  C   UNL     1       5.745  34.136  66.103  1.00  0.00     0.036 A 
HETATM   25  C   UNL     1       4.568  34.216  65.365  1.00  0.00     0.050 A 
HETATM   26 CL   UNL     1       5.766  34.678  67.736  1.00  0.00    -0.084 Cl
HETATM   27 CL   UNL     1       3.078  33.886  63.155  1.00  0.00    -0.081 Cl
ENDBRANCH   2  16
TORSDOF 3
ENDMDL
MODEL 4
REMARK VINA RESULT:      -8.5      4.073      6.650
REMARK  3 active torsions:
REMARK  status: ('A' for Active; 'I' for Inactive)
REMARK    1  A    between atoms: C_7  and  C_8 
REMARK       I    between atoms: C_8  and  N_9 
REMARK    2  A    between atoms: N_9  and  N_10 
REMARK    3  A    between atoms: C_11  and  C_12 
ROOT
HETATM    1  N   UNL     1       5.009  26.667  53.995  1.00  0.00    -0.184 NA
HETATM    2  C   UNL     1       5.143  27.897  54.373  1.00  0.00     0.148 C 
ENDROOT
BRANCH   1   3
HETATM    3  N   UNL     1       5.639  25.696  54.716  1.00  0.00    -0.243 N 
HETATM    4  C   UNL     1       6.872  25.186  54.323  1.00  0.00     0.280 C 
HETATM    5  O   UNL     1       7.446  25.543  53.296  1.00  0.00    -0.265 OA
HETATM    6  H   UNL     1       5.212  25.341  55.563  1.00  0.00     0.192 HD
BRANCH   4   7
HETATM    7  C   UNL     1       7.447  24.219  55.245  1.00  0.00     0.102 A 
HETATM    8  C   UNL     1       7.896  24.428  56.541  1.00  0.00     0.056 A 
HETATM    9  C   UNL     1       7.900  25.713  57.292  1.00  0.00     0.072 C 
HETATM   10  N   UNL     1       8.374  23.294  57.185  1.00  0.00    -0.228 NA
HETATM   11  C   UNL     1       8.286  22.252  56.402  1.00  0.00     0.165 A 
HETATM   12  N   UNL     1       8.672  21.022  56.774  1.00  0.00    -0.378 N 
HETATM   13  S   UNL     1       7.651  22.558  54.842  1.00  0.00    -0.045 SA
HETATM   14  H   UNL     1       9.254  20.986  57.603  1.00  0.00     0.158 HD
HETATM   15  H   UNL     1       8.932  20.359  56.055  1.00  0.00     0.158 HD
ENDBRANCH   4   7
ENDBRANCH   1   3
BRANCH   2  16
HETATM   16  C   UNL     1       5.976  28.476  55.458  1.00  0.00    -0.014 C 
HETATM   17  C   UNL     1       5.276  28.869  56.722  1.00  0.00     0.216 C 
HETATM   18  O   UNL     1       5.987  29.803  57.550  1.00  0.00    -0.344 OA
HETATM   19  C   UNL     1       7.356  29.795  57.471  1.00  0.00     0.101 A 
HETATM   20  C   UNL     1       8.034  29.270  56.362  1.00  0.00     0.001 A 
HETATM   21  C   UNL     1       8.087  30.378  58.516  1.00  0.00     0.069 A 
HETATM   22  C   UNL     1       9.432  29.308  56.317  1.00  0.00     0.038 A 
HETATM   23  C   UNL     1       7.277  28.705  55.252  1.00  0.00     0.025 C 
HETATM   24  C   UNL     1      10.145  29.872  57.375  1.00  0.00     0.036 A 
HETATM   25  C   UNL     1       9.481  30.410  58.473  1.00  0.00     0.050 A 
HETATM   26 CL   UNL     1      11.864  29.901  57.319  1.00  0.00    -0.084 Cl
HETATM   27 CL   UNL     1       7.296  31.058  59.892  1.00  0.00    -0.081 Cl
ENDBRANCH   2  16
TORSDOF 3
ENDMDL
MODEL 5
REMARK VINA RESULT:      -8.4      4.055      6.922
REMARK  3 active torsions:
REMARK  status: ('A' for Active; 'I' for Inactive)
REMARK    1  A    between atoms: C_7  and  C_8 
REMARK       I    between atoms: C_8  and  N_9 
REMARK    2  A    between atoms: N_9  and  N_10 
REMARK    3  A    between atoms: C_11  and  C_12 
ROOT
HETATM    1  N   UNL     1       5.024  26.264  53.680  1.00  0.00    -0.184 NA
HETATM    2  C   UNL     1       5.299  27.520  53.835  1.00  0.00     0.148 C 
ENDROOT
BRANCH   1   3
HETATM    3  N   UNL     1       5.668  25.359  54.469  1.00  0.00    -0.243 N 
HETATM    4  C   UNL     1       6.764  24.639  54.001  1.00  0.00     0.280 C 
HETATM    5  O   UNL     1       7.190  24.742  52.853  1.00  0.00    -0.265 OA
HETATM    6  H   UNL     1       5.357  25.208  55.421  1.00  0.00     0.192 HD
BRANCH   4   7
HETATM    7  C   UNL     1       7.388  23.777  54.994  1.00  0.00     0.102 A 
HETATM    8  C   UNL     1       7.796  24.102  56.279  1.00  0.00     0.056 A 
HETATM    9  C   UNL     1       7.694  25.429  56.944  1.00  0.00     0.072 C 
HETATM   10  N   UNL     1       8.340  23.050  57.003  1.00  0.00    -0.228 NA
HETATM   11  C   UNL     1       8.342  21.955  56.289  1.00  0.00     0.165 A 
HETATM   12  N   UNL     1       8.808  20.783  56.747  1.00  0.00    -0.378 N 
HETATM   13  S   UNL     1       7.717  22.113  54.703  1.00  0.00    -0.045 SA
HETATM   14  H   UNL     1       9.374  20.843  57.585  1.00  0.00     0.158 HD
HETATM   15  H   UNL     1       9.128  20.096  56.077  1.00  0.00     0.158 HD
ENDBRANCH   4   7
ENDBRANCH   1   3
BRANCH   2  16
HETATM   16  C   UNL     1       6.310  28.174  54.704  1.00  0.00    -0.014 C 
HETATM   17  C   UNL     1       7.728  28.172  54.224  1.00  0.00     0.216 C 
HETATM   18  O   UNL     1       8.718  28.396  55.240  1.00  0.00    -0.344 OA
HETATM   19  C   UNL     1       8.341  29.136  56.331  1.00  0.00     0.101 A 
HETATM   20  C   UNL     1       6.996  29.289  56.696  1.00  0.00     0.001 A 
HETATM   21  C   UNL     1       9.343  29.708  57.127  1.00  0.00     0.069 A 
HETATM   22  C   UNL     1       6.662  30.032  57.834  1.00  0.00     0.038 A 
HETATM   23  C   UNL     1       5.952  28.657  55.899  1.00  0.00     0.025 C 
HETATM   24  C   UNL     1       7.670  30.614  58.602  1.00  0.00     0.036 A 
HETATM   25  C   UNL     1       9.009  30.454  58.258  1.00  0.00     0.050 A 
HETATM   26 CL   UNL     1       7.251  31.540  59.991  1.00  0.00    -0.084 Cl
HETATM   27 CL   UNL     1      11.014  29.527  56.731  1.00  0.00    -0.081 Cl
ENDBRANCH   2  16
TORSDOF 3
ENDMDL
MODEL 6
REMARK VINA RESULT:      -8.2      5.258      9.222
REMARK  3 active torsions:
REMARK  status: ('A' for Active; 'I' for Inactive)
REMARK    1  A    between atoms: C_7  and  C_8 
REMARK       I    between atoms: C_8  and  N_9 
REMARK    2  A    between atoms: N_9  and  N_10 
REMARK    3  A    between atoms: C_11  and  C_12 
ROOT
HETATM    1  N   UNL     1       3.457  31.024  58.001  1.00  0.00    -0.184 NA
HETATM    2  C   UNL     1       3.734  32.005  58.799  1.00  0.00     0.148 C 
ENDROOT
BRANCH   1   3
HETATM    3  N   UNL     1       4.245  29.913  58.043  1.00  0.00    -0.243 N 
HETATM    4  C   UNL     1       4.904  29.449  56.909  1.00  0.00     0.280 C 
HETATM    5  O   UNL     1       4.790  29.978  55.806  1.00  0.00    -0.265 OA
HETATM    6  H   UNL     1       4.367  29.414  58.916  1.00  0.00     0.192 HD
BRANCH   4   7
HETATM    7  C   UNL     1       5.771  28.303  57.142  1.00  0.00     0.102 A 
HETATM    8  C   UNL     1       7.080  28.294  57.602  1.00  0.00     0.056 A 
HETATM    9  C   UNL     1       7.912  29.475  57.959  1.00  0.00     0.072 C 
HETATM   10  N   UNL     1       7.641  27.032  57.747  1.00  0.00    -0.228 NA
HETATM   11  C   UNL     1       6.780  26.108  57.411  1.00  0.00     0.165 A 
HETATM   12  N   UNL     1       7.058  24.796  57.462  1.00  0.00    -0.378 N 
HETATM   13  S   UNL     1       5.257  26.682  56.880  1.00  0.00    -0.045 SA
HETATM   14  H   UNL     1       8.042  24.567  57.546  1.00  0.00     0.158 HD
HETATM   15  H   UNL     1       6.534  24.168  56.866  1.00  0.00     0.158 HD
ENDBRANCH   4   7
ENDBRANCH   1   3
BRANCH   2  16
HETATM   16  C   UNL     1       4.872  32.177  59.738  1.00  0.00    -0.014 C 
HETATM   17  C   UNL     1       6.252  32.048  59.170  1.00  0.00     0.216 C 
HETATM   18  O   UNL     1       7.286  31.777  60.130  1.00  0.00    -0.344 OA
HETATM   19  C   UNL     1       7.086  32.227  61.410  1.00  0.00     0.101 A 
HETATM   20  C   UNL     1       5.806  32.519  61.904  1.00  0.00     0.001 A 
HETATM   21  C   UNL     1       8.197  32.346  62.255  1.00  0.00     0.069 A 
HETATM   22  C   UNL     1       5.651  32.950  63.226  1.00  0.00     0.038 A 
HETATM   23  C   UNL     1       4.642  32.352  61.043  1.00  0.00     0.025 C 
HETATM   24  C   UNL     1       6.770  33.085  64.047  1.00  0.00     0.036 A 
HETATM   25  C   UNL     1       8.042  32.782  63.571  1.00  0.00     0.050 A 
HETATM   26 CL   UNL     1       6.572  33.630  65.667  1.00  0.00    -0.084 Cl
HETATM   27 CL   UNL     1       9.790  31.976  61.699  1.00  0.00    -0.081 Cl
ENDBRANCH   2  16
TORSDOF 3
ENDMDL
MODEL 7
REMARK VINA RESULT:      -8.1      5.572     10.170
REMARK  3 active torsions:
REMARK  status: ('A' for Active; 'I' for Inactive)
REMARK    1  A    between atoms: C_7  and  C_8 
REMARK       I    between atoms: C_8  and  N_9 
REMARK    2  A    between atoms: N_9  and  N_10 
REMARK    3  A    between atoms: C_11  and  C_12 
ROOT
HETATM    1  N   UNL     1       9.782  30.675  59.217  1.00  0.00    -0.184 NA
HETATM    2  C   UNL     1       9.695  31.509  60.203  1.00  0.00     0.148 C 
ENDROOT
BRANCH   1   3
HETATM    3  N   UNL     1       8.641  30.077  58.772  1.00  0.00    -0.243 N 
HETATM    4  C   UNL     1       8.584  29.461  57.526  1.00  0.00     0.280 C 
HETATM    5  O   UNL     1       9.530  29.451  56.742  1.00  0.00    -0.265 OA
HETATM    6  H   UNL     1       7.816  30.066  59.359  1.00  0.00     0.192 HD
BRANCH   4   7
HETATM    7  C   UNL     1       7.321  28.797  57.238  1.00  0.00     0.102 A 
HETATM    8  C   UNL     1       7.046  27.437  57.233  1.00  0.00     0.056 A 
HETATM    9  C   UNL     1       7.998  26.329  57.517  1.00  0.00     0.072 C 
HETATM   10  N   UNL     1       5.729  27.108  56.942  1.00  0.00    -0.228 NA
HETATM   11  C   UNL     1       5.022  28.188  56.736  1.00  0.00     0.165 A 
HETATM   12  N   UNL     1       3.714  28.161  56.441  1.00  0.00    -0.378 N 
HETATM   13  S   UNL     1       5.884  29.662  56.853  1.00  0.00    -0.045 SA
HETATM   14  H   UNL     1       3.356  27.257  56.153  1.00  0.00     0.158 HD
HETATM   15  H   UNL     1       3.315  28.945  55.942  1.00  0.00     0.158 HD
ENDBRANCH   4   7
ENDBRANCH   1   3
BRANCH   2  16
HETATM   16  C   UNL     1       8.523  31.880  61.037  1.00  0.00    -0.014 C 
HETATM   17  C   UNL     1       7.166  31.663  60.442  1.00  0.00     0.216 C 
HETATM   18  O   UNL     1       6.104  32.415  61.051  1.00  0.00    -0.344 OA
HETATM   19  C   UNL     1       6.253  32.753  62.372  1.00  0.00     0.101 A 
HETATM   20  C   UNL     1       7.510  32.793  62.992  1.00  0.00     0.001 A 
HETATM   21  C   UNL     1       5.111  33.117  63.099  1.00  0.00     0.069 A 
HETATM   22  C   UNL     1       7.613  33.170  64.335  1.00  0.00     0.038 A 
HETATM   23  C   UNL     1       8.705  32.461  62.227  1.00  0.00     0.025 C 
HETATM   24  C   UNL     1       6.465  33.507  65.051  1.00  0.00     0.036 A 
HETATM   25  C   UNL     1       5.215  33.487  64.440  1.00  0.00     0.050 A 
HETATM   26 CL   UNL     1       6.598  33.954  66.707  1.00  0.00    -0.084 Cl
HETATM   27 CL   UNL     1       3.544  33.106  62.373  1.00  0.00    -0.081 Cl
ENDBRANCH   2  16
TORSDOF 3
ENDMDL
MODEL 8
REMARK VINA RESULT:      -8.0      4.941      7.503
REMARK  3 active torsions:
REMARK  status: ('A' for Active; 'I' for Inactive)
REMARK    1  A    between atoms: C_7  and  C_8 
REMARK       I    between atoms: C_8  and  N_9 
REMARK    2  A    between atoms: N_9  and  N_10 
REMARK    3  A    between atoms: C_11  and  C_12 
ROOT
HETATM    1  N   UNL     1       9.234  32.492  60.222  1.00  0.00    -0.184 NA
HETATM    2  C   UNL     1       9.328  31.623  59.268  1.00  0.00     0.148 C 
ENDROOT
BRANCH   1   3
HETATM    3  N   UNL     1       8.016  32.685  60.804  1.00  0.00    -0.243 N 
HETATM    4  C   UNL     1       7.704  32.119  62.037  1.00  0.00     0.280 C 
HETATM    5  O   UNL     1       8.478  31.389  62.651  1.00  0.00    -0.265 OA
HETATM    6  H   UNL     1       7.322  33.260  60.342  1.00  0.00     0.192 HD
BRANCH   4   7
HETATM    7  C   UNL     1       6.397  32.491  62.557  1.00  0.00     0.102 A 
HETATM    8  C   UNL     1       6.086  33.022  63.801  1.00  0.00     0.056 A 
HETATM    9  C   UNL     1       7.034  33.330  64.906  1.00  0.00     0.072 C 
HETATM   10  N   UNL     1       4.740  33.298  63.999  1.00  0.00    -0.228 NA
HETATM   11  C   UNL     1       4.048  32.990  62.934  1.00  0.00     0.165 A 
HETATM   12  N   UNL     1       2.720  33.161  62.849  1.00  0.00    -0.378 N 
HETATM   13  S   UNL     1       4.951  32.331  61.638  1.00  0.00    -0.045 SA
HETATM   14  H   UNL     1       2.249  33.318  63.733  1.00  0.00     0.158 HD
HETATM   15  H   UNL     1       2.200  32.589  62.196  1.00  0.00     0.158 HD
ENDBRANCH   4   7
ENDBRANCH   1   3
BRANCH   2  16
HETATM   16  C   UNL     1       8.270  30.821  58.602  1.00  0.00    -0.014 C 
HETATM   17  C   UNL     1       7.074  31.561  58.087  1.00  0.00     0.216 C 
HETATM   18  O   UNL     1       5.906  30.754  57.863  1.00  0.00    -0.344 OA
HETATM   19  C   UNL     1       6.107  29.433  57.558  1.00  0.00     0.101 A 
HETATM   20  C   UNL     1       7.297  28.767  57.882  1.00  0.00     0.001 A 
HETATM   21  C   UNL     1       5.061  28.723  56.951  1.00  0.00     0.069 A 
HETATM   22  C   UNL     1       7.444  27.410  57.575  1.00  0.00     0.038 A 
HETATM   23  C   UNL     1       8.370  29.488  58.556  1.00  0.00     0.025 C 
HETATM   24  C   UNL     1       6.402  26.724  56.950  1.00  0.00     0.036 A 
HETATM   25  C   UNL     1       5.210  27.372  56.639  1.00  0.00     0.050 A 
HETATM   26 CL   UNL     1       6.596  25.060  56.561  1.00  0.00    -0.084 Cl
HETATM   27 CL   UNL     1       3.567  29.494  56.554  1.00  0.00    -0.081 Cl
ENDBRANCH   2  16
TORSDOF 3
ENDMDL
MODEL 9
REMARK VINA RESULT:      -7.9      4.618      6.942
REMARK  3 active torsions:
REMARK  status: ('A' for Active; 'I' for Inactive)
REMARK    1  A    between atoms: C_7  and  C_8 
REMARK       I    between atoms: C_8  and  N_9 
REMARK    2  A    between atoms: N_9  and  N_10 
REMARK    3  A    between atoms: C_11  and  C_12 
ROOT
HETATM    1  N   UNL     1       6.671  24.042  54.376  1.00  0.00    -0.184 NA
HETATM    2  C   UNL     1       6.761  24.399  55.616  1.00  0.00     0.148 C 
ENDROOT
BRANCH   1   3
HETATM    3  N   UNL     1       6.547  25.016  53.430  1.00  0.00    -0.243 N 
HETATM    4  C   UNL     1       5.312  25.328  52.868  1.00  0.00     0.280 C 
HETATM    5  O   UNL     1       4.278  24.729  53.153  1.00  0.00    -0.265 OA
HETATM    6  H   UNL     1       7.363  25.536  53.131  1.00  0.00     0.192 HD
BRANCH   4   7
HETATM    7  C   UNL     1       5.339  26.446  51.937  1.00  0.00     0.102 A 
HETATM    8  C   UNL     1       5.640  27.775  52.198  1.00  0.00     0.056 A 
HETATM    9  C   UNL     1       6.004  28.370  53.512  1.00  0.00     0.072 C 
HETATM   10  N   UNL     1       5.605  28.612  51.090  1.00  0.00    -0.228 NA
HETATM   11  C   UNL     1       5.290  27.936  50.017  1.00  0.00     0.165 A 
HETATM   12  N   UNL     1       5.189  28.497  48.802  1.00  0.00    -0.378 N 
HETATM   13  S   UNL     1       4.993  26.268  50.261  1.00  0.00    -0.045 SA
HETATM   14  H   UNL     1       5.138  29.509  48.798  1.00  0.00     0.158 HD
HETATM   15  H   UNL     1       4.604  28.048  48.110  1.00  0.00     0.158 HD
ENDBRANCH   4   7
ENDBRANCH   1   3
BRANCH   2  16
HETATM   16  C   UNL     1       6.660  25.748  56.230  1.00  0.00    -0.014 C 
HETATM   17  C   UNL     1       5.289  26.240  56.577  1.00  0.00     0.216 C 
HETATM   18  O   UNL     1       5.172  27.662  56.741  1.00  0.00    -0.344 OA
HETATM   19  C   UNL     1       6.292  28.339  57.151  1.00  0.00     0.101 A 
HETATM   20  C   UNL     1       7.581  27.812  56.988  1.00  0.00     0.001 A 
HETATM   21  C   UNL     1       6.133  29.619  57.701  1.00  0.00     0.069 A 
HETATM   22  C   UNL     1       8.695  28.553  57.398  1.00  0.00     0.038 A 
HETATM   23  C   UNL     1       7.755  26.501  56.374  1.00  0.00     0.025 C 
HETATM   24  C   UNL     1       8.517  29.815  57.965  1.00  0.00     0.036 A 
HETATM   25  C   UNL     1       7.243  30.354  58.115  1.00  0.00     0.050 A 
HETATM   26 CL   UNL     1       9.891  30.714  58.481  1.00  0.00    -0.084 Cl
HETATM   27 CL   UNL     1       4.567  30.320  57.900  1.00  0.00    -0.081 Cl
ENDBRANCH   2  16
TORSDOF 3
ENDMDL
MODEL 10
REMARK VINA RESULT:      -7.9      3.469      3.979
REMARK  3 active torsions:
REMARK  status: ('A' for Active; 'I' for Inactive)
REMARK    1  A    between atoms: C_7  and  C_8 
REMARK       I    between atoms: C_8  and  N_9 
REMARK    2  A    between atoms: N_9  and  N_10 
REMARK    3  A    between atoms: C_11  and  C_12 
ROOT
HETATM    1  N   UNL     1       5.180  27.435  51.470  1.00  0.00    -0.184 NA
HETATM    2  C   UNL     1       5.851  26.329  51.441  1.00  0.00     0.148 C 
ENDROOT
BRANCH   1   3
HETATM    3  N   UNL     1       5.090  28.106  52.654  1.00  0.00    -0.243 N 
HETATM    4  C   UNL     1       3.893  28.677  53.074  1.00  0.00     0.280 C 
HETATM    5  O   UNL     1       2.866  28.649  52.400  1.00  0.00    -0.265 OA
HETATM    6  H   UNL     1       5.904  28.186  53.251  1.00  0.00     0.192 HD
BRANCH   4   7
HETATM    7  C   UNL     1       3.944  29.282  54.397  1.00  0.00     0.102 A 
HETATM    8  C   UNL     1       3.694  30.600  54.749  1.00  0.00     0.056 A 
HETATM    9  C   UNL     1       3.318  31.716  53.839  1.00  0.00     0.072 C 
HETATM   10  N   UNL     1       3.801  30.873  56.106  1.00  0.00    -0.228 NA
HETATM   11  C   UNL     1       4.118  29.791  56.767  1.00  0.00     0.165 A 
HETATM   12  N   UNL     1       4.280  29.768  58.098  1.00  0.00    -0.378 N 
HETATM   13  S   UNL     1       4.333  28.386  55.814  1.00  0.00    -0.045 SA
HETATM   14  H   UNL     1       4.377  30.677  58.537  1.00  0.00     0.158 HD
HETATM   15  H   UNL     1       4.865  29.048  58.502  1.00  0.00     0.158 HD
ENDBRANCH   4   7
ENDBRANCH   1   3
BRANCH   2  16
HETATM   16  C   UNL     1       6.498  25.577  52.546  1.00  0.00    -0.014 C 
HETATM   17  C   UNL     1       6.678  26.295  53.847  1.00  0.00     0.216 C 
HETATM   18  O   UNL     1       7.670  25.734  54.723  1.00  0.00    -0.344 OA
HETATM   19  C   UNL     1       7.910  24.389  54.617  1.00  0.00     0.101 A 
HETATM   20  C   UNL     1       7.587  23.664  53.461  1.00  0.00     0.001 A 
HETATM   21  C   UNL     1       8.546  23.739  55.685  1.00  0.00     0.069 A 
HETATM   22  C   UNL     1       7.877  22.297  53.391  1.00  0.00     0.038 A 
HETATM   23  C   UNL     1       6.968  24.344  52.330  1.00  0.00     0.025 C 
HETATM   24  C   UNL     1       8.490  21.662  54.471  1.00  0.00     0.036 A 
HETATM   25  C   UNL     1       8.830  22.375  55.616  1.00  0.00     0.050 A 
HETATM   26 CL   UNL     1       8.829  19.977  54.383  1.00  0.00    -0.084 Cl
HETATM   27 CL   UNL     1       8.985  24.594  57.120  1.00  0.00    -0.081 Cl
ENDBRANCH   2  16
TORSDOF 3
ENDMDL
