MODEL 1
REMARK VINA RESULT:      -9.8      0.000      0.000
REMARK  7 active torsions:
REMARK  status: ('A' for Active; 'I' for Inactive)
REMARK    1  A    between atoms: C_2  and  O_3 
REMARK    2  A    between atoms: O_3  and  C_4 
REMARK    3  A    between atoms: C_7  and  C_8 
REMARK    4  A    between atoms: N_9  and  N_10 
REMARK    5  A    between atoms: C_21  and  C_22 
REMARK       I    between atoms: C_22  and  N_23 
REMARK    6  A    between atoms: N_23  and  C_24 
REMARK    7  A    between atoms: C_31  and  N_32 
ROOT
HETATM    1  N   UNL     1       6.948  27.767  56.355  1.00  0.00    -0.197 N 
HETATM    2  C   UNL     1       6.525  27.363  55.093  1.00  0.00     0.183 A 
HETATM    3  C   UNL     1       7.044  26.092  54.884  1.00  0.00     0.125 A 
HETATM    4  N   UNL     1       6.940  25.461  53.685  1.00  0.00    -0.242 NA
HETATM    5  C   UNL     1       6.222  26.129  52.772  1.00  0.00     0.086 A 
HETATM    6  C   UNL     1       5.668  27.416  53.012  1.00  0.00     0.088 A 
HETATM    7  N   UNL     1       5.839  28.081  54.172  1.00  0.00    -0.225 NA
HETATM    8  C   UNL     1       6.006  25.512  51.546  1.00  0.00     0.034 A 
HETATM    9  C   UNL     1       5.241  26.116  50.550  1.00  0.00     0.002 A 
HETATM   10  C   UNL     1       4.684  27.366  50.785  1.00  0.00     0.002 A 
HETATM   11  C   UNL     1       4.907  28.004  52.009  1.00  0.00     0.034 A 
HETATM   12  C   UNL     1       7.671  25.658  56.073  1.00  0.00     0.110 C 
HETATM   13  C   UNL     1       7.383  26.611  57.038  1.00  0.00     0.143 C 
ENDROOT
BRANCH   1  14
HETATM   14  N   UNL     1       7.402  29.041  56.628  1.00  0.00    -0.176 NA
HETATM   15  C   UNL     1       6.710  29.684  57.508  1.00  0.00     0.150 C 
BRANCH  15  16
HETATM   16  C   UNL     1       7.368  30.553  58.505  1.00  0.00    -0.017 A 
HETATM   17  C   UNL     1       8.509  30.079  59.167  1.00  0.00     0.016 A 
HETATM   18  C   UNL     1       8.917  30.673  60.361  1.00  0.00     0.037 A 
HETATM   19  C   UNL     1       8.184  31.735  60.890  1.00  0.00     0.068 A 
HETATM   20  C   UNL     1       7.112  32.274  60.175  1.00  0.00     0.037 A 
HETATM   21  C   UNL     1       6.687  31.672  58.987  1.00  0.00     0.016 A 
BRANCH  19  22
HETATM   22  O   UNL     1       8.440  32.290  62.116  1.00  0.00    -0.352 OA
BRANCH  22  23
HETATM   23  C   UNL     1       7.268  32.407  62.935  1.00  0.00     0.171 C 
HETATM   24  C   UNL     1       7.655  33.095  64.231  1.00  0.00     0.034 C 
ENDBRANCH  22  23
ENDBRANCH  19  22
ENDBRANCH  15  16
ENDBRANCH   1  14
BRANCH  13  25
HETATM   25  N   UNL     1       7.678  26.567  58.369  1.00  0.00    -0.383 N 
HETATM   26  H   UNL     1       8.648  26.512  58.668  1.00  0.00     0.157 HD
HETATM   27  H   UNL     1       7.170  27.235  58.961  1.00  0.00     0.157 HD
ENDBRANCH  13  25
BRANCH  12  28
HETATM   28  C   UNL     1       8.481  24.473  56.281  1.00  0.00     0.258 C 
HETATM   29  N   UNL     1       8.611  23.706  55.148  1.00  0.00    -0.352 N 
HETATM   30  H   UNL     1       7.982  23.917  54.379  1.00  0.00     0.163 HD
HETATM   31  O   UNL     1       9.057  24.235  57.338  1.00  0.00    -0.267 OA
BRANCH  29  32
HETATM   32  C   UNL     1       9.387  22.481  55.088  1.00  0.00     0.084 C 
HETATM   33  C   UNL     1       8.771  21.421  56.006  1.00  0.00     0.025 C 
HETATM   34  C   UNL     1       7.423  20.923  55.485  1.00  0.00     0.002 C 
HETATM   35  C   UNL     1       7.525  20.416  54.049  1.00  0.00     0.000 C 
HETATM   36  C   UNL     1       8.139  21.454  53.113  1.00  0.00     0.002 C 
HETATM   37  C   UNL     1       9.476  21.977  53.641  1.00  0.00     0.025 C 
ENDBRANCH  29  32
ENDBRANCH  12  28
TORSDOF 7
ENDMDL
MODEL 2
REMARK VINA RESULT:      -9.8      2.598      8.833
REMARK  7 active torsions:
REMARK  status: ('A' for Active; 'I' for Inactive)
REMARK    1  A    between atoms: C_2  and  O_3 
REMARK    2  A    between atoms: O_3  and  C_4 
REMARK    3  A    between atoms: C_7  and  C_8 
REMARK    4  A    between atoms: N_9  and  N_10 
REMARK    5  A    between atoms: C_21  and  C_22 
REMARK       I    between atoms: C_22  and  N_23 
REMARK    6  A    between atoms: N_23  and  C_24 
REMARK    7  A    between atoms: C_31  and  N_32 
ROOT
HETATM    1  N   UNL     1       5.305  28.518  56.899  1.00  0.00    -0.197 N 
HETATM    2  C   UNL     1       6.084  27.367  56.890  1.00  0.00     0.183 A 
HETATM    3  C   UNL     1       7.323  27.716  57.411  1.00  0.00     0.125 A 
HETATM    4  N   UNL     1       8.372  26.852  57.409  1.00  0.00    -0.242 NA
HETATM    5  C   UNL     1       8.078  25.628  56.952  1.00  0.00     0.086 A 
HETATM    6  C   UNL     1       6.794  25.275  56.453  1.00  0.00     0.088 A 
HETATM    7  N   UNL     1       5.773  26.152  56.376  1.00  0.00    -0.225 NA
HETATM    8  C   UNL     1       9.081  24.668  56.992  1.00  0.00     0.034 A 
HETATM    9  C   UNL     1       8.854  23.358  56.573  1.00  0.00     0.002 A 
HETATM   10  C   UNL     1       7.598  23.004  56.099  1.00  0.00     0.002 A 
HETATM   11  C   UNL     1       6.584  23.965  56.040  1.00  0.00     0.034 A 
HETATM   12  C   UNL     1       7.261  29.050  57.869  1.00  0.00     0.110 C 
HETATM   13  C   UNL     1       5.935  29.439  57.764  1.00  0.00     0.143 C 
ENDROOT
BRANCH   1  14
HETATM   14  N   UNL     1       4.478  28.882  55.856  1.00  0.00    -0.176 NA
HETATM   15  C   UNL     1       5.083  29.098  54.736  1.00  0.00     0.150 C 
BRANCH  15  16
HETATM   16  C   UNL     1       4.484  28.674  53.454  1.00  0.00    -0.017 A 
HETATM   17  C   UNL     1       5.109  27.657  52.720  1.00  0.00     0.016 A 
HETATM   18  C   UNL     1       4.823  27.502  51.363  1.00  0.00     0.037 A 
HETATM   19  C   UNL     1       3.918  28.365  50.746  1.00  0.00     0.068 A 
HETATM   20  C   UNL     1       3.217  29.307  51.503  1.00  0.00     0.037 A 
HETATM   21  C   UNL     1       3.513  29.478  52.858  1.00  0.00     0.016 A 
BRANCH  19  22
HETATM   22  O   UNL     1       3.676  28.365  49.398  1.00  0.00    -0.352 OA
BRANCH  22  23
HETATM   23  C   UNL     1       3.886  27.082  48.790  1.00  0.00     0.171 C 
HETATM   24  C   UNL     1       4.898  27.242  47.670  1.00  0.00     0.034 C 
ENDBRANCH  22  23
ENDBRANCH  19  22
ENDBRANCH  15  16
ENDBRANCH   1  14
BRANCH  13  25
HETATM   25  N   UNL     1       5.370  30.605  58.193  1.00  0.00    -0.383 N 
HETATM   26  H   UNL     1       5.715  31.049  59.039  1.00  0.00     0.157 HD
HETATM   27  H   UNL     1       5.207  31.314  57.469  1.00  0.00     0.157 HD
ENDBRANCH  13  25
BRANCH  12  28
HETATM   28  C   UNL     1       8.346  29.889  58.343  1.00  0.00     0.258 C 
HETATM   29  N   UNL     1       8.300  30.110  59.698  1.00  0.00    -0.352 N 
HETATM   30  H   UNL     1       7.438  29.860  60.174  1.00  0.00     0.163 HD
HETATM   31  O   UNL     1       9.251  30.283  57.614  1.00  0.00    -0.267 OA
BRANCH  29  32
HETATM   32  C   UNL     1       9.282  30.900  60.419  1.00  0.00     0.084 C 
HETATM   33  C   UNL     1       8.920  32.386  60.345  1.00  0.00     0.025 C 
HETATM   34  C   UNL     1       7.659  32.711  61.145  1.00  0.00     0.002 C 
HETATM   35  C   UNL     1       7.772  32.243  62.593  1.00  0.00     0.000 C 
HETATM   36  C   UNL     1       8.135  30.764  62.695  1.00  0.00     0.002 C 
HETATM   37  C   UNL     1       9.381  30.426  61.876  1.00  0.00     0.025 C 
ENDBRANCH  29  32
ENDBRANCH  12  28
TORSDOF 7
ENDMDL
MODEL 3
REMARK VINA RESULT:      -9.6      3.005      9.889
REMARK  7 active torsions:
REMARK  status: ('A' for Active; 'I' for Inactive)
REMARK    1  A    between atoms: C_2  and  O_3 
REMARK    2  A    between atoms: O_3  and  C_4 
REMARK    3  A    between atoms: C_7  and  C_8 
REMARK    4  A    between atoms: N_9  and  N_10 
REMARK    5  A    between atoms: C_21  and  C_22 
REMARK       I    between atoms: C_22  and  N_23 
REMARK    6  A    between atoms: N_23  and  C_24 
REMARK    7  A    between atoms: C_31  and  N_32 
ROOT
HETATM    1  N   UNL     1       6.659  28.047  57.061  1.00  0.00    -0.197 N 
HETATM    2  C   UNL     1       7.044  29.069  57.922  1.00  0.00     0.183 A 
HETATM    3  C   UNL     1       6.210  30.148  57.662  1.00  0.00     0.125 A 
HETATM    4  N   UNL     1       6.411  31.365  58.232  1.00  0.00    -0.242 NA
HETATM    5  C   UNL     1       7.412  31.398  59.121  1.00  0.00     0.086 A 
HETATM    6  C   UNL     1       8.237  30.275  59.402  1.00  0.00     0.088 A 
HETATM    7  N   UNL     1       8.094  29.089  58.778  1.00  0.00    -0.225 NA
HETATM    8  C   UNL     1       7.628  32.590  59.802  1.00  0.00     0.034 A 
HETATM    9  C   UNL     1       8.623  32.705  60.772  1.00  0.00     0.002 A 
HETATM   10  C   UNL     1       9.421  31.608  61.060  1.00  0.00     0.002 A 
HETATM   11  C   UNL     1       9.224  30.407  60.371  1.00  0.00     0.034 A 
HETATM   12  C   UNL     1       5.221  29.743  56.738  1.00  0.00     0.110 C 
HETATM   13  C   UNL     1       5.376  28.376  56.573  1.00  0.00     0.143 C 
ENDROOT
BRANCH   1  14
HETATM   14  N   UNL     1       7.558  27.244  56.389  1.00  0.00    -0.176 NA
HETATM   15  C   UNL     1       7.904  26.173  57.019  1.00  0.00     0.150 C 
BRANCH  15  16
HETATM   16  C   UNL     1       8.095  24.896  56.300  1.00  0.00    -0.017 A 
HETATM   17  C   UNL     1       7.416  24.694  55.091  1.00  0.00     0.016 A 
HETATM   18  C   UNL     1       7.250  23.401  54.594  1.00  0.00     0.037 A 
HETATM   19  C   UNL     1       7.759  22.316  55.308  1.00  0.00     0.068 A 
HETATM   20  C   UNL     1       8.527  22.529  56.455  1.00  0.00     0.037 A 
HETATM   21  C   UNL     1       8.681  23.821  56.967  1.00  0.00     0.016 A 
BRANCH  19  22
HETATM   22  O   UNL     1       7.532  21.012  54.960  1.00  0.00    -0.352 OA
BRANCH  22  23
HETATM   23  C   UNL     1       8.651  20.404  54.298  1.00  0.00     0.171 C 
HETATM   24  C   UNL     1       8.383  20.401  52.805  1.00  0.00     0.034 C 
ENDBRANCH  22  23
ENDBRANCH  19  22
ENDBRANCH  15  16
ENDBRANCH   1  14
BRANCH  13  25
HETATM   25  N   UNL     1       4.579  27.524  55.864  1.00  0.00    -0.383 N 
HETATM   26  H   UNL     1       3.776  27.095  56.316  1.00  0.00     0.157 HD
HETATM   27  H   UNL     1       4.323  27.835  54.920  1.00  0.00     0.157 HD
ENDBRANCH  13  25
BRANCH  12  28
HETATM   28  C   UNL     1       4.237  30.563  56.058  1.00  0.00     0.258 C 
HETATM   29  N   UNL     1       4.221  31.863  56.505  1.00  0.00    -0.352 N 
HETATM   30  H   UNL     1       4.719  32.055  57.369  1.00  0.00     0.163 HD
HETATM   31  O   UNL     1       3.555  30.152  55.125  1.00  0.00    -0.267 OA
BRANCH  29  32
HETATM   32  C   UNL     1       3.341  32.888  55.973  1.00  0.00     0.084 C 
HETATM   33  C   UNL     1       3.129  33.992  57.012  1.00  0.00     0.025 C 
HETATM   34  C   UNL     1       4.398  34.810  57.247  1.00  0.00     0.002 C 
HETATM   35  C   UNL     1       4.954  35.378  55.944  1.00  0.00     0.000 C 
HETATM   36  C   UNL     1       5.172  34.296  54.890  1.00  0.00     0.002 C 
HETATM   37  C   UNL     1       3.914  33.456  54.668  1.00  0.00     0.025 C 
ENDBRANCH  29  32
ENDBRANCH  12  28
TORSDOF 7
ENDMDL
MODEL 4
REMARK VINA RESULT:      -9.5      1.813      2.506
REMARK  7 active torsions:
REMARK  status: ('A' for Active; 'I' for Inactive)
REMARK    1  A    between atoms: C_2  and  O_3 
REMARK    2  A    between atoms: O_3  and  C_4 
REMARK    3  A    between atoms: C_7  and  C_8 
REMARK    4  A    between atoms: N_9  and  N_10 
REMARK    5  A    between atoms: C_21  and  C_22 
REMARK       I    between atoms: C_22  and  N_23 
REMARK    6  A    between atoms: N_23  and  C_24 
REMARK    7  A    between atoms: C_31  and  N_32 
ROOT
HETATM    1  N   UNL     1       5.745  26.622  55.705  1.00  0.00    -0.197 N 
HETATM    2  C   UNL     1       5.207  27.042  54.494  1.00  0.00     0.183 A 
HETATM    3  C   UNL     1       5.816  26.287  53.500  1.00  0.00     0.125 A 
HETATM    4  N   UNL     1       5.623  26.546  52.181  1.00  0.00    -0.242 NA
HETATM    5  C   UNL     1       4.734  27.517  51.934  1.00  0.00     0.086 A 
HETATM    6  C   UNL     1       4.092  28.259  52.963  1.00  0.00     0.088 A 
HETATM    7  N   UNL     1       4.344  28.062  54.272  1.00  0.00    -0.225 NA
HETATM    8  C   UNL     1       4.426  27.785  50.606  1.00  0.00     0.034 A 
HETATM    9  C   UNL     1       3.485  28.753  50.257  1.00  0.00     0.002 A 
HETATM   10  C   UNL     1       2.845  29.470  51.257  1.00  0.00     0.002 A 
HETATM   11  C   UNL     1       3.157  29.220  52.597  1.00  0.00     0.034 A 
HETATM   12  C   UNL     1       6.628  25.306  54.112  1.00  0.00     0.110 C 
HETATM   13  C   UNL     1       6.373  25.379  55.472  1.00  0.00     0.143 C 
ENDROOT
BRANCH   1  14
HETATM   14  N   UNL     1       6.104  27.490  56.716  1.00  0.00    -0.176 NA
HETATM   15  C   UNL     1       7.373  27.699  56.825  1.00  0.00     0.150 C 
BRANCH  15  16
HETATM   16  C   UNL     1       7.897  29.042  57.146  1.00  0.00    -0.017 A 
HETATM   17  C   UNL     1       9.283  29.250  57.128  1.00  0.00     0.016 A 
HETATM   18  C   UNL     1       9.831  30.348  57.790  1.00  0.00     0.037 A 
HETATM   19  C   UNL     1       8.994  31.233  58.470  1.00  0.00     0.068 A 
HETATM   20  C   UNL     1       7.607  31.084  58.396  1.00  0.00     0.037 A 
HETATM   21  C   UNL     1       7.053  29.975  57.750  1.00  0.00     0.016 A 
BRANCH  19  22
HETATM   22  O   UNL     1       9.456  32.260  59.248  1.00  0.00    -0.352 OA
BRANCH  22  23
HETATM   23  C   UNL     1       8.739  32.396  60.484  1.00  0.00     0.171 C 
HETATM   24  C   UNL     1       9.505  31.658  61.566  1.00  0.00     0.034 C 
ENDBRANCH  22  23
ENDBRANCH  19  22
ENDBRANCH  15  16
ENDBRANCH   1  14
BRANCH  13  25
HETATM   25  N   UNL     1       6.837  24.554  56.455  1.00  0.00    -0.383 N 
HETATM   26  H   UNL     1       7.390  23.738  56.207  1.00  0.00     0.157 HD
HETATM   27  H   UNL     1       7.252  25.021  57.270  1.00  0.00     0.157 HD
ENDBRANCH  13  25
BRANCH  12  28
HETATM   28  C   UNL     1       7.569  24.399  53.483  1.00  0.00     0.258 C 
HETATM   29  N   UNL     1       7.465  23.110  53.950  1.00  0.00    -0.352 N 
HETATM   30  H   UNL     1       6.921  22.973  54.797  1.00  0.00     0.163 HD
HETATM   31  O   UNL     1       8.316  24.738  52.571  1.00  0.00    -0.267 OA
BRANCH  29  32
HETATM   32  C   UNL     1       8.280  22.010  53.468  1.00  0.00     0.084 C 
HETATM   33  C   UNL     1       9.672  22.069  54.102  1.00  0.00     0.025 C 
HETATM   34  C   UNL     1       9.636  21.754  55.598  1.00  0.00     0.002 C 
HETATM   35  C   UNL     1       8.959  20.415  55.878  1.00  0.00     0.000 C 
HETATM   36  C   UNL     1       7.569  20.330  55.253  1.00  0.00     0.002 C 
HETATM   37  C   UNL     1       7.592  20.669  53.762  1.00  0.00     0.025 C 
ENDBRANCH  29  32
ENDBRANCH  12  28
TORSDOF 7
ENDMDL
MODEL 5
REMARK VINA RESULT:      -9.5      2.027      5.377
REMARK  7 active torsions:
REMARK  status: ('A' for Active; 'I' for Inactive)
REMARK    1  A    between atoms: C_2  and  O_3 
REMARK    2  A    between atoms: O_3  and  C_4 
REMARK    3  A    between atoms: C_7  and  C_8 
REMARK    4  A    between atoms: N_9  and  N_10 
REMARK    5  A    between atoms: C_21  and  C_22 
REMARK       I    between atoms: C_22  and  N_23 
REMARK    6  A    between atoms: N_23  and  C_24 
REMARK    7  A    between atoms: C_31  and  N_32 
ROOT
HETATM    1  N   UNL     1       7.033  28.592  56.592  1.00  0.00    -0.197 N 
HETATM    2  C   UNL     1       7.206  27.288  56.143  1.00  0.00     0.183 A 
HETATM    3  C   UNL     1       6.303  27.098  55.105  1.00  0.00     0.125 A 
HETATM    4  N   UNL     1       6.109  25.880  54.535  1.00  0.00    -0.242 NA
HETATM    5  C   UNL     1       6.922  24.920  54.996  1.00  0.00     0.086 A 
HETATM    6  C   UNL     1       7.866  25.138  56.036  1.00  0.00     0.088 A 
HETATM    7  N   UNL     1       8.004  26.324  56.661  1.00  0.00    -0.225 NA
HETATM    8  C   UNL     1       6.835  23.665  54.406  1.00  0.00     0.034 A 
HETATM    9  C   UNL     1       7.668  22.617  54.796  1.00  0.00     0.002 A 
HETATM   10  C   UNL     1       8.602  22.829  55.801  1.00  0.00     0.002 A 
HETATM   11  C   UNL     1       8.689  24.083  56.412  1.00  0.00     0.034 A 
HETATM   12  C   UNL     1       5.671  28.329  54.825  1.00  0.00     0.110 C 
HETATM   13  C   UNL     1       6.317  29.285  55.592  1.00  0.00     0.143 C 
ENDROOT
BRANCH   1  14
HETATM   14  N   UNL     1       7.022  28.937  57.928  1.00  0.00    -0.176 NA
HETATM   15  C   UNL     1       8.110  29.483  58.356  1.00  0.00     0.150 C 
BRANCH  15  16
HETATM   16  C   UNL     1       8.071  30.598  59.324  1.00  0.00    -0.017 A 
HETATM   17  C   UNL     1       8.865  30.521  60.477  1.00  0.00     0.016 A 
HETATM   18  C   UNL     1       8.574  31.326  61.577  1.00  0.00     0.037 A 
HETATM   19  C   UNL     1       7.489  32.203  61.524  1.00  0.00     0.068 A 
HETATM   20  C   UNL     1       6.767  32.355  60.338  1.00  0.00     0.037 A 
HETATM   21  C   UNL     1       7.043  31.538  59.238  1.00  0.00     0.016 A 
BRANCH  19  22
HETATM   22  O   UNL     1       7.058  32.933  62.599  1.00  0.00    -0.352 OA
BRANCH  22  23
HETATM   23  C   UNL     1       7.890  32.774  63.757  1.00  0.00     0.171 C 
HETATM   24  C   UNL     1       7.297  33.592  64.890  1.00  0.00     0.034 C 
ENDBRANCH  22  23
ENDBRANCH  19  22
ENDBRANCH  15  16
ENDBRANCH   1  14
BRANCH  13  25
HETATM   25  N   UNL     1       6.132  30.637  55.573  1.00  0.00    -0.383 N 
HETATM   26  H   UNL     1       5.756  31.081  54.740  1.00  0.00     0.157 HD
HETATM   27  H   UNL     1       5.693  31.038  56.410  1.00  0.00     0.157 HD
ENDBRANCH  13  25
BRANCH  12  28
HETATM   28  C   UNL     1       4.552  28.584  53.937  1.00  0.00     0.258 C 
HETATM   29  N   UNL     1       4.836  28.301  52.622  1.00  0.00    -0.352 N 
HETATM   30  H   UNL     1       5.814  28.160  52.386  1.00  0.00     0.163 HD
HETATM   31  O   UNL     1       3.446  28.931  54.339  1.00  0.00    -0.267 OA
BRANCH  29  32
HETATM   32  C   UNL     1       3.880  28.453  51.540  1.00  0.00     0.084 C 
HETATM   33  C   UNL     1       3.696  29.935  51.203  1.00  0.00     0.025 C 
HETATM   34  C   UNL     1       4.944  30.536  50.557  1.00  0.00     0.002 C 
HETATM   35  C   UNL     1       5.384  29.742  49.331  1.00  0.00     0.000 C 
HETATM   36  C   UNL     1       5.572  28.259  49.640  1.00  0.00     0.002 C 
HETATM   37  C   UNL     1       4.337  27.656  50.311  1.00  0.00     0.025 C 
ENDBRANCH  29  32
ENDBRANCH  12  28
TORSDOF 7
ENDMDL
MODEL 6
REMARK VINA RESULT:      -9.3      2.137      5.917
REMARK  7 active torsions:
REMARK  status: ('A' for Active; 'I' for Inactive)
REMARK    1  A    between atoms: C_2  and  O_3 
REMARK    2  A    between atoms: O_3  and  C_4 
REMARK    3  A    between atoms: C_7  and  C_8 
REMARK    4  A    between atoms: N_9  and  N_10 
REMARK    5  A    between atoms: C_21  and  C_22 
REMARK       I    between atoms: C_22  and  N_23 
REMARK    6  A    between atoms: N_23  and  C_24 
REMARK    7  A    between atoms: C_31  and  N_32 
ROOT
HETATM    1  N   UNL     1       7.198  26.433  54.744  1.00  0.00    -0.197 N 
HETATM    2  C   UNL     1       7.546  25.122  54.438  1.00  0.00     0.183 A 
HETATM    3  C   UNL     1       6.971  24.830  53.209  1.00  0.00     0.125 A 
HETATM    4  N   UNL     1       6.996  23.578  52.683  1.00  0.00    -0.242 NA
HETATM    5  C   UNL     1       7.694  22.691  53.405  1.00  0.00     0.086 A 
HETATM    6  C   UNL     1       8.306  23.014  54.647  1.00  0.00     0.088 A 
HETATM    7  N   UNL     1       8.214  24.234  55.212  1.00  0.00    -0.225 NA
HETATM    8  C   UNL     1       7.829  21.407  52.891  1.00  0.00     0.034 A 
HETATM    9  C   UNL     1       8.569  20.430  53.556  1.00  0.00     0.002 A 
HETATM   10  C   UNL     1       9.182  20.744  54.761  1.00  0.00     0.002 A 
HETATM   11  C   UNL     1       9.041  22.028  55.296  1.00  0.00     0.034 A 
HETATM   12  C   UNL     1       6.385  26.007  52.692  1.00  0.00     0.110 C 
HETATM   13  C   UNL     1       6.753  27.035  53.547  1.00  0.00     0.143 C 
ENDROOT
BRANCH   1  14
HETATM   14  N   UNL     1       6.804  26.839  56.003  1.00  0.00    -0.176 NA
HETATM   15  C   UNL     1       7.696  27.501  56.661  1.00  0.00     0.150 C 
BRANCH  15  16
HETATM   16  C   UNL     1       7.317  28.652  57.506  1.00  0.00    -0.017 A 
HETATM   17  C   UNL     1       6.062  29.246  57.315  1.00  0.00     0.016 A 
HETATM   18  C   UNL     1       5.824  30.536  57.789  1.00  0.00     0.037 A 
HETATM   19  C   UNL     1       6.841  31.229  58.447  1.00  0.00     0.068 A 
HETATM   20  C   UNL     1       8.053  30.594  58.730  1.00  0.00     0.037 A 
HETATM   21  C   UNL     1       8.303  29.309  58.242  1.00  0.00     0.016 A 
BRANCH  19  22
HETATM   22  O   UNL     1       6.734  32.539  58.830  1.00  0.00    -0.352 OA
BRANCH  22  23
HETATM   23  C   UNL     1       5.722  32.753  59.824  1.00  0.00     0.171 C 
HETATM   24  C   UNL     1       6.392  32.816  61.185  1.00  0.00     0.034 C 
ENDBRANCH  22  23
ENDBRANCH  19  22
ENDBRANCH  15  16
ENDBRANCH   1  14
BRANCH  13  25
HETATM   25  N   UNL     1       6.519  28.371  53.396  1.00  0.00    -0.383 N 
HETATM   26  H   UNL     1       7.196  29.042  53.746  1.00  0.00     0.157 HD
HETATM   27  H   UNL     1       6.186  28.663  52.470  1.00  0.00     0.157 HD
ENDBRANCH  13  25
BRANCH  12  28
HETATM   28  C   UNL     1       5.543  26.152  51.520  1.00  0.00     0.258 C 
HETATM   29  N   UNL     1       5.783  27.316  50.829  1.00  0.00    -0.352 N 
HETATM   30  H   UNL     1       6.340  28.022  51.300  1.00  0.00     0.163 HD
HETATM   31  O   UNL     1       4.762  25.282  51.147  1.00  0.00    -0.267 OA
BRANCH  29  32
HETATM   32  C   UNL     1       5.086  27.687  49.610  1.00  0.00     0.084 C 
HETATM   33  C   UNL     1       3.650  28.109  49.932  1.00  0.00     0.025 C 
HETATM   34  C   UNL     1       3.598  29.432  50.697  1.00  0.00     0.002 C 
HETATM   35  C   UNL     1       4.346  30.540  49.962  1.00  0.00     0.000 C 
HETATM   36  C   UNL     1       5.781  30.142  49.626  1.00  0.00     0.002 C 
HETATM   37  C   UNL     1       5.844  28.807  48.884  1.00  0.00     0.025 C 
ENDBRANCH  29  32
ENDBRANCH  12  28
TORSDOF 7
ENDMDL
MODEL 7
REMARK VINA RESULT:      -9.3      2.549      9.105
REMARK  7 active torsions:
REMARK  status: ('A' for Active; 'I' for Inactive)
REMARK    1  A    between atoms: C_2  and  O_3 
REMARK    2  A    between atoms: O_3  and  C_4 
REMARK    3  A    between atoms: C_7  and  C_8 
REMARK    4  A    between atoms: N_9  and  N_10 
REMARK    5  A    between atoms: C_21  and  C_22 
REMARK       I    between atoms: C_22  and  N_23 
REMARK    6  A    between atoms: N_23  and  C_24 
REMARK    7  A    between atoms: C_31  and  N_32 
ROOT
HETATM    1  N   UNL     1       8.314  29.451  57.199  1.00  0.00    -0.197 N 
HETATM    2  C   UNL     1       7.079  29.994  56.861  1.00  0.00     0.183 A 
HETATM    3  C   UNL     1       6.706  30.826  57.908  1.00  0.00     0.125 A 
HETATM    4  N   UNL     1       5.478  31.404  57.964  1.00  0.00    -0.242 NA
HETATM    5  C   UNL     1       4.711  31.175  56.889  1.00  0.00     0.086 A 
HETATM    6  C   UNL     1       5.121  30.348  55.808  1.00  0.00     0.088 A 
HETATM    7  N   UNL     1       6.306  29.706  55.787  1.00  0.00    -0.225 NA
HETATM    8  C   UNL     1       3.470  31.798  56.840  1.00  0.00     0.034 A 
HETATM    9  C   UNL     1       2.622  31.647  55.743  1.00  0.00     0.002 A 
HETATM   10  C   UNL     1       3.023  30.853  54.678  1.00  0.00     0.002 A 
HETATM   11  C   UNL     1       4.264  30.209  54.723  1.00  0.00     0.034 A 
HETATM   12  C   UNL     1       7.775  30.903  58.828  1.00  0.00     0.110 C 
HETATM   13  C   UNL     1       8.843  30.241  58.243  1.00  0.00     0.143 C 
ENDROOT
BRANCH   1  14
HETATM   14  N   UNL     1       8.641  28.127  56.991  1.00  0.00    -0.176 NA
HETATM   15  C   UNL     1       7.892  27.280  57.615  1.00  0.00     0.150 C 
BRANCH  15  16
HETATM   16  C   UNL     1       7.484  26.012  56.977  1.00  0.00    -0.017 A 
HETATM   17  C   UNL     1       8.311  24.889  57.116  1.00  0.00     0.016 A 
HETATM   18  C   UNL     1       8.183  23.817  56.233  1.00  0.00     0.037 A 
HETATM   19  C   UNL     1       7.233  23.873  55.212  1.00  0.00     0.068 A 
HETATM   20  C   UNL     1       6.340  24.945  55.142  1.00  0.00     0.037 A 
HETATM   21  C   UNL     1       6.476  26.030  56.013  1.00  0.00     0.016 A 
BRANCH  19  22
HETATM   22  O   UNL     1       7.127  22.926  54.229  1.00  0.00    -0.352 OA
BRANCH  22  23
HETATM   23  C   UNL     1       8.079  21.861  54.370  1.00  0.00     0.171 C 
HETATM   24  C   UNL     1       7.890  20.894  53.216  1.00  0.00     0.034 C 
ENDBRANCH  22  23
ENDBRANCH  19  22
ENDBRANCH  15  16
ENDBRANCH   1  14
BRANCH  13  25
HETATM   25  N   UNL     1      10.124  30.150  58.704  1.00  0.00    -0.383 N 
HETATM   26  H   UNL     1      10.304  30.202  59.703  1.00  0.00     0.157 HD
HETATM   27  H   UNL     1      10.697  29.409  58.285  1.00  0.00     0.157 HD
ENDBRANCH  13  25
BRANCH  12  28
HETATM   28  C   UNL     1       7.790  31.521  60.140  1.00  0.00     0.258 C 
HETATM   29  N   UNL     1       6.531  31.699  60.662  1.00  0.00    -0.352 N 
HETATM   30  H   UNL     1       5.750  31.589  60.022  1.00  0.00     0.163 HD
HETATM   31  O   UNL     1       8.825  31.773  60.748  1.00  0.00    -0.267 OA
BRANCH  29  32
HETATM   32  C   UNL     1       6.275  32.278  61.969  1.00  0.00     0.084 C 
HETATM   33  C   UNL     1       6.152  33.800  61.856  1.00  0.00     0.025 C 
HETATM   34  C   UNL     1       4.884  34.220  61.112  1.00  0.00     0.002 C 
HETATM   35  C   UNL     1       3.633  33.611  61.739  1.00  0.00     0.000 C 
HETATM   36  C   UNL     1       3.732  32.093  61.865  1.00  0.00     0.002 C 
HETATM   37  C   UNL     1       5.011  31.663  62.585  1.00  0.00     0.025 C 
ENDBRANCH  29  32
ENDBRANCH  12  28
TORSDOF 7
ENDMDL
MODEL 8
REMARK VINA RESULT:      -9.2      3.541      9.256
REMARK  7 active torsions:
REMARK  status: ('A' for Active; 'I' for Inactive)
REMARK    1  A    between atoms: C_2  and  O_3 
REMARK    2  A    between atoms: O_3  and  C_4 
REMARK    3  A    between atoms: C_7  and  C_8 
REMARK    4  A    between atoms: N_9  and  N_10 
REMARK    5  A    between atoms: C_21  and  C_22 
REMARK       I    between atoms: C_22  and  N_23 
REMARK    6  A    between atoms: N_23  and  C_24 
REMARK    7  A    between atoms: C_31  and  N_32 
ROOT
HETATM    1  N   UNL     1       5.237  25.808  52.268  1.00  0.00    -0.197 N 
HETATM    2  C   UNL     1       5.980  24.842  52.936  1.00  0.00     0.183 A 
HETATM    3  C   UNL     1       6.065  25.247  54.262  1.00  0.00     0.125 A 
HETATM    4  N   UNL     1       6.850  24.599  55.163  1.00  0.00    -0.242 NA
HETATM    5  C   UNL     1       7.447  23.499  54.683  1.00  0.00     0.086 A 
HETATM    6  C   UNL     1       7.323  23.078  53.331  1.00  0.00     0.088 A 
HETATM    7  N   UNL     1       6.613  23.764  52.413  1.00  0.00    -0.225 NA
HETATM    8  C   UNL     1       8.203  22.740  55.567  1.00  0.00     0.034 A 
HETATM    9  C   UNL     1       8.829  21.562  55.165  1.00  0.00     0.002 A 
HETATM   10  C   UNL     1       8.699  21.137  53.850  1.00  0.00     0.002 A 
HETATM   11  C   UNL     1       7.953  21.900  52.947  1.00  0.00     0.034 A 
HETATM   12  C   UNL     1       5.257  26.391  54.438  1.00  0.00     0.110 C 
HETATM   13  C   UNL     1       4.566  26.569  53.249  1.00  0.00     0.143 C 
ENDROOT
BRANCH   1  14
HETATM   14  N   UNL     1       5.565  26.283  51.014  1.00  0.00    -0.176 NA
HETATM   15  C   UNL     1       4.853  25.803  50.050  1.00  0.00     0.150 C 
BRANCH  15  16
HETATM   16  C   UNL     1       4.427  26.657  48.923  1.00  0.00    -0.017 A 
HETATM   17  C   UNL     1       4.985  27.937  48.796  1.00  0.00     0.016 A 
HETATM   18  C   UNL     1       4.347  28.899  48.014  1.00  0.00     0.037 A 
HETATM   19  C   UNL     1       3.153  28.582  47.367  1.00  0.00     0.068 A 
HETATM   20  C   UNL     1       2.657  27.277  47.408  1.00  0.00     0.037 A 
HETATM   21  C   UNL     1       3.282  26.313  48.204  1.00  0.00     0.016 A 
BRANCH  19  22
HETATM   22  O   UNL     1       2.398  29.500  46.687  1.00  0.00    -0.352 OA
BRANCH  22  23
HETATM   23  C   UNL     1       0.986  29.280  46.825  1.00  0.00     0.171 C 
HETATM   24  C   UNL     1       0.391  30.451  47.586  1.00  0.00     0.034 C 
ENDBRANCH  22  23
ENDBRANCH  19  22
ENDBRANCH  15  16
ENDBRANCH   1  14
BRANCH  13  25
HETATM   25  N   UNL     1       3.583  27.477  52.982  1.00  0.00    -0.383 N 
HETATM   26  H   UNL     1       3.422  28.247  53.625  1.00  0.00     0.157 HD
HETATM   27  H   UNL     1       3.541  27.817  52.014  1.00  0.00     0.157 HD
ENDBRANCH  13  25
BRANCH  12  28
HETATM   28  C   UNL     1       5.155  27.250  55.603  1.00  0.00     0.258 C 
HETATM   29  N   UNL     1       6.332  27.339  56.307  1.00  0.00    -0.352 N 
HETATM   30  H   UNL     1       7.053  26.660  56.080  1.00  0.00     0.163 HD
HETATM   31  O   UNL     1       4.146  27.892  55.872  1.00  0.00    -0.267 OA
BRANCH  29  32
HETATM   32  C   UNL     1       6.498  28.149  57.500  1.00  0.00     0.084 C 
HETATM   33  C   UNL     1       7.856  27.863  58.147  1.00  0.00     0.025 C 
HETATM   34  C   UNL     1       9.017  28.379  57.297  1.00  0.00     0.002 C 
HETATM   35  C   UNL     1       8.863  29.862  56.970  1.00  0.00     0.000 C 
HETATM   36  C   UNL     1       7.514  30.174  56.326  1.00  0.00     0.002 C 
HETATM   37  C   UNL     1       6.349  29.638  57.158  1.00  0.00     0.025 C 
ENDBRANCH  29  32
ENDBRANCH  12  28
TORSDOF 7
ENDMDL
MODEL 9
REMARK VINA RESULT:      -9.1      5.095      9.201
REMARK  7 active torsions:
REMARK  status: ('A' for Active; 'I' for Inactive)
REMARK    1  A    between atoms: C_2  and  O_3 
REMARK    2  A    between atoms: O_3  and  C_4 
REMARK    3  A    between atoms: C_7  and  C_8 
REMARK    4  A    between atoms: N_9  and  N_10 
REMARK    5  A    between atoms: C_21  and  C_22 
REMARK       I    between atoms: C_22  and  N_23 
REMARK    6  A    between atoms: N_23  and  C_24 
REMARK    7  A    between atoms: C_31  and  N_32 
ROOT
HETATM    1  N   UNL     1       5.696  26.983  51.724  1.00  0.00    -0.197 N 
HETATM    2  C   UNL     1       4.840  27.072  50.632  1.00  0.00     0.183 A 
HETATM    3  C   UNL     1       4.161  28.277  50.750  1.00  0.00     0.125 A 
HETATM    4  N   UNL     1       3.138  28.610  49.921  1.00  0.00    -0.242 NA
HETATM    5  C   UNL     1       2.913  27.726  48.940  1.00  0.00     0.086 A 
HETATM    6  C   UNL     1       3.640  26.511  48.811  1.00  0.00     0.088 A 
HETATM    7  N   UNL     1       4.600  26.137  49.681  1.00  0.00    -0.225 NA
HETATM    8  C   UNL     1       1.933  28.036  48.005  1.00  0.00     0.034 A 
HETATM    9  C   UNL     1       1.658  27.193  46.930  1.00  0.00     0.002 A 
HETATM   10  C   UNL     1       2.374  26.013  46.791  1.00  0.00     0.002 A 
HETATM   11  C   UNL     1       3.353  25.682  47.734  1.00  0.00     0.034 A 
HETATM   12  C   UNL     1       4.700  28.994  51.841  1.00  0.00     0.110 C 
HETATM   13  C   UNL     1       5.808  28.280  52.270  1.00  0.00     0.143 C 
ENDROOT
BRANCH   1  14
HETATM   14  N   UNL     1       5.884  25.823  52.446  1.00  0.00    -0.176 NA
HETATM   15  C   UNL     1       6.949  25.161  52.139  1.00  0.00     0.150 C 
BRANCH  15  16
HETATM   16  C   UNL     1       7.756  24.494  53.182  1.00  0.00    -0.017 A 
HETATM   17  C   UNL     1       8.273  23.218  52.924  1.00  0.00     0.016 A 
HETATM   18  C   UNL     1       8.685  22.407  53.981  1.00  0.00     0.037 A 
HETATM   19  C   UNL     1       8.576  22.873  55.292  1.00  0.00     0.068 A 
HETATM   20  C   UNL     1       8.162  24.183  55.538  1.00  0.00     0.037 A 
HETATM   21  C   UNL     1       7.731  24.994  54.484  1.00  0.00     0.016 A 
BRANCH  19  22
HETATM   22  O   UNL     1       8.837  22.098  56.390  1.00  0.00    -0.352 OA
BRANCH  22  23
HETATM   23  C   UNL     1       8.922  20.699  56.084  1.00  0.00     0.171 C 
HETATM   24  C   UNL     1       7.520  20.118  56.099  1.00  0.00     0.034 C 
ENDBRANCH  22  23
ENDBRANCH  19  22
ENDBRANCH  15  16
ENDBRANCH   1  14
BRANCH  13  25
HETATM   25  N   UNL     1       6.716  28.639  53.224  1.00  0.00    -0.383 N 
HETATM   26  H   UNL     1       7.538  28.062  53.378  1.00  0.00     0.157 HD
HETATM   27  H   UNL     1       6.979  29.631  53.237  1.00  0.00     0.157 HD
ENDBRANCH  13  25
BRANCH  12  28
HETATM   28  C   UNL     1       4.212  30.223  52.439  1.00  0.00     0.258 C 
HETATM   29  N   UNL     1       4.072  31.243  51.528  1.00  0.00    -0.352 N 
HETATM   30  H   UNL     1       4.508  31.109  50.620  1.00  0.00     0.163 HD
HETATM   31  O   UNL     1       3.880  30.306  53.617  1.00  0.00    -0.267 OA
BRANCH  29  32
HETATM   32  C   UNL     1       3.583  32.567  51.870  1.00  0.00     0.084 C 
HETATM   33  C   UNL     1       4.737  33.444  52.363  1.00  0.00     0.025 C 
HETATM   34  C   UNL     1       5.715  33.790  51.241  1.00  0.00     0.002 C 
HETATM   35  C   UNL     1       5.007  34.429  50.050  1.00  0.00     0.000 C 
HETATM   36  C   UNL     1       3.850  33.575  49.541  1.00  0.00     0.002 C 
HETATM   37  C   UNL     1       2.880  33.202  50.662  1.00  0.00     0.025 C 
ENDBRANCH  29  32
ENDBRANCH  12  28
TORSDOF 7
ENDMDL
MODEL 10
REMARK VINA RESULT:      -9.0      2.542      8.901
REMARK  7 active torsions:
REMARK  status: ('A' for Active; 'I' for Inactive)
REMARK    1  A    between atoms: C_2  and  O_3 
REMARK    2  A    between atoms: O_3  and  C_4 
REMARK    3  A    between atoms: C_7  and  C_8 
REMARK    4  A    between atoms: N_9  and  N_10 
REMARK    5  A    between atoms: C_21  and  C_22 
REMARK       I    between atoms: C_22  and  N_23 
REMARK    6  A    between atoms: N_23  and  C_24 
REMARK    7  A    between atoms: C_31  and  N_32 
ROOT
HETATM    1  N   UNL     1       7.292  28.800  56.345  1.00  0.00    -0.197 N 
HETATM    2  C   UNL     1       6.322  29.792  56.259  1.00  0.00     0.183 A 
HETATM    3  C   UNL     1       6.751  30.844  57.058  1.00  0.00     0.125 A 
HETATM    4  N   UNL     1       5.963  31.921  57.313  1.00  0.00    -0.242 NA
HETATM    5  C   UNL     1       4.795  31.917  56.657  1.00  0.00     0.086 A 
HETATM    6  C   UNL     1       4.383  30.848  55.815  1.00  0.00     0.088 A 
HETATM    7  N   UNL     1       5.126  29.739  55.625  1.00  0.00    -0.225 NA
HETATM    8  C   UNL     1       3.969  33.024  56.807  1.00  0.00     0.034 A 
HETATM    9  C   UNL     1       2.752  33.121  56.134  1.00  0.00     0.002 A 
HETATM   10  C   UNL     1       2.352  32.088  55.299  1.00  0.00     0.002 A 
HETATM   11  C   UNL     1       3.168  30.962  55.151  1.00  0.00     0.034 A 
HETATM   12  C   UNL     1       8.052  30.554  57.526  1.00  0.00     0.110 C 
HETATM   13  C   UNL     1       8.455  29.400  56.872  1.00  0.00     0.143 C 
ENDROOT
BRANCH   1  14
HETATM   14  N   UNL     1       6.993  27.458  56.467  1.00  0.00    -0.176 NA
HETATM   15  C   UNL     1       6.905  26.820  55.349  1.00  0.00     0.150 C 
BRANCH  15  16
HETATM   16  C   UNL     1       7.421  25.441  55.219  1.00  0.00    -0.017 A 
HETATM   17  C   UNL     1       7.529  24.878  53.940  1.00  0.00     0.016 A 
HETATM   18  C   UNL     1       7.625  23.494  53.796  1.00  0.00     0.037 A 
HETATM   19  C   UNL     1       7.609  22.679  54.928  1.00  0.00     0.068 A 
HETATM   20  C   UNL     1       7.610  23.249  56.203  1.00  0.00     0.037 A 
HETATM   21  C   UNL     1       7.496  24.633  56.353  1.00  0.00     0.016 A 
BRANCH  19  22
HETATM   22  O   UNL     1       7.571  21.311  54.871  1.00  0.00    -0.352 OA
BRANCH  22  23
HETATM   23  C   UNL     1       7.908  20.687  56.118  1.00  0.00     0.171 C 
HETATM   24  C   UNL     1       9.353  20.230  56.051  1.00  0.00     0.034 C 
ENDBRANCH  22  23
ENDBRANCH  19  22
ENDBRANCH  15  16
ENDBRANCH   1  14
BRANCH  13  25
HETATM   25  N   UNL     1       9.681  28.801  56.915  1.00  0.00    -0.383 N 
HETATM   26  H   UNL     1      10.060  28.374  56.075  1.00  0.00     0.157 HD
HETATM   27  H   UNL     1      10.416  29.325  57.402  1.00  0.00     0.157 HD
ENDBRANCH  13  25
BRANCH  12  28
HETATM   28  C   UNL     1       8.835  31.278  58.509  1.00  0.00     0.258 C 
HETATM   29  N   UNL     1       8.072  31.788  59.533  1.00  0.00    -0.352 N 
HETATM   30  H   UNL     1       7.067  31.795  59.394  1.00  0.00     0.163 HD
HETATM   31  O   UNL     1      10.059  31.348  58.467  1.00  0.00    -0.267 OA
BRANCH  29  32
HETATM   32  C   UNL     1       8.620  32.535  60.651  1.00  0.00     0.084 C 
HETATM   33  C   UNL     1       7.497  32.960  61.601  1.00  0.00     0.025 C 
HETATM   34  C   UNL     1       6.885  31.768  62.336  1.00  0.00     0.002 C 
HETATM   35  C   UNL     1       7.946  30.950  63.067  1.00  0.00     0.000 C 
HETATM   36  C   UNL     1       9.079  30.516  62.141  1.00  0.00     0.002 C 
HETATM   37  C   UNL     1       9.679  31.699  61.382  1.00  0.00     0.025 C 
ENDBRANCH  29  32
ENDBRANCH  12  28
TORSDOF 7
ENDMDL
