MODEL 1
REMARK VINA RESULT:     -10.3      0.000      0.000
REMARK  6 active torsions:
REMARK  status: ('A' for Active; 'I' for Inactive)
REMARK    1  A    between atoms: C_2  and  C_3 
REMARK    2  A    between atoms: C_7  and  N_8 
REMARK    3  A    between atoms: N_8  and  C_9 
REMARK    4  A    between atoms: C_12  and  N_13 
REMARK       I    between atoms: N_13  and  C_14 
REMARK       I    between atoms: C_14  and  N_15 
REMARK    5  A    between atoms: N_15  and  C_16 
REMARK    6  A    between atoms: N_24  and  C_25 
ROOT
HETATM    1  C   UNL     1       5.453  32.871  59.469  1.00  0.00     0.130 A 
HETATM    2  N   UNL     1       5.554  32.992  60.803  1.00  0.00    -0.213 NA
HETATM    3  C   UNL     1       6.691  32.461  61.296  1.00  0.00     0.169 A 
HETATM    4  C   UNL     1       7.682  31.853  60.541  1.00  0.00     0.078 A 
HETATM    5  C   UNL     1       7.519  31.825  59.145  1.00  0.00     0.121 A 
HETATM    6  N   UNL     1       6.374  32.339  58.641  1.00  0.00    -0.221 NA
HETATM    7  N   UNL     1       7.123  32.422  62.621  1.00  0.00    -0.214 N 
HETATM    8  N   UNL     1       8.308  31.748  62.734  1.00  0.00    -0.170 NA
HETATM    9  C   UNL     1       8.637  31.409  61.486  1.00  0.00     0.069 A 
HETATM   10  C   UNL     1       9.888  30.648  61.245  1.00  0.00     0.073 C 
ENDROOT
BRANCH   5  11
HETATM   11  N   UNL     1       8.493  31.295  58.295  1.00  0.00    -0.272 NA
HETATM   12  H   UNL     1       8.290  31.539  57.334  1.00  0.00     0.129 HD
BRANCH  11  13
HETATM   13  C   UNL     1       8.845  29.879  58.475  1.00  0.00     0.062 C 
HETATM   14  C   UNL     1       7.553  29.050  58.465  1.00  0.00     0.022 C 
HETATM   15  C   UNL     1       6.849  29.052  57.108  1.00  0.00     0.027 C 
HETATM   16  C   UNL     1       7.752  28.791  55.895  1.00  0.00     0.086 C 
HETATM   17  C   UNL     1       9.142  29.432  55.980  1.00  0.00     0.027 C 
HETATM   18  C   UNL     1       9.788  29.407  57.364  1.00  0.00     0.022 C 
BRANCH  16  19
HETATM   19  N   UNL     1       7.771  27.392  55.472  1.00  0.00    -0.339 N 
HETATM   20  C   UNL     1       7.085  26.851  54.418  1.00  0.00     0.317 C 
HETATM   21  N   UNL     1       7.417  25.524  54.274  1.00  0.00    -0.335 N 
HETATM   22  O   UNL     1       6.315  27.458  53.694  1.00  0.00    -0.247 OA
HETATM   23  H   UNL     1       8.348  25.322  54.610  1.00  0.00     0.165 HD
HETATM   24  H   UNL     1       7.984  26.723  56.197  1.00  0.00     0.164 HD
BRANCH  21  25
HETATM   25  C   UNL     1       6.950  24.674  53.166  1.00  0.00     0.023 C 
HETATM   26  C   UNL     1       7.616  25.087  51.844  1.00  0.00     0.037 C 
HETATM   27  C   UNL     1       7.357  23.223  53.488  1.00  0.00     0.037 C 
HETATM   28  C   UNL     1       5.420  24.721  53.026  1.00  0.00     0.037 C 
ENDBRANCH  21  25
ENDBRANCH  16  19
ENDBRANCH  11  13
ENDBRANCH   5  11
BRANCH   1  29
HETATM   29  C   UNL     1       4.206  33.423  58.830  1.00  0.00     0.076 C 
HETATM   30  C   UNL     1       3.122  33.678  59.864  1.00  0.00     0.013 C 
ENDBRANCH   1  29
BRANCH   7  31
HETATM   31  C   UNL     1       6.527  32.986  63.792  1.00  0.00     0.060 A 
HETATM   32  C   UNL     1       5.146  33.165  63.914  1.00  0.00     0.032 A 
HETATM   33  C   UNL     1       4.605  33.748  65.068  1.00  0.00     0.009 A 
HETATM   34  C   UNL     1       5.434  34.151  66.121  1.00  0.00    -0.062 A 
HETATM   35  C   UNL     1       4.863  34.812  67.340  1.00  0.00     0.048 C 
HETATM   36  C   UNL     1       6.815  33.977  66.000  1.00  0.00     0.009 A 
HETATM   37  C   UNL     1       7.357  33.396  64.849  1.00  0.00     0.032 A 
ENDBRANCH   7  31
TORSDOF 6
ENDMDL
MODEL 2
REMARK VINA RESULT:     -10.3      2.152      3.727
REMARK  6 active torsions:
REMARK  status: ('A' for Active; 'I' for Inactive)
REMARK    1  A    between atoms: C_2  and  C_3 
REMARK    2  A    between atoms: C_7  and  N_8 
REMARK    3  A    between atoms: N_8  and  C_9 
REMARK    4  A    between atoms: C_12  and  N_13 
REMARK       I    between atoms: N_13  and  C_14 
REMARK       I    between atoms: C_14  and  N_15 
REMARK    5  A    between atoms: N_15  and  C_16 
REMARK    6  A    between atoms: N_24  and  C_25 
ROOT
HETATM    1  C   UNL     1       4.540  31.617  57.414  1.00  0.00     0.130 A 
HETATM    2  N   UNL     1       5.187  31.785  58.580  1.00  0.00    -0.213 NA
HETATM    3  C   UNL     1       6.370  31.141  58.623  1.00  0.00     0.169 A 
HETATM    4  C   UNL     1       6.905  30.380  57.595  1.00  0.00     0.078 A 
HETATM    5  C   UNL     1       6.185  30.309  56.390  1.00  0.00     0.121 A 
HETATM    6  N   UNL     1       4.989  30.937  56.340  1.00  0.00    -0.221 NA
HETATM    7  N   UNL     1       7.299  31.109  59.662  1.00  0.00    -0.214 N 
HETATM    8  N   UNL     1       8.357  30.299  59.354  1.00  0.00    -0.170 NA
HETATM    9  C   UNL     1       8.115  29.865  58.115  1.00  0.00     0.069 A 
HETATM   10  C   UNL     1       9.081  28.945  57.465  1.00  0.00     0.073 C 
ENDROOT
BRANCH   5  11
HETATM   11  N   UNL     1       6.673  29.624  55.273  1.00  0.00    -0.272 NA
HETATM   12  H   UNL     1       7.007  30.280  54.578  1.00  0.00     0.129 HD
BRANCH  11  13
HETATM   13  C   UNL     1       5.827  28.561  54.712  1.00  0.00     0.062 C 
HETATM   14  C   UNL     1       6.501  28.020  53.443  1.00  0.00     0.022 C 
HETATM   15  C   UNL     1       7.814  27.291  53.724  1.00  0.00     0.027 C 
HETATM   16  C   UNL     1       7.771  26.276  54.875  1.00  0.00     0.086 C 
HETATM   17  C   UNL     1       6.917  26.700  56.075  1.00  0.00     0.027 C 
HETATM   18  C   UNL     1       5.623  27.434  55.728  1.00  0.00     0.022 C 
BRANCH  16  19
HETATM   19  N   UNL     1       7.528  24.904  54.432  1.00  0.00    -0.339 N 
HETATM   20  C   UNL     1       8.205  23.785  54.840  1.00  0.00     0.317 C 
HETATM   21  N   UNL     1       7.641  22.664  54.275  1.00  0.00    -0.335 N 
HETATM   22  O   UNL     1       9.150  23.776  55.609  1.00  0.00    -0.247 OA
HETATM   23  H   UNL     1       6.659  22.787  54.077  1.00  0.00     0.165 HD
HETATM   24  H   UNL     1       7.114  24.810  53.517  1.00  0.00     0.164 HD
BRANCH  21  25
HETATM   25  C   UNL     1       8.051  21.287  54.595  1.00  0.00     0.023 C 
HETATM   26  C   UNL     1       7.274  20.755  55.810  1.00  0.00     0.037 C 
HETATM   27  C   UNL     1       7.717  20.406  53.375  1.00  0.00     0.037 C 
HETATM   28  C   UNL     1       9.564  21.194  54.850  1.00  0.00     0.037 C 
ENDBRANCH  21  25
ENDBRANCH  16  19
ENDBRANCH  11  13
ENDBRANCH   5  11
BRANCH   1  29
HETATM   29  C   UNL     1       3.199  32.289  57.279  1.00  0.00     0.076 C 
HETATM   30  C   UNL     1       3.261  33.740  57.727  1.00  0.00     0.013 C 
ENDBRANCH   1  29
BRANCH   7  31
HETATM   31  C   UNL     1       7.289  31.795  60.917  1.00  0.00     0.060 A 
HETATM   32  C   UNL     1       6.438  32.876  61.169  1.00  0.00     0.032 A 
HETATM   33  C   UNL     1       6.481  33.538  62.403  1.00  0.00     0.009 A 
HETATM   34  C   UNL     1       7.365  33.127  63.406  1.00  0.00    -0.062 A 
HETATM   35  C   UNL     1       7.441  33.859  64.713  1.00  0.00     0.048 C 
HETATM   36  C   UNL     1       8.219  32.050  63.155  1.00  0.00     0.009 A 
HETATM   37  C   UNL     1       8.180  31.387  61.925  1.00  0.00     0.032 A 
ENDBRANCH   7  31
TORSDOF 6
ENDMDL
MODEL 3
REMARK VINA RESULT:     -10.1      2.127      4.101
REMARK  6 active torsions:
REMARK  status: ('A' for Active; 'I' for Inactive)
REMARK    1  A    between atoms: C_2  and  C_3 
REMARK    2  A    between atoms: C_7  and  N_8 
REMARK    3  A    between atoms: N_8  and  C_9 
REMARK    4  A    between atoms: C_12  and  N_13 
REMARK       I    between atoms: N_13  and  C_14 
REMARK       I    between atoms: C_14  and  N_15 
REMARK    5  A    between atoms: N_15  and  C_16 
REMARK    6  A    between atoms: N_24  and  C_25 
ROOT
HETATM    1  C   UNL     1       9.328  30.794  57.969  1.00  0.00     0.130 A 
HETATM    2  N   UNL     1       8.723  31.352  59.031  1.00  0.00    -0.213 NA
HETATM    3  C   UNL     1       7.378  31.329  58.944  1.00  0.00     0.169 A 
HETATM    4  C   UNL     1       6.654  30.790  57.891  1.00  0.00     0.078 A 
HETATM    5  C   UNL     1       7.370  30.175  56.850  1.00  0.00     0.121 A 
HETATM    6  N   UNL     1       8.720  30.206  56.918  1.00  0.00    -0.221 NA
HETATM    7  N   UNL     1       6.445  31.804  59.864  1.00  0.00    -0.214 N 
HETATM    8  N   UNL     1       5.169  31.652  59.395  1.00  0.00    -0.170 NA
HETATM    9  C   UNL     1       5.301  31.046  58.214  1.00  0.00     0.069 A 
HETATM   10  C   UNL     1       4.087  30.731  57.419  1.00  0.00     0.073 C 
ENDROOT
BRANCH   5  11
HETATM   11  N   UNL     1       6.729  29.544  55.781  1.00  0.00    -0.272 NA
HETATM   12  H   UNL     1       5.774  29.315  56.029  1.00  0.00     0.129 HD
BRANCH  11  13
HETATM   13  C   UNL     1       7.441  28.437  55.126  1.00  0.00     0.062 C 
HETATM   14  C   UNL     1       8.048  27.537  56.212  1.00  0.00     0.022 C 
HETATM   15  C   UNL     1       6.994  26.811  57.049  1.00  0.00     0.027 C 
HETATM   16  C   UNL     1       5.870  26.136  56.252  1.00  0.00     0.086 C 
HETATM   17  C   UNL     1       5.393  26.918  55.023  1.00  0.00     0.027 C 
HETATM   18  C   UNL     1       6.492  27.630  54.236  1.00  0.00     0.022 C 
BRANCH  16  19
HETATM   19  N   UNL     1       6.111  24.718  55.992  1.00  0.00    -0.339 N 
HETATM   20  C   UNL     1       7.094  24.191  55.197  1.00  0.00     0.317 C 
HETATM   21  N   UNL     1       7.065  22.817  55.264  1.00  0.00    -0.335 N 
HETATM   22  O   UNL     1       7.896  24.839  54.548  1.00  0.00    -0.247 OA
HETATM   23  H   UNL     1       6.698  22.483  56.143  1.00  0.00     0.165 HD
HETATM   24  H   UNL     1       5.305  24.116  56.084  1.00  0.00     0.164 HD
BRANCH  21  25
HETATM   25  C   UNL     1       8.059  21.940  54.623  1.00  0.00     0.023 C 
HETATM   26  C   UNL     1       9.486  22.359  55.011  1.00  0.00     0.037 C 
HETATM   27  C   UNL     1       7.812  20.506  55.130  1.00  0.00     0.037 C 
HETATM   28  C   UNL     1       7.905  21.938  53.093  1.00  0.00     0.037 C 
ENDBRANCH  21  25
ENDBRANCH  16  19
ENDBRANCH  11  13
ENDBRANCH   5  11
BRANCH   1  29
HETATM   29  C   UNL     1      10.833  30.787  57.970  1.00  0.00     0.076 C 
HETATM   30  C   UNL     1      11.381  29.663  57.106  1.00  0.00     0.013 C 
ENDBRANCH   1  29
BRANCH   7  31
HETATM   31  C   UNL     1       6.648  32.371  61.161  1.00  0.00     0.060 A 
HETATM   32  C   UNL     1       6.037  33.564  61.558  1.00  0.00     0.032 A 
HETATM   33  C   UNL     1       6.286  34.099  62.828  1.00  0.00     0.009 A 
HETATM   34  C   UNL     1       7.140  33.448  63.724  1.00  0.00    -0.062 A 
HETATM   35  C   UNL     1       7.440  34.039  65.070  1.00  0.00     0.048 C 
HETATM   36  C   UNL     1       7.756  32.258  63.329  1.00  0.00     0.009 A 
HETATM   37  C   UNL     1       7.510  31.721  62.062  1.00  0.00     0.032 A 
ENDBRANCH   7  31
TORSDOF 6
ENDMDL
MODEL 4
REMARK VINA RESULT:     -10.0      3.532     10.967
REMARK  6 active torsions:
REMARK  status: ('A' for Active; 'I' for Inactive)
REMARK    1  A    between atoms: C_2  and  C_3 
REMARK    2  A    between atoms: C_7  and  N_8 
REMARK    3  A    between atoms: N_8  and  C_9 
REMARK    4  A    between atoms: C_12  and  N_13 
REMARK       I    between atoms: N_13  and  C_14 
REMARK       I    between atoms: C_14  and  N_15 
REMARK    5  A    between atoms: N_15  and  C_16 
REMARK    6  A    between atoms: N_24  and  C_25 
ROOT
HETATM    1  C   UNL     1       5.287  27.732  52.383  1.00  0.00     0.130 A 
HETATM    2  N   UNL     1       5.914  26.614  52.786  1.00  0.00    -0.213 NA
HETATM    3  C   UNL     1       6.504  26.744  53.991  1.00  0.00     0.169 A 
HETATM    4  C   UNL     1       6.484  27.890  54.771  1.00  0.00     0.078 A 
HETATM    5  C   UNL     1       5.753  28.993  54.297  1.00  0.00     0.121 A 
HETATM    6  N   UNL     1       5.171  28.880  53.081  1.00  0.00    -0.221 NA
HETATM    7  N   UNL     1       7.223  25.790  54.709  1.00  0.00    -0.214 N 
HETATM    8  N   UNL     1       7.716  26.315  55.872  1.00  0.00    -0.170 NA
HETATM    9  C   UNL     1       7.271  27.573  55.902  1.00  0.00     0.069 A 
HETATM   10  C   UNL     1       7.633  28.445  57.048  1.00  0.00     0.073 C 
ENDROOT
BRANCH   5  11
HETATM   11  N   UNL     1       5.617  30.168  55.041  1.00  0.00    -0.272 NA
HETATM   12  H   UNL     1       6.197  30.128  55.870  1.00  0.00     0.129 HD
BRANCH  11  13
HETATM   13  C   UNL     1       4.251  30.641  55.309  1.00  0.00     0.062 C 
HETATM   14  C   UNL     1       3.672  29.825  56.475  1.00  0.00     0.022 C 
HETATM   15  C   UNL     1       4.385  30.085  57.802  1.00  0.00     0.027 C 
HETATM   16  C   UNL     1       4.620  31.563  58.146  1.00  0.00     0.086 C 
HETATM   17  C   UNL     1       4.987  32.451  56.951  1.00  0.00     0.027 C 
HETATM   18  C   UNL     1       4.248  32.134  55.652  1.00  0.00     0.022 C 
BRANCH  16  19
HETATM   19  N   UNL     1       3.587  32.131  59.010  1.00  0.00    -0.339 N 
HETATM   20  C   UNL     1       3.785  32.992  60.057  1.00  0.00     0.317 C 
HETATM   21  N   UNL     1       2.572  33.380  60.579  1.00  0.00    -0.335 N 
HETATM   22  O   UNL     1       4.869  33.381  60.453  1.00  0.00    -0.247 OA
HETATM   23  H   UNL     1       1.833  33.359  59.891  1.00  0.00     0.165 HD
HETATM   24  H   UNL     1       2.743  31.585  59.094  1.00  0.00     0.164 HD
BRANCH  21  25
HETATM   25  C   UNL     1       2.418  34.391  61.638  1.00  0.00     0.023 C 
HETATM   26  C   UNL     1       3.120  35.701  61.248  1.00  0.00     0.037 C 
HETATM   27  C   UNL     1       0.911  34.671  61.800  1.00  0.00     0.037 C 
HETATM   28  C   UNL     1       2.956  33.882  62.985  1.00  0.00     0.037 C 
ENDBRANCH  21  25
ENDBRANCH  16  19
ENDBRANCH  11  13
ENDBRANCH   5  11
BRANCH   1  29
HETATM   29  C   UNL     1       4.611  27.685  51.039  1.00  0.00     0.076 C 
HETATM   30  C   UNL     1       4.948  26.403  50.296  1.00  0.00     0.013 C 
ENDBRANCH   1  29
BRANCH   7  31
HETATM   31  C   UNL     1       7.468  24.414  54.407  1.00  0.00     0.060 A 
HETATM   32  C   UNL     1       7.402  23.413  55.382  1.00  0.00     0.032 A 
HETATM   33  C   UNL     1       7.678  22.080  55.049  1.00  0.00     0.009 A 
HETATM   34  C   UNL     1       8.014  21.725  53.738  1.00  0.00    -0.062 A 
HETATM   35  C   UNL     1       8.349  20.306  53.387  1.00  0.00     0.048 C 
HETATM   36  C   UNL     1       8.085  22.723  52.763  1.00  0.00     0.009 A 
HETATM   37  C   UNL     1       7.810  24.054  53.092  1.00  0.00     0.032 A 
ENDBRANCH   7  31
TORSDOF 6
ENDMDL
MODEL 5
REMARK VINA RESULT:      -9.9      3.084      4.352
REMARK  6 active torsions:
REMARK  status: ('A' for Active; 'I' for Inactive)
REMARK    1  A    between atoms: C_2  and  C_3 
REMARK    2  A    between atoms: C_7  and  N_8 
REMARK    3  A    between atoms: N_8  and  C_9 
REMARK    4  A    between atoms: C_12  and  N_13 
REMARK       I    between atoms: N_13  and  C_14 
REMARK       I    between atoms: C_14  and  N_15 
REMARK    5  A    between atoms: N_15  and  C_16 
REMARK    6  A    between atoms: N_24  and  C_25 
ROOT
HETATM    1  C   UNL     1       4.652  32.056  57.510  1.00  0.00     0.130 A 
HETATM    2  N   UNL     1       5.319  32.104  58.675  1.00  0.00    -0.213 NA
HETATM    3  C   UNL     1       6.368  31.258  58.718  1.00  0.00     0.169 A 
HETATM    4  C   UNL     1       6.758  30.416  57.688  1.00  0.00     0.078 A 
HETATM    5  C   UNL     1       6.037  30.476  56.483  1.00  0.00     0.121 A 
HETATM    6  N   UNL     1       4.972  31.308  56.434  1.00  0.00    -0.221 NA
HETATM    7  N   UNL     1       7.275  31.059  59.757  1.00  0.00    -0.214 N 
HETATM    8  N   UNL     1       8.172  30.073  59.447  1.00  0.00    -0.170 NA
HETATM    9  C   UNL     1       7.856  29.692  58.208  1.00  0.00     0.069 A 
HETATM   10  C   UNL     1       8.642  28.614  57.557  1.00  0.00     0.073 C 
ENDROOT
BRANCH   5  11
HETATM   11  N   UNL     1       6.395  29.717  55.366  1.00  0.00    -0.272 NA
HETATM   12  H   UNL     1       6.380  30.290  54.532  1.00  0.00     0.129 HD
BRANCH  11  13
HETATM   13  C   UNL     1       5.726  28.419  55.191  1.00  0.00     0.062 C 
HETATM   14  C   UNL     1       4.327  28.666  54.608  1.00  0.00     0.022 C 
HETATM   15  C   UNL     1       4.360  29.221  53.184  1.00  0.00     0.027 C 
HETATM   16  C   UNL     1       5.308  28.501  52.217  1.00  0.00     0.086 C 
HETATM   17  C   UNL     1       6.634  28.044  52.836  1.00  0.00     0.027 C 
HETATM   18  C   UNL     1       6.536  27.509  54.264  1.00  0.00     0.022 C 
BRANCH  16  19
HETATM   19  N   UNL     1       4.649  27.476  51.409  1.00  0.00    -0.339 N 
HETATM   20  C   UNL     1       4.296  27.580  50.091  1.00  0.00     0.317 C 
HETATM   21  N   UNL     1       3.776  26.385  49.648  1.00  0.00    -0.335 N 
HETATM   22  O   UNL     1       4.444  28.573  49.399  1.00  0.00    -0.247 OA
HETATM   23  H   UNL     1       4.145  25.594  50.157  1.00  0.00     0.165 HD
HETATM   24  H   UNL     1       4.086  26.814  51.924  1.00  0.00     0.164 HD
BRANCH  21  25
HETATM   25  C   UNL     1       3.406  26.116  48.249  1.00  0.00     0.023 C 
HETATM   26  C   UNL     1       2.215  26.990  47.823  1.00  0.00     0.037 C 
HETATM   27  C   UNL     1       4.618  26.474  47.369  1.00  0.00     0.037 C 
HETATM   28  C   UNL     1       3.077  24.630  48.029  1.00  0.00     0.037 C 
ENDBRANCH  21  25
ENDBRANCH  16  19
ENDBRANCH  11  13
ENDBRANCH   5  11
BRANCH   1  29
HETATM   29  C   UNL     1       3.454  32.957  57.375  1.00  0.00     0.076 C 
HETATM   30  C   UNL     1       3.469  34.057  58.425  1.00  0.00     0.013 C 
ENDBRANCH   1  29
BRANCH   7  31
HETATM   31  C   UNL     1       7.388  31.734  61.013  1.00  0.00     0.060 A 
HETATM   32  C   UNL     1       8.224  31.273  62.034  1.00  0.00     0.032 A 
HETATM   33  C   UNL     1       8.283  31.949  63.260  1.00  0.00     0.009 A 
HETATM   34  C   UNL     1       7.518  33.098  63.482  1.00  0.00    -0.062 A 
HETATM   35  C   UNL     1       7.548  33.801  64.807  1.00  0.00     0.048 C 
HETATM   36  C   UNL     1       6.677  33.558  62.464  1.00  0.00     0.009 A 
HETATM   37  C   UNL     1       6.615  32.886  61.240  1.00  0.00     0.032 A 
ENDBRANCH   7  31
TORSDOF 6
ENDMDL
MODEL 6
REMARK VINA RESULT:      -9.8      2.789     10.820
REMARK  6 active torsions:
REMARK  status: ('A' for Active; 'I' for Inactive)
REMARK    1  A    between atoms: C_2  and  C_3 
REMARK    2  A    between atoms: C_7  and  N_8 
REMARK    3  A    between atoms: N_8  and  C_9 
REMARK    4  A    between atoms: C_12  and  N_13 
REMARK       I    between atoms: N_13  and  C_14 
REMARK       I    between atoms: C_14  and  N_15 
REMARK    5  A    between atoms: N_15  and  C_16 
REMARK    6  A    between atoms: N_24  and  C_25 
ROOT
HETATM    1  C   UNL     1       8.199  28.507  56.355  1.00  0.00     0.130 A 
HETATM    2  N   UNL     1       7.990  27.318  55.765  1.00  0.00    -0.213 NA
HETATM    3  C   UNL     1       6.842  27.273  55.060  1.00  0.00     0.169 A 
HETATM    4  C   UNL     1       5.945  28.322  54.926  1.00  0.00     0.078 A 
HETATM    5  C   UNL     1       6.275  29.548  55.530  1.00  0.00     0.121 A 
HETATM    6  N   UNL     1       7.416  29.600  56.253  1.00  0.00    -0.221 NA
HETATM    7  N   UNL     1       6.324  26.212  54.320  1.00  0.00    -0.214 N 
HETATM    8  N   UNL     1       5.104  26.530  53.789  1.00  0.00    -0.170 NA
HETATM    9  C   UNL     1       4.882  27.794  54.157  1.00  0.00     0.069 A 
HETATM   10  C   UNL     1       3.621  28.461  53.745  1.00  0.00     0.073 C 
ENDROOT
BRANCH   5  11
HETATM   11  N   UNL     1       5.469  30.681  55.394  1.00  0.00    -0.272 NA
HETATM   12  H   UNL     1       6.040  31.517  55.378  1.00  0.00     0.129 HD
BRANCH  11  13
HETATM   13  C   UNL     1       4.304  30.790  56.283  1.00  0.00     0.062 C 
HETATM   14  C   UNL     1       4.725  30.356  57.695  1.00  0.00     0.022 C 
HETATM   15  C   UNL     1       5.731  31.309  58.341  1.00  0.00     0.027 C 
HETATM   16  C   UNL     1       5.387  32.801  58.236  1.00  0.00     0.086 C 
HETATM   17  C   UNL     1       4.755  33.223  56.905  1.00  0.00     0.027 C 
HETATM   18  C   UNL     1       3.767  32.224  56.306  1.00  0.00     0.022 C 
BRANCH  16  19
HETATM   19  N   UNL     1       4.693  33.323  59.412  1.00  0.00    -0.339 N 
HETATM   20  C   UNL     1       5.218  33.475  60.667  1.00  0.00     0.317 C 
HETATM   21  N   UNL     1       4.295  34.076  61.492  1.00  0.00    -0.335 N 
HETATM   22  O   UNL     1       6.345  33.154  61.001  1.00  0.00    -0.247 OA
HETATM   23  H   UNL     1       3.655  34.669  60.984  1.00  0.00     0.165 HD
HETATM   24  H   UNL     1       3.689  33.210  59.409  1.00  0.00     0.164 HD
BRANCH  21  25
HETATM   25  C   UNL     1       4.576  34.493  62.876  1.00  0.00     0.023 C 
HETATM   26  C   UNL     1       5.730  35.507  62.916  1.00  0.00     0.037 C 
HETATM   27  C   UNL     1       3.306  35.171  63.425  1.00  0.00     0.037 C 
HETATM   28  C   UNL     1       4.899  33.287  63.773  1.00  0.00     0.037 C 
ENDBRANCH  21  25
ENDBRANCH  16  19
ENDBRANCH  11  13
ENDBRANCH   5  11
BRANCH   1  29
HETATM   29  C   UNL     1       9.452  28.646  57.178  1.00  0.00     0.076 C 
HETATM   30  C   UNL     1      10.375  29.708  56.602  1.00  0.00     0.013 C 
ENDBRANCH   1  29
BRANCH   7  31
HETATM   31  C   UNL     1       6.889  24.927  54.047  1.00  0.00     0.060 A 
HETATM   32  C   UNL     1       7.364  24.575  52.779  1.00  0.00     0.032 A 
HETATM   33  C   UNL     1       7.884  23.295  52.547  1.00  0.00     0.009 A 
HETATM   34  C   UNL     1       7.946  22.351  53.577  1.00  0.00    -0.062 A 
HETATM   35  C   UNL     1       8.465  20.967  53.323  1.00  0.00     0.048 C 
HETATM   36  C   UNL     1       7.468  22.698  54.844  1.00  0.00     0.009 A 
HETATM   37  C   UNL     1       6.948  23.975  55.078  1.00  0.00     0.032 A 
ENDBRANCH   7  31
TORSDOF 6
ENDMDL
MODEL 7
REMARK VINA RESULT:      -9.8      2.423      4.214
REMARK  6 active torsions:
REMARK  status: ('A' for Active; 'I' for Inactive)
REMARK    1  A    between atoms: C_2  and  C_3 
REMARK    2  A    between atoms: C_7  and  N_8 
REMARK    3  A    between atoms: N_8  and  C_9 
REMARK    4  A    between atoms: C_12  and  N_13 
REMARK       I    between atoms: N_13  and  C_14 
REMARK       I    between atoms: C_14  and  N_15 
REMARK    5  A    between atoms: N_15  and  C_16 
REMARK    6  A    between atoms: N_24  and  C_25 
ROOT
HETATM    1  C   UNL     1       7.986  31.406  58.892  1.00  0.00     0.130 A 
HETATM    2  N   UNL     1       7.085  32.228  59.458  1.00  0.00    -0.213 NA
HETATM    3  C   UNL     1       5.830  32.022  59.013  1.00  0.00     0.169 A 
HETATM    4  C   UNL     1       5.460  31.069  58.076  1.00  0.00     0.078 A 
HETATM    5  C   UNL     1       6.460  30.213  57.582  1.00  0.00     0.121 A 
HETATM    6  N   UNL     1       7.726  30.421  58.008  1.00  0.00    -0.221 NA
HETATM    7  N   UNL     1       4.661  32.679  59.391  1.00  0.00    -0.214 N 
HETATM    8  N   UNL     1       3.586  32.227  58.675  1.00  0.00    -0.170 NA
HETATM    9  C   UNL     1       4.072  31.264  57.889  1.00  0.00     0.069 A 
HETATM   10  C   UNL     1       3.157  30.552  56.961  1.00  0.00     0.073 C 
ENDROOT
BRANCH   5  11
HETATM   11  N   UNL     1       6.174  29.178  56.687  1.00  0.00    -0.272 NA
HETATM   12  H   UNL     1       5.209  28.889  56.783  1.00  0.00     0.129 HD
BRANCH  11  13
HETATM   13  C   UNL     1       7.117  28.052  56.637  1.00  0.00     0.062 C 
HETATM   14  C   UNL     1       6.397  26.790  57.135  1.00  0.00     0.022 C 
HETATM   15  C   UNL     1       5.276  26.331  56.203  1.00  0.00     0.027 C 
HETATM   16  C   UNL     1       5.636  26.282  54.712  1.00  0.00     0.086 C 
HETATM   17  C   UNL     1       6.544  27.420  54.232  1.00  0.00     0.027 C 
HETATM   18  C   UNL     1       7.638  27.839  55.213  1.00  0.00     0.022 C 
BRANCH  16  19
HETATM   19  N   UNL     1       6.057  24.959  54.257  1.00  0.00    -0.339 N 
HETATM   20  C   UNL     1       7.099  24.221  54.754  1.00  0.00     0.317 C 
HETATM   21  N   UNL     1       7.138  22.991  54.137  1.00  0.00    -0.335 N 
HETATM   22  O   UNL     1       7.863  24.584  55.631  1.00  0.00    -0.247 OA
HETATM   23  H   UNL     1       6.227  22.691  53.821  1.00  0.00     0.165 HD
HETATM   24  H   UNL     1       5.829  24.736  53.300  1.00  0.00     0.164 HD
BRANCH  21  25
HETATM   25  C   UNL     1       8.060  21.909  54.517  1.00  0.00     0.023 C 
HETATM   26  C   UNL     1       7.674  21.317  55.882  1.00  0.00     0.037 C 
HETATM   27  C   UNL     1       7.945  20.802  53.451  1.00  0.00     0.037 C 
HETATM   28  C   UNL     1       9.519  22.395  54.544  1.00  0.00     0.037 C 
ENDBRANCH  21  25
ENDBRANCH  16  19
ENDBRANCH  11  13
ENDBRANCH   5  11
BRANCH   1  29
HETATM   29  C   UNL     1       9.420  31.573  59.318  1.00  0.00     0.076 C 
HETATM   30  C   UNL     1       9.518  31.982  60.778  1.00  0.00     0.013 C 
ENDBRANCH   1  29
BRANCH   7  31
HETATM   31  C   UNL     1       4.460  33.684  60.389  1.00  0.00     0.060 A 
HETATM   32  C   UNL     1       4.536  33.403  61.757  1.00  0.00     0.032 A 
HETATM   33  C   UNL     1       4.304  34.412  62.701  1.00  0.00     0.009 A 
HETATM   34  C   UNL     1       4.003  35.716  62.296  1.00  0.00    -0.062 A 
HETATM   35  C   UNL     1       3.715  36.789  63.304  1.00  0.00     0.048 C 
HETATM   36  C   UNL     1       3.921  35.999  60.930  1.00  0.00     0.009 A 
HETATM   37  C   UNL     1       4.152  34.995  59.984  1.00  0.00     0.032 A 
ENDBRANCH   7  31
TORSDOF 6
ENDMDL
MODEL 8
REMARK VINA RESULT:      -9.2      4.747     11.671
REMARK  6 active torsions:
REMARK  status: ('A' for Active; 'I' for Inactive)
REMARK    1  A    between atoms: C_2  and  C_3 
REMARK    2  A    between atoms: C_7  and  N_8 
REMARK    3  A    between atoms: N_8  and  C_9 
REMARK    4  A    between atoms: C_12  and  N_13 
REMARK       I    between atoms: N_13  and  C_14 
REMARK       I    between atoms: C_14  and  N_15 
REMARK    5  A    between atoms: N_15  and  C_16 
REMARK    6  A    between atoms: N_24  and  C_25 
ROOT
HETATM    1  C   UNL     1       7.022  31.728  60.185  1.00  0.00     0.130 A 
HETATM    2  N   UNL     1       6.263  31.784  59.078  1.00  0.00    -0.213 NA
HETATM    3  C   UNL     1       5.085  32.408  59.278  1.00  0.00     0.169 A 
HETATM    4  C   UNL     1       4.664  32.955  60.480  1.00  0.00     0.078 A 
HETATM    5  C   UNL     1       5.549  32.903  61.570  1.00  0.00     0.121 A 
HETATM    6  N   UNL     1       6.727  32.265  61.387  1.00  0.00    -0.221 NA
HETATM    7  N   UNL     1       4.070  32.652  58.355  1.00  0.00    -0.214 N 
HETATM    8  N   UNL     1       3.000  33.265  58.948  1.00  0.00    -0.170 NA
HETATM    9  C   UNL     1       3.361  33.443  60.220  1.00  0.00     0.069 A 
HETATM   10  C   UNL     1       2.413  34.088  61.162  1.00  0.00     0.073 C 
ENDROOT
BRANCH   5  11
HETATM   11  N   UNL     1       5.244  33.487  62.802  1.00  0.00    -0.272 NA
HETATM   12  H   UNL     1       4.263  33.734  62.840  1.00  0.00     0.129 HD
BRANCH  11  13
HETATM   13  C   UNL     1       6.131  34.558  63.279  1.00  0.00     0.062 C 
HETATM   14  C   UNL     1       5.278  35.621  63.986  1.00  0.00     0.022 C 
HETATM   15  C   UNL     1       4.638  35.114  65.279  1.00  0.00     0.027 C 
HETATM   16  C   UNL     1       5.576  34.354  66.225  1.00  0.00     0.086 C 
HETATM   17  C   UNL     1       6.595  33.445  65.528  1.00  0.00     0.027 C 
HETATM   18  C   UNL     1       7.190  34.003  64.236  1.00  0.00     0.022 C 
BRANCH  16  19
HETATM   19  N   UNL     1       6.154  35.194  67.272  1.00  0.00    -0.339 N 
HETATM   20  C   UNL     1       6.429  34.817  68.560  1.00  0.00     0.317 C 
HETATM   21  N   UNL     1       7.048  35.849  69.228  1.00  0.00    -0.335 N 
HETATM   22  O   UNL     1       6.189  33.722  69.039  1.00  0.00    -0.247 OA
HETATM   23  H   UNL     1       7.568  36.452  68.607  1.00  0.00     0.165 HD
HETATM   24  H   UNL     1       5.994  36.186  67.171  1.00  0.00     0.164 HD
BRANCH  21  25
HETATM   25  C   UNL     1       7.584  35.740  70.595  1.00  0.00     0.023 C 
HETATM   26  C   UNL     1       8.727  34.714  70.652  1.00  0.00     0.037 C 
HETATM   27  C   UNL     1       8.143  37.120  70.988  1.00  0.00     0.037 C 
HETATM   28  C   UNL     1       6.485  35.365  71.603  1.00  0.00     0.037 C 
ENDBRANCH  21  25
ENDBRANCH  16  19
ENDBRANCH  11  13
ENDBRANCH   5  11
BRANCH   1  29
HETATM   29  C   UNL     1       8.353  31.035  60.063  1.00  0.00     0.076 C 
HETATM   30  C   UNL     1       9.503  32.001  60.298  1.00  0.00     0.013 C 
ENDBRANCH   1  29
BRANCH   7  31
HETATM   31  C   UNL     1       4.027  32.380  56.951  1.00  0.00     0.060 A 
HETATM   32  C   UNL     1       4.669  33.195  56.014  1.00  0.00     0.032 A 
HETATM   33  C   UNL     1       4.577  32.909  54.645  1.00  0.00     0.009 A 
HETATM   34  C   UNL     1       3.853  31.801  54.193  1.00  0.00    -0.062 A 
HETATM   35  C   UNL     1       3.720  31.514  52.727  1.00  0.00     0.048 C 
HETATM   36  C   UNL     1       3.206  30.988  55.127  1.00  0.00     0.009 A 
HETATM   37  C   UNL     1       3.295  31.271  56.494  1.00  0.00     0.032 A 
ENDBRANCH   7  31
TORSDOF 6
ENDMDL
MODEL 9
REMARK VINA RESULT:      -9.2      4.069     10.974
REMARK  6 active torsions:
REMARK  status: ('A' for Active; 'I' for Inactive)
REMARK    1  A    between atoms: C_2  and  C_3 
REMARK    2  A    between atoms: C_7  and  N_8 
REMARK    3  A    between atoms: N_8  and  C_9 
REMARK    4  A    between atoms: C_12  and  N_13 
REMARK       I    between atoms: N_13  and  C_14 
REMARK       I    between atoms: C_14  and  N_15 
REMARK    5  A    between atoms: N_15  and  C_16 
REMARK    6  A    between atoms: N_24  and  C_25 
ROOT
HETATM    1  C   UNL     1       4.527  27.699  53.733  1.00  0.00     0.130 A 
HETATM    2  N   UNL     1       5.342  26.632  53.787  1.00  0.00    -0.213 NA
HETATM    3  C   UNL     1       6.117  26.615  54.890  1.00  0.00     0.169 A 
HETATM    4  C   UNL     1       6.103  27.574  55.891  1.00  0.00     0.078 A 
HETATM    5  C   UNL     1       5.176  28.624  55.780  1.00  0.00     0.121 A 
HETATM    6  N   UNL     1       4.405  28.661  54.670  1.00  0.00    -0.221 NA
HETATM    7  N   UNL     1       7.058  25.660  55.270  1.00  0.00    -0.214 N 
HETATM    8  N   UNL     1       7.686  26.019  56.431  1.00  0.00    -0.170 NA
HETATM    9  C   UNL     1       7.110  27.167  56.797  1.00  0.00     0.069 A 
HETATM   10  C   UNL     1       7.567  27.846  58.036  1.00  0.00     0.073 C 
ENDROOT
BRANCH   5  11
HETATM   11  N   UNL     1       5.039  29.600  56.771  1.00  0.00    -0.272 NA
HETATM   12  H   UNL     1       4.060  29.756  56.976  1.00  0.00     0.129 HD
BRANCH  11  13
HETATM   13  C   UNL     1       5.803  30.844  56.602  1.00  0.00     0.062 C 
HETATM   14  C   UNL     1       4.941  31.844  55.817  1.00  0.00     0.022 C 
HETATM   15  C   UNL     1       3.708  32.310  56.591  1.00  0.00     0.027 C 
HETATM   16  C   UNL     1       3.962  32.730  58.045  1.00  0.00     0.086 C 
HETATM   17  C   UNL     1       4.993  31.875  58.791  1.00  0.00     0.027 C 
HETATM   18  C   UNL     1       6.196  31.432  57.960  1.00  0.00     0.022 C 
BRANCH  16  19
HETATM   19  N   UNL     1       4.157  34.169  58.211  1.00  0.00    -0.339 N 
HETATM   20  C   UNL     1       3.468  34.992  59.061  1.00  0.00     0.317 C 
HETATM   21  N   UNL     1       3.987  36.265  59.005  1.00  0.00    -0.335 N 
HETATM   22  O   UNL     1       2.548  34.646  59.783  1.00  0.00    -0.247 OA
HETATM   23  H   UNL     1       4.965  36.270  58.753  1.00  0.00     0.165 HD
HETATM   24  H   UNL     1       4.539  34.650  57.410  1.00  0.00     0.164 HD
BRANCH  21  25
HETATM   25  C   UNL     1       3.555  37.369  59.877  1.00  0.00     0.023 C 
HETATM   26  C   UNL     1       4.432  38.613  59.657  1.00  0.00     0.037 C 
HETATM   27  C   UNL     1       2.103  37.720  59.502  1.00  0.00     0.037 C 
HETATM   28  C   UNL     1       3.580  36.959  61.359  1.00  0.00     0.037 C 
ENDBRANCH  21  25
ENDBRANCH  16  19
ENDBRANCH  11  13
ENDBRANCH   5  11
BRANCH   1  29
HETATM   29  C   UNL     1       3.633  27.811  52.527  1.00  0.00     0.076 C 
HETATM   30  C   UNL     1       3.176  29.244  52.309  1.00  0.00     0.013 C 
ENDBRANCH   1  29
BRANCH   7  31
HETATM   31  C   UNL     1       7.404  24.420  54.646  1.00  0.00     0.060 A 
HETATM   32  C   UNL     1       7.811  24.345  53.310  1.00  0.00     0.032 A 
HETATM   33  C   UNL     1       8.113  23.107  52.730  1.00  0.00     0.009 A 
HETATM   34  C   UNL     1       8.023  21.926  53.475  1.00  0.00    -0.062 A 
HETATM   35  C   UNL     1       8.308  20.595  52.846  1.00  0.00     0.048 C 
HETATM   36  C   UNL     1       7.612  21.997  54.808  1.00  0.00     0.009 A 
HETATM   37  C   UNL     1       7.309  23.232  55.391  1.00  0.00     0.032 A 
ENDBRANCH   7  31
TORSDOF 6
ENDMDL
MODEL 10
REMARK VINA RESULT:      -9.0      4.085     10.976
REMARK  6 active torsions:
REMARK  status: ('A' for Active; 'I' for Inactive)
REMARK    1  A    between atoms: C_2  and  C_3 
REMARK    2  A    between atoms: C_7  and  N_8 
REMARK    3  A    between atoms: N_8  and  C_9 
REMARK    4  A    between atoms: C_12  and  N_13 
REMARK       I    between atoms: N_13  and  C_14 
REMARK       I    between atoms: C_14  and  N_15 
REMARK    5  A    between atoms: N_15  and  C_16 
REMARK    6  A    between atoms: N_24  and  C_25 
ROOT
HETATM    1  C   UNL     1       7.725  27.770  56.118  1.00  0.00     0.130 A 
HETATM    2  N   UNL     1       7.647  26.491  55.713  1.00  0.00    -0.213 NA
HETATM    3  C   UNL     1       6.739  26.303  54.734  1.00  0.00     0.169 A 
HETATM    4  C   UNL     1       5.953  27.296  54.171  1.00  0.00     0.078 A 
HETATM    5  C   UNL     1       6.144  28.615  54.617  1.00  0.00     0.121 A 
HETATM    6  N   UNL     1       7.040  28.814  55.610  1.00  0.00    -0.221 NA
HETATM    7  N   UNL     1       6.411  25.118  54.077  1.00  0.00    -0.214 N 
HETATM    8  N   UNL     1       5.399  25.316  53.178  1.00  0.00    -0.170 NA
HETATM    9  C   UNL     1       5.128  26.622  53.240  1.00  0.00     0.069 A 
HETATM   10  C   UNL     1       4.056  27.184  52.381  1.00  0.00     0.073 C 
ENDROOT
BRANCH   5  11
HETATM   11  N   UNL     1       5.449  29.693  54.063  1.00  0.00    -0.272 NA
HETATM   12  H   UNL     1       6.034  30.519  54.050  1.00  0.00     0.129 HD
BRANCH  11  13
HETATM   13  C   UNL     1       4.091  29.949  54.567  1.00  0.00     0.062 C 
HETATM   14  C   UNL     1       4.144  30.010  56.100  1.00  0.00     0.022 C 
HETATM   15  C   UNL     1       4.931  31.210  56.627  1.00  0.00     0.027 C 
HETATM   16  C   UNL     1       4.596  32.557  55.973  1.00  0.00     0.086 C 
HETATM   17  C   UNL     1       4.320  32.489  54.467  1.00  0.00     0.027 C 
HETATM   18  C   UNL     1       3.539  31.261  54.002  1.00  0.00     0.022 C 
BRANCH  16  19
HETATM   19  N   UNL     1       3.612  33.339  56.719  1.00  0.00    -0.339 N 
HETATM   20  C   UNL     1       3.827  34.011  57.893  1.00  0.00     0.317 C 
HETATM   21  N   UNL     1       2.694  34.704  58.251  1.00  0.00    -0.335 N 
HETATM   22  O   UNL     1       4.874  34.019  58.517  1.00  0.00    -0.247 OA
HETATM   23  H   UNL     1       2.134  34.964  57.452  1.00  0.00     0.165 HD
HETATM   24  H   UNL     1       2.649  33.069  56.583  1.00  0.00     0.164 HD
BRANCH  21  25
HETATM   25  C   UNL     1       2.619  35.624  59.398  1.00  0.00     0.023 C 
HETATM   26  C   UNL     1       1.250  36.321  59.450  1.00  0.00     0.037 C 
HETATM   27  C   UNL     1       2.792  34.786  60.680  1.00  0.00     0.037 C 
HETATM   28  C   UNL     1       3.745  36.670  59.356  1.00  0.00     0.037 C 
ENDBRANCH  21  25
ENDBRANCH  16  19
ENDBRANCH  11  13
ENDBRANCH   5  11
BRANCH   1  29
HETATM   29  C   UNL     1       8.703  28.074  57.221  1.00  0.00     0.076 C 
HETATM   30  C   UNL     1       8.248  29.264  58.050  1.00  0.00     0.013 C 
ENDBRANCH   1  29
BRANCH   7  31
HETATM   31  C   UNL     1       6.984  23.814  54.204  1.00  0.00     0.060 A 
HETATM   32  C   UNL     1       7.129  23.181  55.442  1.00  0.00     0.032 A 
HETATM   33  C   UNL     1       7.723  21.914  55.525  1.00  0.00     0.009 A 
HETATM   34  C   UNL     1       8.171  21.258  54.375  1.00  0.00    -0.062 A 
HETATM   35  C   UNL     1       8.843  19.919  54.464  1.00  0.00     0.048 C 
HETATM   36  C   UNL     1       8.032  21.890  53.137  1.00  0.00     0.009 A 
HETATM   37  C   UNL     1       7.441  23.154  53.050  1.00  0.00     0.032 A 
ENDBRANCH   7  31
TORSDOF 6
ENDMDL
