MODEL 1
REMARK VINA RESULT:      -9.5      0.000      0.000
REMARK  5 active torsions:
REMARK  status: ('A' for Active; 'I' for Inactive)
REMARK    1  A    between atoms: C_5  and  O_6 
REMARK    2  A    between atoms: O_6  and  C_7 
REMARK    3  A    between atoms: C_7  and  C_8 
REMARK       I    between atoms: C_8  and  N_9 
REMARK    4  A    between atoms: N_9  and  N_10 
REMARK    5  A    between atoms: C_11  and  C_12 
ROOT
HETATM    1  C   UNL     1       8.248  28.384  57.218  1.00  0.00     0.261 C 
HETATM    2  N   UNL     1       7.319  27.695  56.446  1.00  0.00    -0.246 N 
HETATM    3  O   UNL     1       9.464  28.415  57.034  1.00  0.00    -0.269 OA
HETATM    4  H   UNL     1       6.400  27.559  56.862  1.00  0.00     0.192 HD
ENDROOT
BRANCH   2   5
HETATM    5  N   UNL     1       7.609  26.826  55.417  1.00  0.00    -0.184 NA
HETATM    6  C   UNL     1       7.355  25.567  55.584  1.00  0.00     0.152 C 
BRANCH   6   7
HETATM    7  C   UNL     1       7.594  24.631  54.502  1.00  0.00     0.011 A 
HETATM    8  C   UNL     1       7.712  23.207  54.616  1.00  0.00     0.004 A 
HETATM    9  C   UNL     1       7.943  22.702  53.337  1.00  0.00     0.043 A 
HETATM   10  C   UNL     1       7.635  22.297  55.694  1.00  0.00     0.014 A 
HETATM   11  C   UNL     1       8.107  21.336  53.080  1.00  0.00     0.030 A 
HETATM   12  N   UNL     1       7.961  23.776  52.476  1.00  0.00    -0.364 N 
HETATM   13  C   UNL     1       8.028  20.457  54.165  1.00  0.00     0.002 A 
HETATM   14  C   UNL     1       7.793  20.928  55.453  1.00  0.00     0.001 A 
HETATM   15  H   UNL     1       8.105  23.707  51.478  1.00  0.00     0.165 HD
HETATM   16  C   UNL     1       7.745  24.939  53.163  1.00  0.00     0.102 A 
ENDBRANCH   6   7
ENDBRANCH   2   5
BRANCH   1  17
HETATM   17  C   UNL     1       7.609  29.199  58.339  1.00  0.00     0.280 C 
BRANCH  17  18
HETATM   18  O   UNL     1       8.587  29.763  59.218  1.00  0.00    -0.342 OA
BRANCH  18  19
HETATM   19  C   UNL     1       8.015  30.803  59.910  1.00  0.00     0.075 A 
HETATM   20  C   UNL     1       8.407  31.094  61.228  1.00  0.00    -0.023 A 
HETATM   21  C   UNL     1       7.716  32.111  61.923  1.00  0.00    -0.053 A 
HETATM   22  C   UNL     1       9.499  30.302  61.894  1.00  0.00     0.052 C 
HETATM   23  C   UNL     1       8.031  32.445  63.357  1.00  0.00     0.049 C 
HETATM   24  C   UNL     1       6.727  32.857  61.258  1.00  0.00     0.007 A 
HETATM   25  C   UNL     1       6.402  32.593  59.928  1.00  0.00     0.003 A 
HETATM   26  C   UNL     1       7.047  31.564  59.252  1.00  0.00     0.037 A 
ENDBRANCH  18  19
ENDBRANCH  17  18
ENDBRANCH   1  17
TORSDOF 5
ENDMDL
MODEL 2
REMARK VINA RESULT:      -9.5      2.097     10.173
REMARK  5 active torsions:
REMARK  status: ('A' for Active; 'I' for Inactive)
REMARK    1  A    between atoms: C_5  and  O_6 
REMARK    2  A    between atoms: O_6  and  C_7 
REMARK    3  A    between atoms: C_7  and  C_8 
REMARK       I    between atoms: C_8  and  N_9 
REMARK    4  A    between atoms: N_9  and  N_10 
REMARK    5  A    between atoms: C_11  and  C_12 
ROOT
HETATM    1  C   UNL     1       7.562  25.917  57.295  1.00  0.00     0.261 C 
HETATM    2  N   UNL     1       8.186  27.150  57.442  1.00  0.00    -0.246 N 
HETATM    3  O   UNL     1       6.461  25.603  57.746  1.00  0.00    -0.269 OA
HETATM    4  H   UNL     1       9.183  27.178  57.236  1.00  0.00     0.192 HD
ENDROOT
BRANCH   2   5
HETATM    5  N   UNL     1       7.741  28.194  58.222  1.00  0.00    -0.184 NA
HETATM    6  C   UNL     1       8.054  29.401  57.875  1.00  0.00     0.152 C 
BRANCH   6   7
HETATM    7  C   UNL     1       7.555  30.527  58.640  1.00  0.00     0.011 A 
HETATM    8  C   UNL     1       8.032  30.970  59.917  1.00  0.00     0.004 A 
HETATM    9  C   UNL     1       7.270  32.078  60.289  1.00  0.00     0.043 A 
HETATM   10  C   UNL     1       9.053  30.534  60.791  1.00  0.00     0.014 A 
HETATM   11  C   UNL     1       7.471  32.768  61.491  1.00  0.00     0.030 A 
HETATM   12  N   UNL     1       6.366  32.304  59.276  1.00  0.00    -0.364 N 
HETATM   13  C   UNL     1       8.488  32.314  62.338  1.00  0.00     0.002 A 
HETATM   14  C   UNL     1       9.270  31.215  61.994  1.00  0.00     0.001 A 
HETATM   15  H   UNL     1       5.684  33.050  59.273  1.00  0.00     0.165 HD
HETATM   16  C   UNL     1       6.532  31.383  58.278  1.00  0.00     0.102 A 
ENDBRANCH   6   7
ENDBRANCH   2   5
BRANCH   1  17
HETATM   17  C   UNL     1       8.356  24.942  56.430  1.00  0.00     0.280 C 
BRANCH  17  18
HETATM   18  O   UNL     1       7.547  24.343  55.413  1.00  0.00    -0.342 OA
BRANCH  18  19
HETATM   19  C   UNL     1       7.874  23.012  55.311  1.00  0.00     0.075 A 
HETATM   20  C   UNL     1       8.023  22.401  54.055  1.00  0.00    -0.023 A 
HETATM   21  C   UNL     1       8.264  21.010  54.011  1.00  0.00    -0.053 A 
HETATM   22  C   UNL     1       7.875  23.204  52.791  1.00  0.00     0.052 C 
HETATM   23  C   UNL     1       8.376  20.266  52.707  1.00  0.00     0.049 C 
HETATM   24  C   UNL     1       8.435  20.298  55.211  1.00  0.00     0.007 A 
HETATM   25  C   UNL     1       8.348  20.940  56.445  1.00  0.00     0.003 A 
HETATM   26  C   UNL     1       8.068  22.300  56.497  1.00  0.00     0.037 A 
ENDBRANCH  18  19
ENDBRANCH  17  18
ENDBRANCH   1  17
TORSDOF 5
ENDMDL
MODEL 3
REMARK VINA RESULT:      -9.3      5.713      9.064
REMARK  5 active torsions:
REMARK  status: ('A' for Active; 'I' for Inactive)
REMARK    1  A    between atoms: C_5  and  O_6 
REMARK    2  A    between atoms: O_6  and  C_7 
REMARK    3  A    between atoms: C_7  and  C_8 
REMARK       I    between atoms: C_8  and  N_9 
REMARK    4  A    between atoms: N_9  and  N_10 
REMARK    5  A    between atoms: C_11  and  C_12 
ROOT
HETATM    1  C   UNL     1       5.711  25.862  54.862  1.00  0.00     0.261 C 
HETATM    2  N   UNL     1       5.474  25.453  53.555  1.00  0.00    -0.246 N 
HETATM    3  O   UNL     1       5.387  26.942  55.354  1.00  0.00    -0.269 OA
HETATM    4  H   UNL     1       6.014  24.654  53.228  1.00  0.00     0.192 HD
ENDROOT
BRANCH   2   5
HETATM    5  N   UNL     1       4.949  26.231  52.547  1.00  0.00    -0.184 NA
HETATM    6  C   UNL     1       5.609  26.329  51.437  1.00  0.00     0.152 C 
BRANCH   6   7
HETATM    7  C   UNL     1       5.060  27.092  50.333  1.00  0.00     0.011 A 
HETATM    8  C   UNL     1       4.256  26.585  49.261  1.00  0.00     0.004 A 
HETATM    9  C   UNL     1       3.952  27.657  48.421  1.00  0.00     0.043 A 
HETATM   10  C   UNL     1       3.749  25.308  48.931  1.00  0.00     0.014 A 
HETATM   11  C   UNL     1       3.173  27.517  47.266  1.00  0.00     0.030 A 
HETATM   12  N   UNL     1       4.544  28.775  48.963  1.00  0.00    -0.364 N 
HETATM   13  C   UNL     1       2.686  26.242  46.961  1.00  0.00     0.002 A 
HETATM   14  C   UNL     1       2.967  25.153  47.781  1.00  0.00     0.001 A 
HETATM   15  H   UNL     1       4.487  29.702  48.565  1.00  0.00     0.165 HD
HETATM   16  C   UNL     1       5.206  28.449  50.115  1.00  0.00     0.102 A 
ENDBRANCH   6   7
ENDBRANCH   2   5
BRANCH   1  17
HETATM   17  C   UNL     1       6.385  24.790  55.714  1.00  0.00     0.280 C 
BRANCH  17  18
HETATM   18  O   UNL     1       7.750  24.584  55.338  1.00  0.00    -0.342 OA
BRANCH  18  19
HETATM   19  C   UNL     1       7.996  23.233  55.285  1.00  0.00     0.075 A 
HETATM   20  C   UNL     1       8.102  22.567  54.052  1.00  0.00    -0.023 A 
HETATM   21  C   UNL     1       8.258  21.164  54.059  1.00  0.00    -0.053 A 
HETATM   22  C   UNL     1       7.997  23.331  52.759  1.00  0.00     0.052 C 
HETATM   23  C   UNL     1       8.318  20.367  52.783  1.00  0.00     0.049 C 
HETATM   24  C   UNL     1       8.391  20.487  55.284  1.00  0.00     0.007 A 
HETATM   25  C   UNL     1       8.349  21.179  56.494  1.00  0.00     0.003 A 
HETATM   26  C   UNL     1       8.152  22.554  56.495  1.00  0.00     0.037 A 
ENDBRANCH  18  19
ENDBRANCH  17  18
ENDBRANCH   1  17
TORSDOF 5
ENDMDL
MODEL 4
REMARK VINA RESULT:      -9.3      1.568      2.261
REMARK  5 active torsions:
REMARK  status: ('A' for Active; 'I' for Inactive)
REMARK    1  A    between atoms: C_5  and  O_6 
REMARK    2  A    between atoms: O_6  and  C_7 
REMARK    3  A    between atoms: C_7  and  C_8 
REMARK       I    between atoms: C_8  and  N_9 
REMARK    4  A    between atoms: N_9  and  N_10 
REMARK    5  A    between atoms: C_11  and  C_12 
ROOT
HETATM    1  C   UNL     1       7.932  29.552  58.323  1.00  0.00     0.261 C 
HETATM    2  N   UNL     1       7.214  28.487  57.791  1.00  0.00    -0.246 N 
HETATM    3  O   UNL     1       9.120  29.538  58.642  1.00  0.00    -0.269 OA
HETATM    4  H   UNL     1       6.199  28.572  57.816  1.00  0.00     0.192 HD
ENDROOT
BRANCH   2   5
HETATM    5  N   UNL     1       7.670  27.196  57.645  1.00  0.00    -0.184 NA
HETATM    6  C   UNL     1       7.352  26.547  56.571  1.00  0.00     0.152 C 
BRANCH   6   7
HETATM    7  C   UNL     1       7.862  25.207  56.357  1.00  0.00     0.011 A 
HETATM    8  C   UNL     1       7.847  24.474  55.125  1.00  0.00     0.004 A 
HETATM    9  C   UNL     1       8.429  23.231  55.369  1.00  0.00     0.043 A 
HETATM   10  C   UNL     1       7.398  24.760  53.817  1.00  0.00     0.014 A 
HETATM   11  C   UNL     1       8.580  22.256  54.376  1.00  0.00     0.030 A 
HETATM   12  N   UNL     1       8.789  23.207  56.698  1.00  0.00    -0.364 N 
HETATM   13  C   UNL     1       8.125  22.564  53.089  1.00  0.00     0.002 A 
HETATM   14  C   UNL     1       7.544  23.798  52.811  1.00  0.00     0.001 A 
HETATM   15  H   UNL     1       9.239  22.426  57.155  1.00  0.00     0.165 HD
HETATM   16  C   UNL     1       8.459  24.391  57.299  1.00  0.00     0.102 A 
ENDBRANCH   6   7
ENDBRANCH   2   5
BRANCH   1  17
HETATM   17  C   UNL     1       7.112  30.835  58.432  1.00  0.00     0.280 C 
BRANCH  17  18
HETATM   18  O   UNL     1       7.879  31.919  58.965  1.00  0.00    -0.342 OA
BRANCH  18  19
HETATM   19  C   UNL     1       7.276  32.365  60.116  1.00  0.00     0.075 A 
HETATM   20  C   UNL     1       7.982  32.407  61.330  1.00  0.00    -0.023 A 
HETATM   21  C   UNL     1       7.284  32.781  62.499  1.00  0.00    -0.053 A 
HETATM   22  C   UNL     1       9.432  32.009  61.386  1.00  0.00     0.052 C 
HETATM   23  C   UNL     1       7.949  32.792  63.850  1.00  0.00     0.049 C 
HETATM   24  C   UNL     1       5.940  33.183  62.405  1.00  0.00     0.007 A 
HETATM   25  C   UNL     1       5.279  33.197  61.178  1.00  0.00     0.003 A 
HETATM   26  C   UNL     1       5.948  32.788  60.030  1.00  0.00     0.037 A 
ENDBRANCH  18  19
ENDBRANCH  17  18
ENDBRANCH   1  17
TORSDOF 5
ENDMDL
MODEL 5
REMARK VINA RESULT:      -9.1      1.923      9.973
REMARK  5 active torsions:
REMARK  status: ('A' for Active; 'I' for Inactive)
REMARK    1  A    between atoms: C_5  and  O_6 
REMARK    2  A    between atoms: O_6  and  C_7 
REMARK    3  A    between atoms: C_7  and  C_8 
REMARK       I    between atoms: C_8  and  N_9 
REMARK    4  A    between atoms: N_9  and  N_10 
REMARK    5  A    between atoms: C_11  and  C_12 
ROOT
HETATM    1  C   UNL     1       7.469  26.422  57.229  1.00  0.00     0.261 C 
HETATM    2  N   UNL     1       6.798  27.587  56.876  1.00  0.00    -0.246 N 
HETATM    3  O   UNL     1       7.822  26.104  58.364  1.00  0.00    -0.269 OA
HETATM    4  H   UNL     1       6.799  27.825  55.886  1.00  0.00     0.192 HD
ENDROOT
BRANCH   2   5
HETATM    5  N   UNL     1       6.524  28.647  57.712  1.00  0.00    -0.184 NA
HETATM    6  C   UNL     1       7.404  29.591  57.820  1.00  0.00     0.152 C 
BRANCH   6   7
HETATM    7  C   UNL     1       7.125  30.750  58.646  1.00  0.00     0.011 A 
HETATM    8  C   UNL     1       7.765  31.092  59.882  1.00  0.00     0.004 A 
HETATM    9  C   UNL     1       7.190  32.277  60.338  1.00  0.00     0.043 A 
HETATM   10  C   UNL     1       8.793  30.504  60.652  1.00  0.00     0.014 A 
HETATM   11  C   UNL     1       7.583  32.902  61.528  1.00  0.00     0.030 A 
HETATM   12  N   UNL     1       6.238  32.646  59.416  1.00  0.00    -0.364 N 
HETATM   13  C   UNL     1       8.602  32.297  62.273  1.00  0.00     0.002 A 
HETATM   14  C   UNL     1       9.201  31.117  61.841  1.00  0.00     0.001 A 
HETATM   15  H   UNL     1       5.662  33.473  59.487  1.00  0.00     0.165 HD
HETATM   16  C   UNL     1       6.195  31.740  58.391  1.00  0.00     0.102 A 
ENDBRANCH   6   7
ENDBRANCH   2   5
BRANCH   1  17
HETATM   17  C   UNL     1       7.693  25.478  56.051  1.00  0.00     0.280 C 
BRANCH  17  18
HETATM   18  O   UNL     1       7.405  24.118  56.389  1.00  0.00    -0.342 OA
BRANCH  18  19
HETATM   19  C   UNL     1       7.564  23.339  55.268  1.00  0.00     0.075 A 
HETATM   20  C   UNL     1       8.027  22.016  55.370  1.00  0.00    -0.023 A 
HETATM   21  C   UNL     1       8.265  21.296  54.179  1.00  0.00    -0.053 A 
HETATM   22  C   UNL     1       8.313  21.407  56.716  1.00  0.00     0.052 C 
HETATM   23  C   UNL     1       8.818  19.896  54.196  1.00  0.00     0.049 C 
HETATM   24  C   UNL     1       7.950  21.882  52.940  1.00  0.00     0.007 A 
HETATM   25  C   UNL     1       7.429  23.173  52.869  1.00  0.00     0.003 A 
HETATM   26  C   UNL     1       7.234  23.904  54.035  1.00  0.00     0.037 A 
ENDBRANCH  18  19
ENDBRANCH  17  18
ENDBRANCH   1  17
TORSDOF 5
ENDMDL
MODEL 6
REMARK VINA RESULT:      -8.7      2.295      3.545
REMARK  5 active torsions:
REMARK  status: ('A' for Active; 'I' for Inactive)
REMARK    1  A    between atoms: C_5  and  O_6 
REMARK    2  A    between atoms: O_6  and  C_7 
REMARK    3  A    between atoms: C_7  and  C_8 
REMARK       I    between atoms: C_8  and  N_9 
REMARK    4  A    between atoms: N_9  and  N_10 
REMARK    5  A    between atoms: C_11  and  C_12 
ROOT
HETATM    1  C   UNL     1       6.195  27.075  56.628  1.00  0.00     0.261 C 
HETATM    2  N   UNL     1       6.722  26.002  57.337  1.00  0.00    -0.246 N 
HETATM    3  O   UNL     1       5.678  27.023  55.513  1.00  0.00    -0.269 OA
HETATM    4  H   UNL     1       7.333  26.235  58.119  1.00  0.00     0.192 HD
ENDROOT
BRANCH   2   5
HETATM    5  N   UNL     1       6.873  24.717  56.866  1.00  0.00    -0.184 NA
HETATM    6  C   UNL     1       8.026  24.142  56.998  1.00  0.00     0.152 C 
BRANCH   6   7
HETATM    7  C   UNL     1       8.206  22.770  56.566  1.00  0.00     0.011 A 
HETATM    8  C   UNL     1       8.174  22.290  55.216  1.00  0.00     0.004 A 
HETATM    9  C   UNL     1       8.386  20.912  55.256  1.00  0.00     0.043 A 
HETATM   10  C   UNL     1       7.992  22.905  53.957  1.00  0.00     0.014 A 
HETATM   11  C   UNL     1       8.420  20.116  54.104  1.00  0.00     0.030 A 
HETATM   12  N   UNL     1       8.545  20.566  56.579  1.00  0.00    -0.364 N 
HETATM   13  C   UNL     1       8.236  20.750  52.871  1.00  0.00     0.002 A 
HETATM   14  C   UNL     1       8.027  22.124  52.796  1.00  0.00     0.001 A 
HETATM   15  H   UNL     1       8.719  19.626  56.908  1.00  0.00     0.165 HD
HETATM   16  C   UNL     1       8.446  21.675  57.374  1.00  0.00     0.102 A 
ENDBRANCH   6   7
ENDBRANCH   2   5
BRANCH   1  17
HETATM   17  C   UNL     1       6.248  28.390  57.401  1.00  0.00     0.280 C 
BRANCH  17  18
HETATM   18  O   UNL     1       6.751  29.464  56.602  1.00  0.00    -0.342 OA
BRANCH  18  19
HETATM   19  C   UNL     1       8.021  29.775  57.025  1.00  0.00     0.075 A 
HETATM   20  C   UNL     1       8.227  30.652  58.104  1.00  0.00    -0.023 A 
HETATM   21  C   UNL     1       9.552  31.011  58.431  1.00  0.00    -0.053 A 
HETATM   22  C   UNL     1       7.057  31.232  58.852  1.00  0.00     0.052 C 
HETATM   23  C   UNL     1       9.859  31.991  59.533  1.00  0.00     0.049 C 
HETATM   24  C   UNL     1      10.623  30.421  57.737  1.00  0.00     0.007 A 
HETATM   25  C   UNL     1      10.394  29.502  56.714  1.00  0.00     0.003 A 
HETATM   26  C   UNL     1       9.091  29.178  56.357  1.00  0.00     0.037 A 
ENDBRANCH  18  19
ENDBRANCH  17  18
ENDBRANCH   1  17
TORSDOF 5
ENDMDL
MODEL 7
REMARK VINA RESULT:      -8.7      1.807      2.788
REMARK  5 active torsions:
REMARK  status: ('A' for Active; 'I' for Inactive)
REMARK    1  A    between atoms: C_5  and  O_6 
REMARK    2  A    between atoms: O_6  and  C_7 
REMARK    3  A    between atoms: C_7  and  C_8 
REMARK       I    between atoms: C_8  and  N_9 
REMARK    4  A    between atoms: N_9  and  N_10 
REMARK    5  A    between atoms: C_11  and  C_12 
ROOT
HETATM    1  C   UNL     1       5.774  28.782  55.820  1.00  0.00     0.261 C 
HETATM    2  N   UNL     1       6.187  27.469  56.014  1.00  0.00    -0.246 N 
HETATM    3  O   UNL     1       5.383  29.271  54.761  1.00  0.00    -0.269 OA
HETATM    4  H   UNL     1       6.713  27.283  56.866  1.00  0.00     0.192 HD
ENDROOT
BRANCH   2   5
HETATM    5  N   UNL     1       6.350  26.519  55.030  1.00  0.00    -0.184 NA
HETATM    6  C   UNL     1       7.358  25.710  55.115  1.00  0.00     0.152 C 
BRANCH   6   7
HETATM    7  C   UNL     1       7.530  24.662  54.129  1.00  0.00     0.011 A 
HETATM    8  C   UNL     1       7.659  23.258  54.388  1.00  0.00     0.004 A 
HETATM    9  C   UNL     1       7.810  22.616  53.159  1.00  0.00     0.043 A 
HETATM   10  C   UNL     1       7.652  22.470  55.561  1.00  0.00     0.014 A 
HETATM   11  C   UNL     1       7.961  21.229  53.042  1.00  0.00     0.030 A 
HETATM   12  N   UNL     1       7.771  23.590  52.187  1.00  0.00    -0.364 N 
HETATM   13  C   UNL     1       7.952  20.473  54.219  1.00  0.00     0.002 A 
HETATM   14  C   UNL     1       7.798  21.082  55.461  1.00  0.00     0.001 A 
HETATM   15  H   UNL     1       7.852  23.413  51.196  1.00  0.00     0.165 HD
HETATM   16  C   UNL     1       7.596  24.821  52.757  1.00  0.00     0.102 A 
ENDBRANCH   6   7
ENDBRANCH   2   5
BRANCH   1  17
HETATM   17  C   UNL     1       5.780  29.609  57.104  1.00  0.00     0.280 C 
BRANCH  17  18
HETATM   18  O   UNL     1       6.651  29.056  58.095  1.00  0.00    -0.342 OA
BRANCH  18  19
HETATM   19  C   UNL     1       7.704  29.917  58.291  1.00  0.00     0.075 A 
HETATM   20  C   UNL     1       8.976  29.633  57.766  1.00  0.00    -0.023 A 
HETATM   21  C   UNL     1      10.041  30.504  58.082  1.00  0.00    -0.053 A 
HETATM   22  C   UNL     1       9.201  28.399  56.934  1.00  0.00     0.052 C 
HETATM   23  C   UNL     1      11.447  30.240  57.612  1.00  0.00     0.049 C 
HETATM   24  C   UNL     1       9.787  31.667  58.829  1.00  0.00     0.007 A 
HETATM   25  C   UNL     1       8.502  31.962  59.283  1.00  0.00     0.003 A 
HETATM   26  C   UNL     1       7.458  31.087  59.013  1.00  0.00     0.037 A 
ENDBRANCH  18  19
ENDBRANCH  17  18
ENDBRANCH   1  17
TORSDOF 5
ENDMDL
MODEL 8
REMARK VINA RESULT:      -8.7      5.770      9.303
REMARK  5 active torsions:
REMARK  status: ('A' for Active; 'I' for Inactive)
REMARK    1  A    between atoms: C_5  and  O_6 
REMARK    2  A    between atoms: O_6  and  C_7 
REMARK    3  A    between atoms: C_7  and  C_8 
REMARK       I    between atoms: C_8  and  N_9 
REMARK    4  A    between atoms: N_9  and  N_10 
REMARK    5  A    between atoms: C_11  and  C_12 
ROOT
HETATM    1  C   UNL     1       5.830  26.197  54.294  1.00  0.00     0.261 C 
HETATM    2  N   UNL     1       5.279  25.640  53.146  1.00  0.00    -0.246 N 
HETATM    3  O   UNL     1       5.873  27.395  54.570  1.00  0.00    -0.269 OA
HETATM    4  H   UNL     1       5.540  24.676  52.943  1.00  0.00     0.192 HD
ENDROOT
BRANCH   2   5
HETATM    5  N   UNL     1       4.798  26.336  52.060  1.00  0.00    -0.184 NA
HETATM    6  C   UNL     1       5.260  26.044  50.886  1.00  0.00     0.152 C 
BRANCH   6   7
HETATM    7  C   UNL     1       4.736  26.717  49.714  1.00  0.00     0.011 A 
HETATM    8  C   UNL     1       4.903  28.100  49.376  1.00  0.00     0.004 A 
HETATM    9  C   UNL     1       4.233  28.322  48.173  1.00  0.00     0.043 A 
HETATM   10  C   UNL     1       5.574  29.185  49.981  1.00  0.00     0.014 A 
HETATM   11  C   UNL     1       4.193  29.574  47.547  1.00  0.00     0.030 A 
HETATM   12  N   UNL     1       3.681  27.120  47.790  1.00  0.00    -0.364 N 
HETATM   13  C   UNL     1       4.865  30.632  48.169  1.00  0.00     0.002 A 
HETATM   14  C   UNL     1       5.548  30.442  49.367  1.00  0.00     0.001 A 
HETATM   15  H   UNL     1       3.139  26.982  46.948  1.00  0.00     0.165 HD
HETATM   16  C   UNL     1       3.982  26.148  48.704  1.00  0.00     0.102 A 
ENDBRANCH   6   7
ENDBRANCH   2   5
BRANCH   1  17
HETATM   17  C   UNL     1       6.354  25.153  55.277  1.00  0.00     0.280 C 
BRANCH  17  18
HETATM   18  O   UNL     1       7.747  24.887  55.087  1.00  0.00    -0.342 OA
BRANCH  18  19
HETATM   19  C   UNL     1       7.949  23.528  55.129  1.00  0.00     0.075 A 
HETATM   20  C   UNL     1       8.022  22.774  53.946  1.00  0.00    -0.023 A 
HETATM   21  C   UNL     1       8.133  21.371  54.051  1.00  0.00    -0.053 A 
HETATM   22  C   UNL     1       7.929  23.447  52.603  1.00  0.00     0.052 C 
HETATM   23  C   UNL     1       8.155  20.483  52.835  1.00  0.00     0.049 C 
HETATM   24  C   UNL     1       8.256  20.779  55.320  1.00  0.00     0.007 A 
HETATM   25  C   UNL     1       8.248  21.555  56.478  1.00  0.00     0.003 A 
HETATM   26  C   UNL     1       8.095  22.933  56.383  1.00  0.00     0.037 A 
ENDBRANCH  18  19
ENDBRANCH  17  18
ENDBRANCH   1  17
TORSDOF 5
ENDMDL
MODEL 9
REMARK VINA RESULT:      -8.6      2.041     10.035
REMARK  5 active torsions:
REMARK  status: ('A' for Active; 'I' for Inactive)
REMARK    1  A    between atoms: C_5  and  O_6 
REMARK    2  A    between atoms: O_6  and  C_7 
REMARK    3  A    between atoms: C_7  and  C_8 
REMARK       I    between atoms: C_8  and  N_9 
REMARK    4  A    between atoms: N_9  and  N_10 
REMARK    5  A    between atoms: C_11  and  C_12 
ROOT
HETATM    1  C   UNL     1       6.956  28.215  56.439  1.00  0.00     0.261 C 
HETATM    2  N   UNL     1       7.971  28.185  57.388  1.00  0.00    -0.246 N 
HETATM    3  O   UNL     1       5.943  28.912  56.481  1.00  0.00    -0.269 OA
HETATM    4  H   UNL     1       8.606  27.389  57.345  1.00  0.00     0.192 HD
ENDROOT
BRANCH   2   5
HETATM    5  N   UNL     1       7.961  28.834  58.603  1.00  0.00    -0.184 NA
HETATM    6  C   UNL     1       8.399  30.052  58.655  1.00  0.00     0.152 C 
BRANCH   6   7
HETATM    7  C   UNL     1       8.350  30.786  59.905  1.00  0.00     0.011 A 
HETATM    8  C   UNL     1       7.354  31.739  60.297  1.00  0.00     0.004 A 
HETATM    9  C   UNL     1       7.696  32.205  61.566  1.00  0.00     0.043 A 
HETATM   10  C   UNL     1       6.183  32.244  59.689  1.00  0.00     0.014 A 
HETATM   11  C   UNL     1       6.932  33.154  62.257  1.00  0.00     0.030 A 
HETATM   12  N   UNL     1       8.853  31.558  61.936  1.00  0.00    -0.364 N 
HETATM   13  C   UNL     1       5.778  33.638  61.632  1.00  0.00     0.002 A 
HETATM   14  C   UNL     1       5.406  33.190  60.367  1.00  0.00     0.001 A 
HETATM   15  H   UNL     1       9.331  31.697  62.815  1.00  0.00     0.165 HD
HETATM   16  C   UNL     1       9.251  30.698  60.949  1.00  0.00     0.102 A 
ENDBRANCH   6   7
ENDBRANCH   2   5
BRANCH   1  17
HETATM   17  C   UNL     1       7.233  27.316  55.237  1.00  0.00     0.280 C 
BRANCH  17  18
HETATM   18  O   UNL     1       7.519  25.969  55.626  1.00  0.00    -0.342 OA
BRANCH  18  19
HETATM   19  C   UNL     1       7.585  25.186  54.499  1.00  0.00     0.075 A 
HETATM   20  C   UNL     1       7.640  23.785  54.597  1.00  0.00    -0.023 A 
HETATM   21  C   UNL     1       7.806  23.037  53.412  1.00  0.00    -0.053 A 
HETATM   22  C   UNL     1       7.580  23.109  55.941  1.00  0.00     0.052 C 
HETATM   23  C   UNL     1       7.936  21.536  53.433  1.00  0.00     0.049 C 
HETATM   24  C   UNL     1       7.820  23.697  52.171  1.00  0.00     0.007 A 
HETATM   25  C   UNL     1       7.696  25.084  52.095  1.00  0.00     0.003 A 
HETATM   26  C   UNL     1       7.578  25.830  53.261  1.00  0.00     0.037 A 
ENDBRANCH  18  19
ENDBRANCH  17  18
ENDBRANCH   1  17
TORSDOF 5
ENDMDL
MODEL 10
REMARK VINA RESULT:      -8.4      6.799     10.452
REMARK  5 active torsions:
REMARK  status: ('A' for Active; 'I' for Inactive)
REMARK    1  A    between atoms: C_5  and  O_6 
REMARK    2  A    between atoms: O_6  and  C_7 
REMARK    3  A    between atoms: C_7  and  C_8 
REMARK       I    between atoms: C_8  and  N_9 
REMARK    4  A    between atoms: N_9  and  N_10 
REMARK    5  A    between atoms: C_11  and  C_12 
ROOT
HETATM    1  C   UNL     1       4.583  26.743  49.771  1.00  0.00     0.261 C 
HETATM    2  N   UNL     1       4.649  25.672  50.654  1.00  0.00    -0.246 N 
HETATM    3  O   UNL     1       5.326  27.723  49.763  1.00  0.00    -0.269 OA
HETATM    4  H   UNL     1       3.826  25.072  50.698  1.00  0.00     0.192 HD
ENDROOT
BRANCH   2   5
HETATM    5  N   UNL     1       5.475  25.579  51.753  1.00  0.00    -0.184 NA
HETATM    6  C   UNL     1       5.121  24.802  52.726  1.00  0.00     0.152 C 
BRANCH   6   7
HETATM    7  C   UNL     1       5.992  24.636  53.873  1.00  0.00     0.011 A 
HETATM    8  C   UNL     1       7.087  23.718  53.988  1.00  0.00     0.004 A 
HETATM    9  C   UNL     1       7.645  23.887  55.255  1.00  0.00     0.043 A 
HETATM   10  C   UNL     1       7.662  22.761  53.123  1.00  0.00     0.014 A 
HETATM   11  C   UNL     1       8.744  23.145  55.704  1.00  0.00     0.030 A 
HETATM   12  N   UNL     1       6.922  24.873  55.887  1.00  0.00    -0.364 N 
HETATM   13  C   UNL     1       9.293  22.203  54.828  1.00  0.00     0.002 A 
HETATM   14  C   UNL     1       8.763  22.013  53.555  1.00  0.00     0.001 A 
HETATM   15  H   UNL     1       7.107  25.209  56.822  1.00  0.00     0.165 HD
HETATM   16  C   UNL     1       5.931  25.335  55.064  1.00  0.00     0.102 A 
ENDBRANCH   6   7
ENDBRANCH   2   5
BRANCH   1  17
HETATM   17  C   UNL     1       3.500  26.578  48.707  1.00  0.00     0.280 C 
BRANCH  17  18
HETATM   18  O   UNL     1       3.761  27.373  47.546  1.00  0.00    -0.342 OA
BRANCH  18  19
HETATM   19  C   UNL     1       2.578  27.914  47.104  1.00  0.00     0.075 A 
HETATM   20  C   UNL     1       2.469  29.291  46.843  1.00  0.00    -0.023 A 
HETATM   21  C   UNL     1       1.204  29.806  46.486  1.00  0.00    -0.053 A 
HETATM   22  C   UNL     1       3.661  30.196  46.996  1.00  0.00     0.052 C 
HETATM   23  C   UNL     1       0.985  31.277  46.249  1.00  0.00     0.049 C 
HETATM   24  C   UNL     1       0.120  28.927  46.315  1.00  0.00     0.007 A 
HETATM   25  C   UNL     1       0.270  27.556  46.515  1.00  0.00     0.003 A 
HETATM   26  C   UNL     1       1.501  27.047  46.909  1.00  0.00     0.037 A 
ENDBRANCH  18  19
ENDBRANCH  17  18
ENDBRANCH   1  17
TORSDOF 5
ENDMDL
