MODEL 1
REMARK VINA RESULT:     -10.7      0.000      0.000
REMARK  7 active torsions:
REMARK  status: ('A' for Active; 'I' for Inactive)
REMARK    1  A    between atoms: C_2  and  N_3 
REMARK    2  A    between atoms: C_2  and  C_26 
REMARK       I    between atoms: N_3  and  C_4 
REMARK    3  A    between atoms: C_4  and  C_5 
REMARK    4  A    between atoms: C_8  and  C_9 
REMARK       I    between atoms: C_9  and  N_10 
REMARK    5  A    between atoms: N_10  and  C_11 
REMARK    6  A    between atoms: N_20  and  C_21 
REMARK    7  A    between atoms: C_29  and  O_30 
ROOT
HETATM    1  C   UNL     1       7.343  30.697  58.108  1.00  0.00     0.098 A 
HETATM    2  C   UNL     1       7.836  29.445  57.455  1.00  0.00     0.206 A 
HETATM    3  O   UNL     1       8.807  28.835  57.908  1.00  0.00    -0.286 OA
HETATM    4  C   UNL     1       7.139  28.964  56.223  1.00  0.00     0.098 A 
HETATM    5  C   UNL     1       6.034  29.633  55.850  1.00  0.00     0.112 A 
HETATM    6  N   UNL     1       5.520  30.710  56.542  1.00  0.00    -0.360 N 
HETATM    7  C   UNL     1       6.222  31.241  57.604  1.00  0.00     0.112 A 
ENDROOT
BRANCH   1   8
HETATM    8  C   UNL     1       8.019  31.384  59.244  1.00  0.00     0.257 C 
HETATM    9  N   UNL     1       7.786  30.840  60.479  1.00  0.00    -0.348 N 
HETATM   10  H   UNL     1       7.195  30.014  60.541  1.00  0.00     0.163 HD
HETATM   11  O   UNL     1       8.746  32.358  59.066  1.00  0.00    -0.267 OA
BRANCH   9  12
HETATM   12  C   UNL     1       8.476  31.283  61.678  1.00  0.00     0.114 C 
HETATM   13  C   UNL     1       9.254  30.132  62.318  1.00  0.00     0.037 C 
BRANCH  12  14
HETATM   14  C   UNL     1       7.497  31.895  62.664  1.00  0.00    -0.036 A 
HETATM   15  C   UNL     1       6.123  31.660  62.521  1.00  0.00     0.012 A 
HETATM   16  C   UNL     1       5.208  32.221  63.416  1.00  0.00     0.037 A 
HETATM   17  C   UNL     1       5.643  33.021  64.474  1.00  0.00     0.068 A 
HETATM   18  C   UNL     1       7.007  33.267  64.622  1.00  0.00     0.037 A 
HETATM   19  C   UNL     1       7.925  32.713  63.723  1.00  0.00     0.012 A 
BRANCH  17  20
HETATM   20  O   UNL     1       4.645  33.500  65.278  1.00  0.00    -0.356 OA
HETATM   21  C   UNL     1       5.040  34.078  66.515  1.00  0.00     0.210 C 
ENDBRANCH  17  20
ENDBRANCH  12  14
ENDBRANCH   9  12
ENDBRANCH   1   8
BRANCH   4  22
HETATM   22  C   UNL     1       7.594  27.820  55.385  1.00  0.00     0.257 C 
HETATM   23  N   UNL     1       7.399  26.579  55.941  1.00  0.00    -0.352 N 
HETATM   24  H   UNL     1       7.062  26.548  56.903  1.00  0.00     0.163 HD
HETATM   25  O   UNL     1       8.107  28.003  54.285  1.00  0.00    -0.267 OA
BRANCH  23  26
HETATM   26  C   UNL     1       7.878  25.318  55.376  1.00  0.00     0.084 C 
HETATM   27  C   UNL     1       8.124  24.258  56.456  1.00  0.00     0.025 C 
HETATM   28  C   UNL     1       8.712  22.942  55.946  1.00  0.00     0.002 C 
HETATM   29  C   UNL     1       7.703  22.108  55.164  1.00  0.00     0.000 C 
HETATM   30  C   UNL     1       7.614  22.426  53.675  1.00  0.00     0.000 C 
HETATM   31  C   UNL     1       7.678  23.895  53.270  1.00  0.00     0.002 C 
HETATM   32  C   UNL     1       6.976  24.867  54.216  1.00  0.00     0.025 C 
ENDBRANCH  23  26
ENDBRANCH   4  22
BRANCH   6  33
HETATM   33  C   UNL     1       4.358  31.430  56.005  1.00  0.00     0.089 A 
HETATM   34  C   UNL     1       2.950  30.983  56.304  1.00  0.00     0.028 A 
HETATM   35  C   UNL     1       3.464  32.264  56.885  1.00  0.00     0.028 A 
ENDBRANCH   6  33
TORSDOF 7
ENDMDL
MODEL 2
REMARK VINA RESULT:      -9.5      2.216      9.810
REMARK  7 active torsions:
REMARK  status: ('A' for Active; 'I' for Inactive)
REMARK    1  A    between atoms: C_2  and  N_3 
REMARK    2  A    between atoms: C_2  and  C_26 
REMARK       I    between atoms: N_3  and  C_4 
REMARK    3  A    between atoms: C_4  and  C_5 
REMARK    4  A    between atoms: C_8  and  C_9 
REMARK       I    between atoms: C_9  and  N_10 
REMARK    5  A    between atoms: N_10  and  C_11 
REMARK    6  A    between atoms: N_20  and  C_21 
REMARK    7  A    between atoms: C_29  and  O_30 
ROOT
HETATM    1  C   UNL     1       5.737  27.846  56.521  1.00  0.00     0.098 A 
HETATM    2  C   UNL     1       6.323  28.891  57.416  1.00  0.00     0.206 A 
HETATM    3  O   UNL     1       7.151  28.593  58.279  1.00  0.00    -0.286 OA
HETATM    4  C   UNL     1       5.862  30.304  57.255  1.00  0.00     0.098 A 
HETATM    5  C   UNL     1       5.029  30.559  56.230  1.00  0.00     0.112 A 
HETATM    6  N   UNL     1       4.600  29.600  55.335  1.00  0.00    -0.360 N 
HETATM    7  C   UNL     1       4.916  28.274  55.546  1.00  0.00     0.112 A 
ENDROOT
BRANCH   1   8
HETATM    8  C   UNL     1       5.976  26.382  56.656  1.00  0.00     0.257 C 
HETATM    9  N   UNL     1       7.287  26.016  56.818  1.00  0.00    -0.348 N 
HETATM   10  H   UNL     1       7.993  26.748  56.851  1.00  0.00     0.163 HD
HETATM   11  O   UNL     1       5.052  25.574  56.640  1.00  0.00    -0.267 OA
BRANCH   9  12
HETATM   12  C   UNL     1       7.693  24.654  57.114  1.00  0.00     0.114 C 
HETATM   13  C   UNL     1       9.033  24.631  57.854  1.00  0.00     0.037 C 
BRANCH  12  14
HETATM   14  C   UNL     1       7.758  23.827  55.842  1.00  0.00    -0.036 A 
HETATM   15  C   UNL     1       7.760  22.428  55.918  1.00  0.00     0.012 A 
HETATM   16  C   UNL     1       7.826  21.652  54.758  1.00  0.00     0.037 A 
HETATM   17  C   UNL     1       7.883  22.253  53.500  1.00  0.00     0.068 A 
HETATM   18  C   UNL     1       7.888  23.644  53.412  1.00  0.00     0.037 A 
HETATM   19  C   UNL     1       7.830  24.424  54.573  1.00  0.00     0.012 A 
BRANCH  17  20
HETATM   20  O   UNL     1       7.938  21.379  52.449  1.00  0.00    -0.356 OA
HETATM   21  C   UNL     1       8.586  20.135  52.681  1.00  0.00     0.210 C 
ENDBRANCH  17  20
ENDBRANCH  12  14
ENDBRANCH   9  12
ENDBRANCH   1   8
BRANCH   4  22
HETATM   22  C   UNL     1       6.245  31.428  58.155  1.00  0.00     0.257 C 
HETATM   23  N   UNL     1       6.750  31.048  59.374  1.00  0.00    -0.352 N 
HETATM   24  H   UNL     1       6.725  30.054  59.599  1.00  0.00     0.163 HD
HETATM   25  O   UNL     1       6.104  32.596  57.807  1.00  0.00    -0.267 OA
BRANCH  23  26
HETATM   26  C   UNL     1       7.072  31.959  60.472  1.00  0.00     0.084 C 
HETATM   27  C   UNL     1       5.824  32.657  61.027  1.00  0.00     0.025 C 
HETATM   28  C   UNL     1       6.097  33.692  62.119  1.00  0.00     0.002 C 
HETATM   29  C   UNL     1       6.499  33.059  63.447  1.00  0.00     0.000 C 
HETATM   30  C   UNL     1       7.990  32.778  63.605  1.00  0.00     0.000 C 
HETATM   31  C   UNL     1       8.731  32.235  62.387  1.00  0.00     0.002 C 
HETATM   32  C   UNL     1       7.942  31.253  61.524  1.00  0.00     0.025 C 
ENDBRANCH  23  26
ENDBRANCH   4  22
BRANCH   6  33
HETATM   33  C   UNL     1       3.620  29.960  54.302  1.00  0.00     0.089 A 
HETATM   34  C   UNL     1       4.053  30.457  52.947  1.00  0.00     0.028 A 
HETATM   35  C   UNL     1       3.411  29.110  53.076  1.00  0.00     0.028 A 
ENDBRANCH   6  33
TORSDOF 7
ENDMDL
MODEL 3
REMARK VINA RESULT:      -9.5      2.324      3.793
REMARK  7 active torsions:
REMARK  status: ('A' for Active; 'I' for Inactive)
REMARK    1  A    between atoms: C_2  and  N_3 
REMARK    2  A    between atoms: C_2  and  C_26 
REMARK       I    between atoms: N_3  and  C_4 
REMARK    3  A    between atoms: C_4  and  C_5 
REMARK    4  A    between atoms: C_8  and  C_9 
REMARK       I    between atoms: C_9  and  N_10 
REMARK    5  A    between atoms: N_10  and  C_11 
REMARK    6  A    between atoms: N_20  and  C_21 
REMARK    7  A    between atoms: C_29  and  O_30 
ROOT
HETATM    1  C   UNL     1       6.058  29.301  57.244  1.00  0.00     0.098 A 
HETATM    2  C   UNL     1       5.722  27.902  56.835  1.00  0.00     0.206 A 
HETATM    3  O   UNL     1       4.556  27.572  56.608  1.00  0.00    -0.286 OA
HETATM    4  C   UNL     1       6.832  26.906  56.732  1.00  0.00     0.098 A 
HETATM    5  C   UNL     1       8.083  27.369  56.904  1.00  0.00     0.112 A 
HETATM    6  N   UNL     1       8.381  28.693  57.154  1.00  0.00    -0.360 N 
HETATM    7  C   UNL     1       7.363  29.596  57.377  1.00  0.00     0.112 A 
ENDROOT
BRANCH   1   8
HETATM    8  C   UNL     1       5.056  30.363  57.537  1.00  0.00     0.257 C 
HETATM    9  N   UNL     1       5.294  31.095  58.670  1.00  0.00    -0.348 N 
HETATM   10  H   UNL     1       6.127  30.885  59.216  1.00  0.00     0.163 HD
HETATM   11  O   UNL     1       4.097  30.567  56.797  1.00  0.00    -0.267 OA
BRANCH   9  12
HETATM   12  C   UNL     1       4.510  32.263  59.033  1.00  0.00     0.114 C 
HETATM   13  C   UNL     1       4.956  33.490  58.235  1.00  0.00     0.037 C 
BRANCH  12  14
HETATM   14  C   UNL     1       4.595  32.522  60.526  1.00  0.00    -0.036 A 
HETATM   15  C   UNL     1       3.454  32.923  61.232  1.00  0.00     0.012 A 
HETATM   16  C   UNL     1       3.516  33.172  62.606  1.00  0.00     0.037 A 
HETATM   17  C   UNL     1       4.715  33.019  63.304  1.00  0.00     0.068 A 
HETATM   18  C   UNL     1       5.859  32.626  62.612  1.00  0.00     0.037 A 
HETATM   19  C   UNL     1       5.801  32.384  61.235  1.00  0.00     0.012 A 
BRANCH  17  20
HETATM   20  O   UNL     1       4.635  33.288  64.644  1.00  0.00    -0.356 OA
HETATM   21  C   UNL     1       5.250  34.488  65.094  1.00  0.00     0.210 C 
ENDBRANCH  17  20
ENDBRANCH  12  14
ENDBRANCH   9  12
ENDBRANCH   1   8
BRANCH   4  22
HETATM   22  C   UNL     1       6.643  25.451  56.474  1.00  0.00     0.257 C 
HETATM   23  N   UNL     1       7.533  24.899  55.585  1.00  0.00    -0.352 N 
HETATM   24  H   UNL     1       8.170  25.536  55.108  1.00  0.00     0.163 HD
HETATM   25  O   UNL     1       5.746  24.820  57.024  1.00  0.00    -0.267 OA
BRANCH  23  26
HETATM   26  C   UNL     1       7.471  23.531  55.072  1.00  0.00     0.084 C 
HETATM   27  C   UNL     1       7.892  23.448  53.600  1.00  0.00     0.025 C 
HETATM   28  C   UNL     1       7.765  22.060  52.971  1.00  0.00     0.002 C 
HETATM   29  C   UNL     1       8.826  21.085  53.470  1.00  0.00     0.000 C 
HETATM   30  C   UNL     1       8.464  20.332  54.747  1.00  0.00     0.000 C 
HETATM   31  C   UNL     1       7.751  21.118  55.842  1.00  0.00     0.002 C 
HETATM   32  C   UNL     1       8.207  22.564  56.013  1.00  0.00     0.025 C 
ENDBRANCH  23  26
ENDBRANCH   4  22
BRANCH   6  33
HETATM   33  C   UNL     1       9.772  29.085  57.416  1.00  0.00     0.089 A 
HETATM   34  C   UNL     1      10.612  29.757  56.360  1.00  0.00     0.028 A 
HETATM   35  C   UNL     1      10.175  30.529  57.567  1.00  0.00     0.028 A 
ENDBRANCH   6  33
TORSDOF 7
ENDMDL
MODEL 4
REMARK VINA RESULT:      -9.4      3.014      5.685
REMARK  7 active torsions:
REMARK  status: ('A' for Active; 'I' for Inactive)
REMARK    1  A    between atoms: C_2  and  N_3 
REMARK    2  A    between atoms: C_2  and  C_26 
REMARK       I    between atoms: N_3  and  C_4 
REMARK    3  A    between atoms: C_4  and  C_5 
REMARK    4  A    between atoms: C_8  and  C_9 
REMARK       I    between atoms: C_9  and  N_10 
REMARK    5  A    between atoms: N_10  and  C_11 
REMARK    6  A    between atoms: N_20  and  C_21 
REMARK    7  A    between atoms: C_29  and  O_30 
ROOT
HETATM    1  C   UNL     1       4.766  28.269  53.369  1.00  0.00     0.098 A 
HETATM    2  C   UNL     1       5.668  27.124  53.707  1.00  0.00     0.206 A 
HETATM    3  O   UNL     1       6.034  26.929  54.867  1.00  0.00    -0.286 OA
HETATM    4  C   UNL     1       6.134  26.236  52.598  1.00  0.00     0.098 A 
HETATM    5  C   UNL     1       5.613  26.461  51.379  1.00  0.00     0.112 A 
HETATM    6  N   UNL     1       4.682  27.444  51.113  1.00  0.00    -0.360 N 
HETATM    7  C   UNL     1       4.339  28.349  52.097  1.00  0.00     0.112 A 
ENDROOT
BRANCH   1   8
HETATM    8  C   UNL     1       4.342  29.326  54.329  1.00  0.00     0.257 C 
HETATM    9  N   UNL     1       5.213  29.564  55.359  1.00  0.00    -0.348 N 
HETATM   10  H   UNL     1       6.078  29.031  55.394  1.00  0.00     0.163 HD
HETATM   11  O   UNL     1       3.290  29.944  54.183  1.00  0.00    -0.267 OA
BRANCH   9  12
HETATM   12  C   UNL     1       5.038  30.656  56.302  1.00  0.00     0.114 C 
HETATM   13  C   UNL     1       5.065  32.007  55.585  1.00  0.00     0.037 C 
BRANCH  12  14
HETATM   14  C   UNL     1       6.092  30.595  57.392  1.00  0.00    -0.036 A 
HETATM   15  C   UNL     1       6.179  31.624  58.338  1.00  0.00     0.012 A 
HETATM   16  C   UNL     1       7.148  31.587  59.345  1.00  0.00     0.037 A 
HETATM   17  C   UNL     1       8.045  30.521  59.433  1.00  0.00     0.068 A 
HETATM   18  C   UNL     1       7.972  29.494  58.493  1.00  0.00     0.037 A 
HETATM   19  C   UNL     1       7.008  29.532  57.480  1.00  0.00     0.012 A 
BRANCH  17  20
HETATM   20  O   UNL     1       8.936  30.606  60.467  1.00  0.00    -0.356 OA
HETATM   21  C   UNL     1       8.525  31.344  61.610  1.00  0.00     0.210 C 
ENDBRANCH  17  20
ENDBRANCH  12  14
ENDBRANCH   9  12
ENDBRANCH   1   8
BRANCH   4  22
HETATM   22  C   UNL     1       7.137  25.146  52.752  1.00  0.00     0.257 C 
HETATM   23  N   UNL     1       6.839  24.215  53.716  1.00  0.00    -0.352 N 
HETATM   24  H   UNL     1       6.028  24.398  54.306  1.00  0.00     0.163 HD
HETATM   25  O   UNL     1       8.149  25.112  52.058  1.00  0.00    -0.267 OA
BRANCH  23  26
HETATM   26  C   UNL     1       7.725  23.132  54.143  1.00  0.00     0.084 C 
HETATM   27  C   UNL     1       7.592  22.836  55.642  1.00  0.00     0.025 C 
HETATM   28  C   UNL     1       8.555  21.774  56.177  1.00  0.00     0.002 C 
HETATM   29  C   UNL     1       8.190  20.364  55.726  1.00  0.00     0.000 C 
HETATM   30  C   UNL     1       8.772  19.943  54.381  1.00  0.00     0.000 C 
HETATM   31  C   UNL     1       8.784  20.986  53.268  1.00  0.00     0.002 C 
HETATM   32  C   UNL     1       7.571  21.911  53.223  1.00  0.00     0.025 C 
ENDBRANCH  23  26
ENDBRANCH   4  22
BRANCH   6  33
HETATM   33  C   UNL     1       4.240  27.669  49.731  1.00  0.00     0.089 A 
HETATM   34  C   UNL     1       5.187  28.179  48.676  1.00  0.00     0.028 A 
HETATM   35  C   UNL     1       4.677  26.773  48.602  1.00  0.00     0.028 A 
ENDBRANCH   6  33
TORSDOF 7
ENDMDL
MODEL 5
REMARK VINA RESULT:      -9.3      1.838      9.619
REMARK  7 active torsions:
REMARK  status: ('A' for Active; 'I' for Inactive)
REMARK    1  A    between atoms: C_2  and  N_3 
REMARK    2  A    between atoms: C_2  and  C_26 
REMARK       I    between atoms: N_3  and  C_4 
REMARK    3  A    between atoms: C_4  and  C_5 
REMARK    4  A    between atoms: C_8  and  C_9 
REMARK       I    between atoms: C_9  and  N_10 
REMARK    5  A    between atoms: N_10  and  C_11 
REMARK    6  A    between atoms: N_20  and  C_21 
REMARK    7  A    between atoms: C_29  and  O_30 
ROOT
HETATM    1  C   UNL     1       6.428  29.039  55.494  1.00  0.00     0.098 A 
HETATM    2  C   UNL     1       7.280  29.694  56.535  1.00  0.00     0.206 A 
HETATM    3  O   UNL     1       8.468  29.391  56.663  1.00  0.00    -0.286 OA
HETATM    4  C   UNL     1       6.649  30.709  57.434  1.00  0.00     0.098 A 
HETATM    5  C   UNL     1       5.376  31.050  57.166  1.00  0.00     0.112 A 
HETATM    6  N   UNL     1       4.647  30.527  56.118  1.00  0.00    -0.360 N 
HETATM    7  C   UNL     1       5.172  29.500  55.361  1.00  0.00     0.112 A 
ENDROOT
BRANCH   1   8
HETATM    8  C   UNL     1       6.866  27.908  54.630  1.00  0.00     0.257 C 
HETATM    9  N   UNL     1       6.042  26.813  54.639  1.00  0.00    -0.348 N 
HETATM   10  H   UNL     1       5.198  26.847  55.206  1.00  0.00     0.163 HD
HETATM   11  O   UNL     1       7.886  27.974  53.949  1.00  0.00    -0.267 OA
BRANCH   9  12
HETATM   12  C   UNL     1       6.228  25.680  53.748  1.00  0.00     0.114 C 
HETATM   13  C   UNL     1       4.904  25.273  53.098  1.00  0.00     0.037 C 
BRANCH  12  14
HETATM   14  C   UNL     1       6.853  24.514  54.491  1.00  0.00    -0.036 A 
HETATM   15  C   UNL     1       7.129  24.624  55.860  1.00  0.00     0.012 A 
HETATM   16  C   UNL     1       7.711  23.561  56.557  1.00  0.00     0.037 A 
HETATM   17  C   UNL     1       8.022  22.366  55.907  1.00  0.00     0.068 A 
HETATM   18  C   UNL     1       7.758  22.247  54.543  1.00  0.00     0.037 A 
HETATM   19  C   UNL     1       7.182  23.312  53.841  1.00  0.00     0.012 A 
BRANCH  17  20
HETATM   20  O   UNL     1       8.581  21.407  56.706  1.00  0.00    -0.356 OA
HETATM   21  C   UNL     1       9.283  20.357  56.055  1.00  0.00     0.210 C 
ENDBRANCH  17  20
ENDBRANCH  12  14
ENDBRANCH   9  12
ENDBRANCH   1   8
BRANCH   4  22
HETATM   22  C   UNL     1       7.324  31.343  58.600  1.00  0.00     0.257 C 
HETATM   23  N   UNL     1       6.495  31.662  59.648  1.00  0.00    -0.352 N 
HETATM   24  H   UNL     1       5.494  31.537  59.504  1.00  0.00     0.163 HD
HETATM   25  O   UNL     1       8.532  31.558  58.595  1.00  0.00    -0.267 OA
BRANCH  23  26
HETATM   26  C   UNL     1       6.895  32.407  60.841  1.00  0.00     0.084 C 
HETATM   27  C   UNL     1       5.787  33.345  61.334  1.00  0.00     0.025 C 
HETATM   28  C   UNL     1       6.169  34.222  62.527  1.00  0.00     0.002 C 
HETATM   29  C   UNL     1       6.271  33.437  63.830  1.00  0.00     0.000 C 
HETATM   30  C   UNL     1       7.633  32.804  64.101  1.00  0.00     0.000 C 
HETATM   31  C   UNL     1       8.357  32.174  62.916  1.00  0.00     0.002 C 
HETATM   32  C   UNL     1       7.464  31.457  61.907  1.00  0.00     0.025 C 
ENDBRANCH  23  26
ENDBRANCH   4  22
BRANCH   6  33
HETATM   33  C   UNL     1       3.235  30.897  55.962  1.00  0.00     0.089 A 
HETATM   34  C   UNL     1       2.806  32.338  55.853  1.00  0.00     0.028 A 
HETATM   35  C   UNL     1       2.694  31.436  54.663  1.00  0.00     0.028 A 
ENDBRANCH   6  33
TORSDOF 7
ENDMDL
MODEL 6
REMARK VINA RESULT:      -9.2      4.251     10.101
REMARK  7 active torsions:
REMARK  status: ('A' for Active; 'I' for Inactive)
REMARK    1  A    between atoms: C_2  and  N_3 
REMARK    2  A    between atoms: C_2  and  C_26 
REMARK       I    between atoms: N_3  and  C_4 
REMARK    3  A    between atoms: C_4  and  C_5 
REMARK    4  A    between atoms: C_8  and  C_9 
REMARK       I    between atoms: C_9  and  N_10 
REMARK    5  A    between atoms: N_10  and  C_11 
REMARK    6  A    between atoms: N_20  and  C_21 
REMARK    7  A    between atoms: C_29  and  O_30 
ROOT
HETATM    1  C   UNL     1       6.159  25.106  53.590  1.00  0.00     0.098 A 
HETATM    2  C   UNL     1       6.463  25.968  54.774  1.00  0.00     0.206 A 
HETATM    3  O   UNL     1       5.861  27.029  54.954  1.00  0.00    -0.286 OA
HETATM    4  C   UNL     1       7.531  25.524  55.721  1.00  0.00     0.098 A 
HETATM    5  C   UNL     1       8.071  24.313  55.503  1.00  0.00     0.112 A 
HETATM    6  N   UNL     1       7.685  23.475  54.477  1.00  0.00    -0.360 N 
HETATM    7  C   UNL     1       6.793  23.922  53.524  1.00  0.00     0.112 A 
ENDROOT
BRANCH   1   8
HETATM    8  C   UNL     1       5.237  25.481  52.482  1.00  0.00     0.257 C 
HETATM    9  N   UNL     1       5.315  26.786  52.073  1.00  0.00    -0.348 N 
HETATM   10  H   UNL     1       5.989  27.397  52.528  1.00  0.00     0.163 HD
HETATM   11  O   UNL     1       4.480  24.661  51.968  1.00  0.00    -0.267 OA
BRANCH   9  12
HETATM   12  C   UNL     1       4.603  27.291  50.912  1.00  0.00     0.114 C 
HETATM   13  C   UNL     1       5.001  26.524  49.649  1.00  0.00     0.037 C 
BRANCH  12  14
HETATM   14  C   UNL     1       4.843  28.781  50.744  1.00  0.00    -0.036 A 
HETATM   15  C   UNL     1       4.291  29.685  51.660  1.00  0.00     0.012 A 
HETATM   16  C   UNL     1       4.497  31.060  51.517  1.00  0.00     0.037 A 
HETATM   17  C   UNL     1       5.262  31.560  50.462  1.00  0.00     0.068 A 
HETATM   18  C   UNL     1       5.811  30.671  49.540  1.00  0.00     0.037 A 
HETATM   19  C   UNL     1       5.600  29.294  49.678  1.00  0.00     0.012 A 
BRANCH  17  20
HETATM   20  O   UNL     1       5.390  32.922  50.442  1.00  0.00    -0.356 OA
HETATM   21  C   UNL     1       6.067  33.487  49.327  1.00  0.00     0.210 C 
ENDBRANCH  17  20
ENDBRANCH  12  14
ENDBRANCH   9  12
ENDBRANCH   1   8
BRANCH   4  22
HETATM   22  C   UNL     1       8.041  26.335  56.862  1.00  0.00     0.257 C 
HETATM   23  N   UNL     1       8.333  27.643  56.560  1.00  0.00    -0.352 N 
HETATM   24  H   UNL     1       8.276  27.918  55.580  1.00  0.00     0.163 HD
HETATM   25  O   UNL     1       8.186  25.842  57.976  1.00  0.00    -0.267 OA
BRANCH  23  26
HETATM   26  C   UNL     1       8.966  28.596  57.470  1.00  0.00     0.084 C 
HETATM   27  C   UNL     1      10.164  29.302  56.824  1.00  0.00     0.025 C 
HETATM   28  C   UNL     1      10.931  30.248  57.749  1.00  0.00     0.002 C 
HETATM   29  C   UNL     1      10.164  31.531  58.051  1.00  0.00     0.000 C 
HETATM   30  C   UNL     1       9.208  31.450  59.237  1.00  0.00     0.000 C 
HETATM   31  C   UNL     1       8.396  30.168  59.394  1.00  0.00     0.002 C 
HETATM   32  C   UNL     1       7.918  29.532  58.091  1.00  0.00     0.025 C 
ENDBRANCH  23  26
ENDBRANCH   4  22
BRANCH   6  33
HETATM   33  C   UNL     1       8.397  22.208  54.269  1.00  0.00     0.089 A 
HETATM   34  C   UNL     1       7.846  20.902  54.783  1.00  0.00     0.028 A 
HETATM   35  C   UNL     1       7.893  21.161  53.309  1.00  0.00     0.028 A 
ENDBRANCH   6  33
TORSDOF 7
ENDMDL
MODEL 7
REMARK VINA RESULT:      -9.0      4.882      9.181
REMARK  7 active torsions:
REMARK  status: ('A' for Active; 'I' for Inactive)
REMARK    1  A    between atoms: C_2  and  N_3 
REMARK    2  A    between atoms: C_2  and  C_26 
REMARK       I    between atoms: N_3  and  C_4 
REMARK    3  A    between atoms: C_4  and  C_5 
REMARK    4  A    between atoms: C_8  and  C_9 
REMARK       I    between atoms: C_9  and  N_10 
REMARK    5  A    between atoms: N_10  and  C_11 
REMARK    6  A    between atoms: N_20  and  C_21 
REMARK    7  A    between atoms: C_29  and  O_30 
ROOT
HETATM    1  C   UNL     1       4.847  28.259  55.101  1.00  0.00     0.098 A 
HETATM    2  C   UNL     1       4.506  28.095  53.654  1.00  0.00     0.206 A 
HETATM    3  O   UNL     1       4.488  26.979  53.131  1.00  0.00    -0.286 OA
HETATM    4  C   UNL     1       4.209  29.320  52.850  1.00  0.00     0.098 A 
HETATM    5  C   UNL     1       4.157  30.486  53.517  1.00  0.00     0.112 A 
HETATM    6  N   UNL     1       4.349  30.600  54.879  1.00  0.00    -0.360 N 
HETATM    7  C   UNL     1       4.747  29.500  55.610  1.00  0.00     0.112 A 
ENDROOT
BRANCH   1   8
HETATM    8  C   UNL     1       5.313  27.161  55.992  1.00  0.00     0.257 C 
HETATM    9  N   UNL     1       6.517  26.603  55.654  1.00  0.00    -0.348 N 
HETATM   10  H   UNL     1       7.013  26.975  54.847  1.00  0.00     0.163 HD
HETATM   11  O   UNL     1       4.659  26.803  56.969  1.00  0.00    -0.267 OA
BRANCH   9  12
HETATM   12  C   UNL     1       7.196  25.628  56.488  1.00  0.00     0.114 C 
HETATM   13  C   UNL     1       8.313  26.286  57.302  1.00  0.00     0.037 C 
BRANCH  12  14
HETATM   14  C   UNL     1       7.735  24.486  55.646  1.00  0.00    -0.036 A 
HETATM   15  C   UNL     1       7.396  24.397  54.290  1.00  0.00     0.012 A 
HETATM   16  C   UNL     1       7.878  23.349  53.501  1.00  0.00     0.037 A 
HETATM   17  C   UNL     1       8.714  22.373  54.046  1.00  0.00     0.068 A 
HETATM   18  C   UNL     1       9.053  22.446  55.396  1.00  0.00     0.037 A 
HETATM   19  C   UNL     1       8.565  23.491  56.190  1.00  0.00     0.012 A 
BRANCH  17  20
HETATM   20  O   UNL     1       9.119  21.408  53.165  1.00  0.00    -0.356 OA
HETATM   21  C   UNL     1       8.189  20.372  52.875  1.00  0.00     0.210 C 
ENDBRANCH  17  20
ENDBRANCH  12  14
ENDBRANCH   9  12
ENDBRANCH   1   8
BRANCH   4  22
HETATM   22  C   UNL     1       3.989  29.334  51.377  1.00  0.00     0.257 C 
HETATM   23  N   UNL     1       3.433  28.188  50.863  1.00  0.00    -0.352 N 
HETATM   24  H   UNL     1       3.315  27.401  51.500  1.00  0.00     0.163 HD
HETATM   25  O   UNL     1       4.298  30.308  50.698  1.00  0.00    -0.267 OA
BRANCH  23  26
HETATM   26  C   UNL     1       3.244  27.909  49.440  1.00  0.00     0.084 C 
HETATM   27  C   UNL     1       3.955  26.623  49.004  1.00  0.00     0.025 C 
HETATM   28  C   UNL     1       3.875  26.317  47.508  1.00  0.00     0.002 C 
HETATM   29  C   UNL     1       2.487  25.859  47.071  1.00  0.00     0.000 C 
HETATM   30  C   UNL     1       1.522  26.981  46.701  1.00  0.00     0.000 C 
HETATM   31  C   UNL     1       1.537  28.231  47.574  1.00  0.00     0.002 C 
HETATM   32  C   UNL     1       1.755  27.987  49.065  1.00  0.00     0.025 C 
ENDBRANCH  23  26
ENDBRANCH   4  22
BRANCH   6  33
HETATM   33  C   UNL     1       4.360  31.930  55.501  1.00  0.00     0.089 A 
HETATM   34  C   UNL     1       3.240  32.386  56.401  1.00  0.00     0.028 A 
HETATM   35  C   UNL     1       4.595  32.113  56.978  1.00  0.00     0.028 A 
ENDBRANCH   6  33
TORSDOF 7
ENDMDL
MODEL 8
REMARK VINA RESULT:      -8.9      2.666      9.493
REMARK  7 active torsions:
REMARK  status: ('A' for Active; 'I' for Inactive)
REMARK    1  A    between atoms: C_2  and  N_3 
REMARK    2  A    between atoms: C_2  and  C_26 
REMARK       I    between atoms: N_3  and  C_4 
REMARK    3  A    between atoms: C_4  and  C_5 
REMARK    4  A    between atoms: C_8  and  C_9 
REMARK       I    between atoms: C_9  and  N_10 
REMARK    5  A    between atoms: N_10  and  C_11 
REMARK    6  A    between atoms: N_20  and  C_21 
REMARK    7  A    between atoms: C_29  and  O_30 
ROOT
HETATM    1  C   UNL     1       5.239  28.920  53.619  1.00  0.00     0.098 A 
HETATM    2  C   UNL     1       5.685  29.092  55.036  1.00  0.00     0.206 A 
HETATM    3  O   UNL     1       6.516  28.330  55.535  1.00  0.00    -0.286 OA
HETATM    4  C   UNL     1       5.082  30.197  55.841  1.00  0.00     0.098 A 
HETATM    5  C   UNL     1       4.256  31.039  55.196  1.00  0.00     0.112 A 
HETATM    6  N   UNL     1       3.957  30.939  53.852  1.00  0.00    -0.360 N 
HETATM    7  C   UNL     1       4.405  29.853  53.128  1.00  0.00     0.112 A 
ENDROOT
BRANCH   1   8
HETATM    8  C   UNL     1       5.629  27.783  52.739  1.00  0.00     0.257 C 
HETATM    9  N   UNL     1       5.780  26.578  53.373  1.00  0.00    -0.348 N 
HETATM   10  H   UNL     1       5.606  26.533  54.375  1.00  0.00     0.163 HD
HETATM   11  O   UNL     1       5.783  27.927  51.529  1.00  0.00    -0.267 OA
BRANCH   9  12
HETATM   12  C   UNL     1       6.010  25.335  52.658  1.00  0.00     0.114 C 
HETATM   13  C   UNL     1       4.686  24.687  52.248  1.00  0.00     0.037 C 
BRANCH  12  14
HETATM   14  C   UNL     1       6.847  24.383  53.494  1.00  0.00    -0.036 A 
HETATM   15  C   UNL     1       7.672  23.442  52.866  1.00  0.00     0.012 A 
HETATM   16  C   UNL     1       8.444  22.554  53.620  1.00  0.00     0.037 A 
HETATM   17  C   UNL     1       8.415  22.592  55.015  1.00  0.00     0.068 A 
HETATM   18  C   UNL     1       7.593  23.520  55.652  1.00  0.00     0.037 A 
HETATM   19  C   UNL     1       6.814  24.405  54.899  1.00  0.00     0.012 A 
BRANCH  17  20
HETATM   20  O   UNL     1       9.222  21.674  55.630  1.00  0.00    -0.356 OA
HETATM   21  C   UNL     1       8.605  20.806  56.572  1.00  0.00     0.210 C 
ENDBRANCH  17  20
ENDBRANCH  12  14
ENDBRANCH   9  12
ENDBRANCH   1   8
BRANCH   4  22
HETATM   22  C   UNL     1       5.318  30.411  57.297  1.00  0.00     0.257 C 
HETATM   23  N   UNL     1       6.609  30.737  57.633  1.00  0.00    -0.352 N 
HETATM   24  H   UNL     1       7.306  30.705  56.890  1.00  0.00     0.163 HD
HETATM   25  O   UNL     1       4.409  30.292  58.112  1.00  0.00    -0.267 OA
BRANCH  23  26
HETATM   26  C   UNL     1       7.116  30.865  58.999  1.00  0.00     0.084 C 
HETATM   27  C   UNL     1       8.606  30.514  59.096  1.00  0.00     0.025 C 
HETATM   28  C   UNL     1       9.183  30.539  60.512  1.00  0.00     0.002 C 
HETATM   29  C   UNL     1       9.341  31.953  61.061  1.00  0.00     0.000 C 
HETATM   30  C   UNL     1       8.107  32.519  61.757  1.00  0.00     0.000 C 
HETATM   31  C   UNL     1       6.752  32.228  61.121  1.00  0.00     0.002 C 
HETATM   32  C   UNL     1       6.730  32.228  59.595  1.00  0.00     0.025 C 
ENDBRANCH  23  26
ENDBRANCH   4  22
BRANCH   6  33
HETATM   33  C   UNL     1       2.974  31.853  53.258  1.00  0.00     0.089 A 
HETATM   34  C   UNL     1       3.333  33.275  52.909  1.00  0.00     0.028 A 
HETATM   35  C   UNL     1       3.061  32.286  51.818  1.00  0.00     0.028 A 
ENDBRANCH   6  33
TORSDOF 7
ENDMDL
MODEL 9
REMARK VINA RESULT:      -8.9      7.189     11.347
REMARK  7 active torsions:
REMARK  status: ('A' for Active; 'I' for Inactive)
REMARK    1  A    between atoms: C_2  and  N_3 
REMARK    2  A    between atoms: C_2  and  C_26 
REMARK       I    between atoms: N_3  and  C_4 
REMARK    3  A    between atoms: C_4  and  C_5 
REMARK    4  A    between atoms: C_8  and  C_9 
REMARK       I    between atoms: C_9  and  N_10 
REMARK    5  A    between atoms: N_10  and  C_11 
REMARK    6  A    between atoms: N_20  and  C_21 
REMARK    7  A    between atoms: C_29  and  O_30 
ROOT
HETATM    1  C   UNL     1       5.008  27.682  50.897  1.00  0.00     0.098 A 
HETATM    2  C   UNL     1       5.257  29.094  50.472  1.00  0.00     0.206 A 
HETATM    3  O   UNL     1       5.650  29.938  51.281  1.00  0.00    -0.286 OA
HETATM    4  C   UNL     1       4.993  29.465  49.048  1.00  0.00     0.098 A 
HETATM    5  C   UNL     1       4.657  28.467  48.212  1.00  0.00     0.112 A 
HETATM    6  N   UNL     1       4.558  27.146  48.598  1.00  0.00    -0.360 N 
HETATM    7  C   UNL     1       4.674  26.809  49.930  1.00  0.00     0.112 A 
ENDROOT
BRANCH   1   8
HETATM    8  C   UNL     1       5.076  27.194  52.302  1.00  0.00     0.257 C 
HETATM    9  N   UNL     1       6.244  26.568  52.649  1.00  0.00    -0.348 N 
HETATM   10  H   UNL     1       6.979  26.492  51.949  1.00  0.00     0.163 HD
HETATM   11  O   UNL     1       4.148  27.364  53.089  1.00  0.00    -0.267 OA
BRANCH   9  12
HETATM   12  C   UNL     1       6.547  26.162  54.010  1.00  0.00     0.114 C 
HETATM   13  C   UNL     1       7.585  27.094  54.641  1.00  0.00     0.037 C 
BRANCH  12  14
HETATM   14  C   UNL     1       7.016  24.719  54.046  1.00  0.00    -0.036 A 
HETATM   15  C   UNL     1       7.422  24.087  52.864  1.00  0.00     0.012 A 
HETATM   16  C   UNL     1       7.851  22.756  52.879  1.00  0.00     0.037 A 
HETATM   17  C   UNL     1       7.890  22.033  54.072  1.00  0.00     0.068 A 
HETATM   18  C   UNL     1       7.482  22.649  55.254  1.00  0.00     0.037 A 
HETATM   19  C   UNL     1       7.045  23.979  55.240  1.00  0.00     0.012 A 
BRANCH  17  20
HETATM   20  O   UNL     1       8.334  20.745  53.946  1.00  0.00    -0.356 OA
HETATM   21  C   UNL     1       8.683  20.066  55.146  1.00  0.00     0.210 C 
ENDBRANCH  17  20
ENDBRANCH  12  14
ENDBRANCH   9  12
ENDBRANCH   1   8
BRANCH   4  22
HETATM   22  C   UNL     1       5.059  30.852  48.508  1.00  0.00     0.257 C 
HETATM   23  N   UNL     1       5.972  31.672  49.126  1.00  0.00    -0.352 N 
HETATM   24  H   UNL     1       6.444  31.305  49.952  1.00  0.00     0.163 HD
HETATM   25  O   UNL     1       4.336  31.209  47.584  1.00  0.00    -0.267 OA
BRANCH  23  26
HETATM   26  C   UNL     1       6.129  33.103  48.866  1.00  0.00     0.084 C 
HETATM   27  C   UNL     1       6.002  33.938  50.146  1.00  0.00     0.025 C 
HETATM   28  C   UNL     1       6.066  35.452  49.936  1.00  0.00     0.002 C 
HETATM   29  C   UNL     1       7.469  35.942  49.592  1.00  0.00     0.000 C 
HETATM   30  C   UNL     1       7.820  35.912  48.108  1.00  0.00     0.000 C 
HETATM   31  C   UNL     1       7.350  34.704  47.304  1.00  0.00     0.002 C 
HETATM   32  C   UNL     1       7.398  33.368  48.040  1.00  0.00     0.025 C 
ENDBRANCH  23  26
ENDBRANCH   4  22
BRANCH   6  33
HETATM   33  C   UNL     1       4.098  26.141  47.630  1.00  0.00     0.089 A 
HETATM   34  C   UNL     1       3.045  25.125  47.993  1.00  0.00     0.028 A 
HETATM   35  C   UNL     1       2.727  26.208  47.008  1.00  0.00     0.028 A 
ENDBRANCH   6  33
TORSDOF 7
ENDMDL
MODEL 10
REMARK VINA RESULT:      -8.7      3.290     10.370
REMARK  7 active torsions:
REMARK  status: ('A' for Active; 'I' for Inactive)
REMARK    1  A    between atoms: C_2  and  N_3 
REMARK    2  A    between atoms: C_2  and  C_26 
REMARK       I    between atoms: N_3  and  C_4 
REMARK    3  A    between atoms: C_4  and  C_5 
REMARK    4  A    between atoms: C_8  and  C_9 
REMARK       I    between atoms: C_9  and  N_10 
REMARK    5  A    between atoms: N_10  and  C_11 
REMARK    6  A    between atoms: N_20  and  C_21 
REMARK    7  A    between atoms: C_29  and  O_30 
ROOT
HETATM    1  C   UNL     1       7.142  28.810  55.829  1.00  0.00     0.098 A 
HETATM    2  C   UNL     1       5.882  29.516  56.220  1.00  0.00     0.206 A 
HETATM    3  O   UNL     1       4.818  29.277  55.644  1.00  0.00    -0.286 OA
HETATM    4  C   UNL     1       5.949  30.537  57.310  1.00  0.00     0.098 A 
HETATM    5  C   UNL     1       7.124  30.669  57.948  1.00  0.00     0.112 A 
HETATM    6  N   UNL     1       8.243  29.915  57.657  1.00  0.00    -0.360 N 
HETATM    7  C   UNL     1       8.233  29.061  56.574  1.00  0.00     0.112 A 
ENDROOT
BRANCH   1   8
HETATM    8  C   UNL     1       7.271  27.885  54.669  1.00  0.00     0.257 C 
HETATM    9  N   UNL     1       6.409  26.820  54.672  1.00  0.00    -0.348 N 
HETATM   10  H   UNL     1       5.743  26.738  55.436  1.00  0.00     0.163 HD
HETATM   11  O   UNL     1       8.085  28.087  53.772  1.00  0.00    -0.267 OA
BRANCH   9  12
HETATM   12  C   UNL     1       6.289  25.901  53.553  1.00  0.00     0.114 C 
HETATM   13  C   UNL     1       4.831  25.767  53.110  1.00  0.00     0.037 C 
BRANCH  12  14
HETATM   14  C   UNL     1       6.879  24.548  53.906  1.00  0.00    -0.036 A 
HETATM   15  C   UNL     1       7.402  23.729  52.897  1.00  0.00     0.012 A 
HETATM   16  C   UNL     1       7.943  22.477  53.204  1.00  0.00     0.037 A 
HETATM   17  C   UNL     1       7.981  22.021  54.522  1.00  0.00     0.068 A 
HETATM   18  C   UNL     1       7.459  22.824  55.534  1.00  0.00     0.037 A 
HETATM   19  C   UNL     1       6.909  24.075  55.228  1.00  0.00     0.012 A 
BRANCH  17  20
HETATM   20  O   UNL     1       8.542  20.783  54.684  1.00  0.00    -0.356 OA
HETATM   21  C   UNL     1       8.800  20.365  56.018  1.00  0.00     0.210 C 
ENDBRANCH  17  20
ENDBRANCH  12  14
ENDBRANCH   9  12
ENDBRANCH   1   8
BRANCH   4  22
HETATM   22  C   UNL     1       4.817  31.417  57.716  1.00  0.00     0.257 C 
HETATM   23  N   UNL     1       5.068  32.764  57.625  1.00  0.00    -0.352 N 
HETATM   24  H   UNL     1       6.020  33.045  57.393  1.00  0.00     0.163 HD
HETATM   25  O   UNL     1       3.753  30.945  58.104  1.00  0.00    -0.267 OA
BRANCH  23  26
HETATM   26  C   UNL     1       4.170  33.821  58.088  1.00  0.00     0.084 C 
HETATM   27  C   UNL     1       4.326  34.095  59.588  1.00  0.00     0.025 C 
HETATM   28  C   UNL     1       3.353  35.127  60.159  1.00  0.00     0.002 C 
HETATM   29  C   UNL     1       3.680  36.552  59.726  1.00  0.00     0.000 C 
HETATM   30  C   UNL     1       3.064  36.984  58.400  1.00  0.00     0.000 C 
HETATM   31  C   UNL     1       3.051  35.960  57.270  1.00  0.00     0.002 C 
HETATM   32  C   UNL     1       4.281  35.061  57.186  1.00  0.00     0.025 C 
ENDBRANCH  23  26
ENDBRANCH   4  22
BRANCH   6  33
HETATM   33  C   UNL     1       9.506  30.196  58.351  1.00  0.00     0.089 A 
HETATM   34  C   UNL     1      10.523  31.150  57.777  1.00  0.00     0.028 A 
HETATM   35  C   UNL     1       9.769  31.521  59.018  1.00  0.00     0.028 A 
ENDBRANCH   6  33
TORSDOF 7
ENDMDL
