MODEL 1
REMARK VINA RESULT:      -8.9      0.000      0.000
REMARK  5 active torsions:
REMARK  status: ('A' for Active; 'I' for Inactive)
REMARK    1  A    between atoms: O_2  and  C_3 
REMARK    2  A    between atoms: C_4  and  C_5 
REMARK    3  A    between atoms: C_17  and  N_18 
REMARK       I    between atoms: N_18  and  C_19 
REMARK       I    between atoms: C_19  and  N_20 
REMARK    4  A    between atoms: N_20  and  C_21 
REMARK    5  A    between atoms: C_21  and  C_22 
ROOT
HETATM    1  C   UNL     1       7.276  26.119  55.939  1.00  0.00    -0.022 A 
HETATM    2  C   UNL     1       6.132  26.928  55.805  1.00  0.00     0.031 A 
HETATM    3  C   UNL     1       5.945  28.118  56.547  1.00  0.00     0.059 A 
HETATM    4  C   UNL     1       6.921  28.497  57.467  1.00  0.00     0.050 A 
HETATM    5  N   UNL     1       6.876  29.637  58.272  1.00  0.00    -0.324 N 
HETATM    6  C   UNL     1       6.298  30.842  58.002  1.00  0.00     0.245 C 
HETATM    7  O   UNL     1       6.448  31.736  58.839  1.00  0.00    -0.271 OA
HETATM    8  C   UNL     1       5.645  31.064  56.623  1.00  0.00     0.181 C 
HETATM    9  N   UNL     1       4.478  30.177  56.485  1.00  0.00    -0.334 N 
HETATM   10  C   UNL     1       4.629  28.786  56.363  1.00  0.00     0.256 C 
HETATM   11  O   UNL     1       3.679  28.069  56.036  1.00  0.00    -0.267 OA
HETATM   12  C   UNL     1       5.357  32.570  56.482  1.00  0.00     0.060 C 
HETATM   13  C   UNL     1       4.301  32.896  55.438  1.00  0.00     0.090 C 
HETATM   14  C   UNL     1       3.029  32.169  55.837  1.00  0.00     0.045 C 
HETATM   15  C   UNL     1       3.237  30.666  55.874  1.00  0.00     0.129 C 
HETATM   16  C   UNL     1       8.044  27.677  57.647  1.00  0.00     0.031 A 
HETATM   17  C   UNL     1       8.230  26.524  56.877  1.00  0.00     0.014 A 
HETATM   18  H   UNL     1       7.469  29.675  59.094  1.00  0.00     0.169 HD
ENDROOT
BRANCH   1  19
HETATM   19  C   UNL     1       7.457  24.900  55.110  1.00  0.00     0.009 A 
HETATM   20  C   UNL     1       7.621  24.934  53.702  1.00  0.00     0.079 A 
HETATM   21  C   UNL     1       7.774  23.739  52.982  1.00  0.00     0.039 A 
HETATM   22  C   UNL     1       7.784  22.508  53.639  1.00  0.00     0.026 A 
HETATM   23  C   UNL     1       7.635  22.463  55.017  1.00  0.00     0.035 A 
HETATM   24  C   UNL     1       7.469  23.639  55.746  1.00  0.00     0.039 A 
HETATM   25 CL   UNL     1       7.656  20.947  55.832  1.00  0.00    -0.084 Cl
BRANCH  20  26
HETATM   26  O   UNL     1       7.634  26.175  53.113  1.00  0.00    -0.355 OA
HETATM   27  C   UNL     1       6.596  26.493  52.196  1.00  0.00     0.210 C 
ENDBRANCH  20  26
ENDBRANCH   1  19
BRANCH  13  28
HETATM   28  N   UNL     1       4.733  32.578  54.083  1.00  0.00    -0.338 N 
HETATM   29  C   UNL     1       4.774  33.549  53.112  1.00  0.00     0.316 C 
HETATM   30  N   UNL     1       5.355  33.075  51.966  1.00  0.00    -0.340 N 
HETATM   31  O   UNL     1       4.372  34.693  53.264  1.00  0.00    -0.247 OA
HETATM   32  H   UNL     1       5.200  32.094  51.785  1.00  0.00     0.164 HD
HETATM   33  H   UNL     1       5.417  31.845  53.962  1.00  0.00     0.164 HD
BRANCH  30  34
HETATM   34  C   UNL     1       5.431  33.923  50.803  1.00  0.00     0.150 C 
BRANCH  34  35
HETATM   35  C   UNL     1       5.898  33.072  49.665  1.00  0.00    -0.018 C 
HETATM   36  C   UNL     1       6.002  31.737  49.700  1.00  0.00     0.008 C 
ENDBRANCH  34  35
ENDBRANCH  30  34
ENDBRANCH  13  28
TORSDOF 5
ENDMDL
MODEL 2
REMARK VINA RESULT:      -8.4      4.136      8.345
REMARK  5 active torsions:
REMARK  status: ('A' for Active; 'I' for Inactive)
REMARK    1  A    between atoms: O_2  and  C_3 
REMARK    2  A    between atoms: C_4  and  C_5 
REMARK    3  A    between atoms: C_17  and  N_18 
REMARK       I    between atoms: N_18  and  C_19 
REMARK       I    between atoms: C_19  and  N_20 
REMARK    4  A    between atoms: N_20  and  C_21 
REMARK    5  A    between atoms: C_21  and  C_22 
ROOT
HETATM    1  C   UNL     1       4.781  29.862  49.431  1.00  0.00    -0.022 A 
HETATM    2  C   UNL     1       4.480  29.864  50.806  1.00  0.00     0.031 A 
HETATM    3  C   UNL     1       4.436  28.681  51.581  1.00  0.00     0.059 A 
HETATM    4  C   UNL     1       4.679  27.458  50.955  1.00  0.00     0.050 A 
HETATM    5  N   UNL     1       4.666  26.212  51.584  1.00  0.00    -0.324 N 
HETATM    6  C   UNL     1       4.995  25.908  52.872  1.00  0.00     0.245 C 
HETATM    7  O   UNL     1       4.980  24.716  53.189  1.00  0.00    -0.271 OA
HETATM    8  C   UNL     1       5.515  27.031  53.793  1.00  0.00     0.181 C 
HETATM    9  N   UNL     1       4.442  28.014  54.021  1.00  0.00    -0.334 N 
HETATM   10  C   UNL     1       3.992  28.855  52.989  1.00  0.00     0.256 C 
HETATM   11  O   UNL     1       3.253  29.814  53.227  1.00  0.00    -0.267 OA
HETATM   12  C   UNL     1       6.088  26.366  55.058  1.00  0.00     0.060 C 
HETATM   13  C   UNL     1       6.186  27.304  56.251  1.00  0.00     0.090 C 
HETATM   14  C   UNL     1       4.787  27.823  56.536  1.00  0.00     0.045 C 
HETATM   15  C   UNL     1       4.227  28.589  55.353  1.00  0.00     0.129 C 
HETATM   16  C   UNL     1       4.932  27.435  49.577  1.00  0.00     0.031 A 
HETATM   17  C   UNL     1       5.009  28.618  48.835  1.00  0.00     0.014 A 
HETATM   18  H   UNL     1       4.566  25.380  51.012  1.00  0.00     0.169 HD
ENDROOT
BRANCH   1  19
HETATM   19  C   UNL     1       4.861  31.129  48.661  1.00  0.00     0.009 A 
HETATM   20  C   UNL     1       3.821  31.592  47.814  1.00  0.00     0.079 A 
HETATM   21  C   UNL     1       3.973  32.794  47.105  1.00  0.00     0.039 A 
HETATM   22  C   UNL     1       5.135  33.556  47.235  1.00  0.00     0.026 A 
HETATM   23  C   UNL     1       6.154  33.119  48.068  1.00  0.00     0.035 A 
HETATM   24  C   UNL     1       6.025  31.921  48.769  1.00  0.00     0.039 A 
HETATM   25 CL   UNL     1       7.585  34.060  48.238  1.00  0.00    -0.084 Cl
BRANCH  20  26
HETATM   26  O   UNL     1       2.689  30.816  47.749  1.00  0.00    -0.355 OA
HETATM   27  C   UNL     1       2.390  30.167  46.521  1.00  0.00     0.210 C 
ENDBRANCH  20  26
ENDBRANCH   1  19
BRANCH  13  28
HETATM   28  N   UNL     1       7.156  28.374  56.047  1.00  0.00    -0.338 N 
HETATM   29  C   UNL     1       8.393  28.324  56.642  1.00  0.00     0.316 C 
HETATM   30  N   UNL     1       9.196  29.339  56.194  1.00  0.00    -0.340 N 
HETATM   31  O   UNL     1       8.739  27.466  57.441  1.00  0.00    -0.247 OA
HETATM   32  H   UNL     1       8.710  30.192  55.959  1.00  0.00     0.164 HD
HETATM   33  H   UNL     1       7.141  28.867  55.166  1.00  0.00     0.164 HD
BRANCH  30  34
HETATM   34  C   UNL     1      10.516  29.500  56.749  1.00  0.00     0.150 C 
BRANCH  34  35
HETATM   35  C   UNL     1      10.539  30.815  57.460  1.00  0.00    -0.018 C 
HETATM   36  C   UNL     1       9.798  31.118  58.535  1.00  0.00     0.008 C 
ENDBRANCH  34  35
ENDBRANCH  30  34
ENDBRANCH  13  28
TORSDOF 5
ENDMDL
MODEL 3
REMARK VINA RESULT:      -8.3      4.605      7.070
REMARK  5 active torsions:
REMARK  status: ('A' for Active; 'I' for Inactive)
REMARK    1  A    between atoms: O_2  and  C_3 
REMARK    2  A    between atoms: C_4  and  C_5 
REMARK    3  A    between atoms: C_17  and  N_18 
REMARK       I    between atoms: N_18  and  C_19 
REMARK       I    between atoms: C_19  and  N_20 
REMARK    4  A    between atoms: N_20  and  C_21 
REMARK    5  A    between atoms: C_21  and  C_22 
ROOT
HETATM    1  C   UNL     1       6.348  27.354  53.627  1.00  0.00    -0.022 A 
HETATM    2  C   UNL     1       6.040  28.298  52.630  1.00  0.00     0.031 A 
HETATM    3  C   UNL     1       5.453  27.941  51.393  1.00  0.00     0.059 A 
HETATM    4  C   UNL     1       5.189  26.596  51.137  1.00  0.00     0.050 A 
HETATM    5  N   UNL     1       4.620  26.091  49.967  1.00  0.00    -0.324 N 
HETATM    6  C   UNL     1       3.721  26.689  49.135  1.00  0.00     0.245 C 
HETATM    7  O   UNL     1       3.297  26.019  48.190  1.00  0.00    -0.271 OA
HETATM    8  C   UNL     1       3.172  28.082  49.508  1.00  0.00     0.181 C 
HETATM    9  N   UNL     1       4.265  29.068  49.465  1.00  0.00    -0.334 N 
HETATM   10  C   UNL     1       5.301  29.050  50.414  1.00  0.00     0.256 C 
HETATM   11  O   UNL     1       6.092  29.992  50.509  1.00  0.00    -0.267 OA
HETATM   12  C   UNL     1       1.976  28.373  48.583  1.00  0.00     0.060 C 
HETATM   13  C   UNL     1       1.634  29.850  48.472  1.00  0.00     0.090 C 
HETATM   14  C   UNL     1       2.870  30.563  47.948  1.00  0.00     0.045 C 
HETATM   15  C   UNL     1       4.046  30.400  48.892  1.00  0.00     0.129 C 
HETATM   16  C   UNL     1       5.535  25.638  52.100  1.00  0.00     0.031 A 
HETATM   17  C   UNL     1       6.078  26.013  53.333  1.00  0.00     0.014 A 
HETATM   18  H   UNL     1       4.733  25.105  49.757  1.00  0.00     0.169 HD
ENDROOT
BRANCH   1  19
HETATM   19  C   UNL     1       6.922  27.772  54.931  1.00  0.00     0.009 A 
HETATM   20  C   UNL     1       6.322  27.466  56.179  1.00  0.00     0.079 A 
HETATM   21  C   UNL     1       6.916  27.907  57.372  1.00  0.00     0.039 A 
HETATM   22  C   UNL     1       8.107  28.634  57.349  1.00  0.00     0.026 A 
HETATM   23  C   UNL     1       8.708  28.930  56.135  1.00  0.00     0.035 A 
HETATM   24  C   UNL     1       8.125  28.512  54.940  1.00  0.00     0.039 A 
HETATM   25 CL   UNL     1      10.182  29.819  56.103  1.00  0.00    -0.084 Cl
BRANCH  20  26
HETATM   26  O   UNL     1       5.168  26.722  56.142  1.00  0.00    -0.355 OA
HETATM   27  C   UNL     1       5.067  25.597  57.004  1.00  0.00     0.210 C 
ENDBRANCH  20  26
ENDBRANCH   1  19
BRANCH  13  28
HETATM   28  N   UNL     1       1.146  30.411  49.725  1.00  0.00    -0.338 N 
HETATM   29  C   UNL     1       0.101  31.302  49.736  1.00  0.00     0.316 C 
HETATM   30  N   UNL     1      -0.297  31.578  51.018  1.00  0.00    -0.340 N 
HETATM   31  O   UNL     1      -0.423  31.764  48.733  1.00  0.00    -0.247 OA
HETATM   32  H   UNL     1       0.441  31.556  51.706  1.00  0.00     0.164 HD
HETATM   33  H   UNL     1       1.213  29.843  50.557  1.00  0.00     0.164 HD
BRANCH  30  34
HETATM   34  C   UNL     1      -1.340  32.546  51.247  1.00  0.00     0.150 C 
BRANCH  34  35
HETATM   35  C   UNL     1      -2.545  31.795  51.715  1.00  0.00    -0.018 C 
HETATM   36  C   UNL     1      -3.647  31.581  50.983  1.00  0.00     0.008 C 
ENDBRANCH  34  35
ENDBRANCH  30  34
ENDBRANCH  13  28
TORSDOF 5
ENDMDL
MODEL 4
REMARK VINA RESULT:      -8.0      6.009      7.967
REMARK  5 active torsions:
REMARK  status: ('A' for Active; 'I' for Inactive)
REMARK    1  A    between atoms: O_2  and  C_3 
REMARK    2  A    between atoms: C_4  and  C_5 
REMARK    3  A    between atoms: C_17  and  N_18 
REMARK       I    between atoms: N_18  and  C_19 
REMARK       I    between atoms: C_19  and  N_20 
REMARK    4  A    between atoms: N_20  and  C_21 
REMARK    5  A    between atoms: C_21  and  C_22 
ROOT
HETATM    1  C   UNL     1       7.827  31.198  60.188  1.00  0.00    -0.022 A 
HETATM    2  C   UNL     1       6.706  32.045  60.273  1.00  0.00     0.031 A 
HETATM    3  C   UNL     1       6.309  32.670  61.479  1.00  0.00     0.059 A 
HETATM    4  C   UNL     1       7.043  32.421  62.638  1.00  0.00     0.050 A 
HETATM    5  N   UNL     1       6.772  32.958  63.898  1.00  0.00    -0.324 N 
HETATM    6  C   UNL     1       6.216  34.165  64.203  1.00  0.00     0.245 C 
HETATM    7  O   UNL     1       6.140  34.462  65.398  1.00  0.00    -0.271 OA
HETATM    8  C   UNL     1       5.873  35.139  63.057  1.00  0.00     0.181 C 
HETATM    9  N   UNL     1       4.804  34.560  62.225  1.00  0.00    -0.334 N 
HETATM   10  C   UNL     1       5.039  33.439  61.412  1.00  0.00     0.256 C 
HETATM   11  O   UNL     1       4.216  33.087  60.563  1.00  0.00    -0.267 OA
HETATM   12  C   UNL     1       5.558  36.507  63.689  1.00  0.00     0.060 C 
HETATM   13  C   UNL     1       4.744  37.424  62.789  1.00  0.00     0.090 C 
HETATM   14  C   UNL     1       3.448  36.703  62.461  1.00  0.00     0.045 C 
HETATM   15  C   UNL     1       3.708  35.399  61.730  1.00  0.00     0.129 C 
HETATM   16  C   UNL     1       8.132  31.541  62.580  1.00  0.00     0.031 A 
HETATM   17  C   UNL     1       8.533  30.963  61.371  1.00  0.00     0.014 A 
HETATM   18  H   UNL     1       7.168  32.505  64.715  1.00  0.00     0.169 HD
ENDROOT
BRANCH   1  19
HETATM   19  C   UNL     1       8.238  30.596  58.894  1.00  0.00     0.009 A 
HETATM   20  C   UNL     1       7.315  30.172  57.905  1.00  0.00     0.079 A 
HETATM   21  C   UNL     1       7.777  29.598  56.710  1.00  0.00     0.039 A 
HETATM   22  C   UNL     1       9.145  29.452  56.472  1.00  0.00     0.026 A 
HETATM   23  C   UNL     1      10.057  29.872  57.428  1.00  0.00     0.035 A 
HETATM   24  C   UNL     1       9.615  30.432  58.625  1.00  0.00     0.039 A 
HETATM   25 CL   UNL     1      11.745  29.702  57.135  1.00  0.00    -0.084 Cl
BRANCH  20  26
HETATM   26  O   UNL     1       5.983  30.368  58.180  1.00  0.00    -0.355 OA
HETATM   27  C   UNL     1       5.028  29.622  57.439  1.00  0.00     0.210 C 
ENDBRANCH  20  26
ENDBRANCH   1  19
BRANCH  13  28
HETATM   28  N   UNL     1       5.477  37.840  61.600  1.00  0.00    -0.338 N 
HETATM   29  C   UNL     1       5.277  39.083  61.050  1.00  0.00     0.316 C 
HETATM   30  N   UNL     1       6.174  39.326  60.044  1.00  0.00    -0.340 N 
HETATM   31  O   UNL     1       4.430  39.877  61.432  1.00  0.00    -0.247 OA
HETATM   32  H   UNL     1       6.457  38.511  59.521  1.00  0.00     0.164 HD
HETATM   33  H   UNL     1       6.408  37.473  61.462  1.00  0.00     0.164 HD
BRANCH  30  34
HETATM   34  C   UNL     1       6.086  40.553  59.293  1.00  0.00     0.150 C 
BRANCH  34  35
HETATM   35  C   UNL     1       6.120  40.189  57.844  1.00  0.00    -0.018 C 
HETATM   36  C   UNL     1       6.141  38.936  57.369  1.00  0.00     0.008 C 
ENDBRANCH  34  35
ENDBRANCH  30  34
ENDBRANCH  13  28
TORSDOF 5
ENDMDL
MODEL 5
REMARK VINA RESULT:      -8.0      1.564      2.102
REMARK  5 active torsions:
REMARK  status: ('A' for Active; 'I' for Inactive)
REMARK    1  A    between atoms: O_2  and  C_3 
REMARK    2  A    between atoms: C_4  and  C_5 
REMARK    3  A    between atoms: C_17  and  N_18 
REMARK       I    between atoms: N_18  and  C_19 
REMARK       I    between atoms: C_19  and  N_20 
REMARK    4  A    between atoms: N_20  and  C_21 
REMARK    5  A    between atoms: C_21  and  C_22 
ROOT
HETATM    1  C   UNL     1       7.222  26.917  56.140  1.00  0.00    -0.022 A 
HETATM    2  C   UNL     1       6.035  27.653  55.976  1.00  0.00     0.031 A 
HETATM    3  C   UNL     1       5.785  28.865  56.663  1.00  0.00     0.059 A 
HETATM    4  C   UNL     1       6.743  29.341  57.557  1.00  0.00     0.050 A 
HETATM    5  N   UNL     1       6.638  30.513  58.308  1.00  0.00    -0.324 N 
HETATM    6  C   UNL     1       5.993  31.670  57.986  1.00  0.00     0.245 C 
HETATM    7  O   UNL     1       6.096  32.610  58.778  1.00  0.00    -0.271 OA
HETATM    8  C   UNL     1       5.322  31.791  56.602  1.00  0.00     0.181 C 
HETATM    9  N   UNL     1       4.205  30.835  56.513  1.00  0.00    -0.334 N 
HETATM   10  C   UNL     1       4.433  29.450  56.456  1.00  0.00     0.256 C 
HETATM   11  O   UNL     1       3.523  28.667  56.169  1.00  0.00    -0.267 OA
HETATM   12  C   UNL     1       4.950  33.270  56.392  1.00  0.00     0.060 C 
HETATM   13  C   UNL     1       3.874  33.487  55.341  1.00  0.00     0.090 C 
HETATM   14  C   UNL     1       2.645  32.710  55.783  1.00  0.00     0.045 C 
HETATM   15  C   UNL     1       2.937  31.225  55.889  1.00  0.00     0.129 C 
HETATM   16  C   UNL     1       7.910  28.594  57.768  1.00  0.00     0.031 A 
HETATM   17  C   UNL     1       8.157  27.418  57.052  1.00  0.00     0.014 A 
HETATM   18  H   UNL     1       7.231  30.623  59.123  1.00  0.00     0.169 HD
ENDROOT
BRANCH   1  19
HETATM   19  C   UNL     1       7.468  25.672  55.369  1.00  0.00     0.009 A 
HETATM   20  C   UNL     1       7.709  24.413  55.978  1.00  0.00     0.079 A 
HETATM   21  C   UNL     1       7.945  23.281  55.183  1.00  0.00     0.039 A 
HETATM   22  C   UNL     1       7.932  23.371  53.790  1.00  0.00     0.026 A 
HETATM   23  C   UNL     1       7.688  24.594  53.184  1.00  0.00     0.035 A 
HETATM   24  C   UNL     1       7.463  25.732  53.957  1.00  0.00     0.039 A 
HETATM   25 CL   UNL     1       7.661  24.709  51.467  1.00  0.00    -0.084 Cl
BRANCH  20  26
HETATM   26  O   UNL     1       7.680  24.378  57.351  1.00  0.00    -0.355 OA
HETATM   27  C   UNL     1       8.901  24.157  58.042  1.00  0.00     0.210 C 
ENDBRANCH  20  26
ENDBRANCH   1  19
BRANCH  13  28
HETATM   28  N   UNL     1       4.317  33.130  53.999  1.00  0.00    -0.338 N 
HETATM   29  C   UNL     1       4.947  34.050  53.198  1.00  0.00     0.316 C 
HETATM   30  N   UNL     1       5.417  33.466  52.052  1.00  0.00    -0.340 N 
HETATM   31  O   UNL     1       5.094  35.229  53.487  1.00  0.00    -0.247 OA
HETATM   32  H   UNL     1       4.861  32.698  51.708  1.00  0.00     0.164 HD
HETATM   33  H   UNL     1       4.599  32.175  53.831  1.00  0.00     0.164 HD
BRANCH  30  34
HETATM   34  C   UNL     1       6.052  34.281  51.046  1.00  0.00     0.150 C 
BRANCH  34  35
HETATM   35  C   UNL     1       5.837  33.606  49.730  1.00  0.00    -0.018 C 
HETATM   36  C   UNL     1       6.637  33.734  48.663  1.00  0.00     0.008 C 
ENDBRANCH  34  35
ENDBRANCH  30  34
ENDBRANCH  13  28
TORSDOF 5
ENDMDL
MODEL 6
REMARK VINA RESULT:      -7.9      4.557      7.057
REMARK  5 active torsions:
REMARK  status: ('A' for Active; 'I' for Inactive)
REMARK    1  A    between atoms: O_2  and  C_3 
REMARK    2  A    between atoms: C_4  and  C_5 
REMARK    3  A    between atoms: C_17  and  N_18 
REMARK       I    between atoms: N_18  and  C_19 
REMARK       I    between atoms: C_19  and  N_20 
REMARK    4  A    between atoms: N_20  and  C_21 
REMARK    5  A    between atoms: C_21  and  C_22 
ROOT
HETATM    1  C   UNL     1       5.844  26.714  53.429  1.00  0.00    -0.022 A 
HETATM    2  C   UNL     1       5.692  27.779  52.521  1.00  0.00     0.031 A 
HETATM    3  C   UNL     1       5.172  27.605  51.217  1.00  0.00     0.059 A 
HETATM    4  C   UNL     1       4.815  26.323  50.802  1.00  0.00     0.050 A 
HETATM    5  N   UNL     1       4.294  25.994  49.549  1.00  0.00    -0.324 N 
HETATM    6  C   UNL     1       3.514  26.754  48.729  1.00  0.00     0.245 C 
HETATM    7  O   UNL     1       3.107  26.224  47.692  1.00  0.00    -0.271 OA
HETATM    8  C   UNL     1       3.058  28.146  49.213  1.00  0.00     0.181 C 
HETATM    9  N   UNL     1       4.231  29.026  49.348  1.00  0.00    -0.334 N 
HETATM   10  C   UNL     1       5.188  28.816  50.355  1.00  0.00     0.256 C 
HETATM   11  O   UNL     1       6.047  29.667  50.603  1.00  0.00    -0.267 OA
HETATM   12  C   UNL     1       1.964  28.638  48.248  1.00  0.00     0.060 C 
HETATM   13  C   UNL     1       1.758  30.144  48.274  1.00  0.00     0.090 C 
HETATM   14  C   UNL     1       3.085  30.790  47.913  1.00  0.00     0.045 C 
HETATM   15  C   UNL     1       4.170  30.424  48.909  1.00  0.00     0.129 C 
HETATM   16  C   UNL     1       5.005  25.244  51.677  1.00  0.00     0.031 A 
HETATM   17  C   UNL     1       5.484  25.441  52.976  1.00  0.00     0.014 A 
HETATM   18  H   UNL     1       4.338  25.028  49.242  1.00  0.00     0.169 HD
ENDROOT
BRANCH   1  19
HETATM   19  C   UNL     1       6.352  26.944  54.805  1.00  0.00     0.009 A 
HETATM   20  C   UNL     1       7.368  26.154  55.401  1.00  0.00     0.079 A 
HETATM   21  C   UNL     1       7.790  26.422  56.713  1.00  0.00     0.039 A 
HETATM   22  C   UNL     1       7.230  27.473  57.441  1.00  0.00     0.026 A 
HETATM   23  C   UNL     1       6.243  28.259  56.864  1.00  0.00     0.035 A 
HETATM   24  C   UNL     1       5.804  27.999  55.568  1.00  0.00     0.039 A 
HETATM   25 CL   UNL     1       5.557  29.562  57.755  1.00  0.00    -0.084 Cl
BRANCH  20  26
HETATM   26  O   UNL     1       7.903  25.153  54.627  1.00  0.00    -0.355 OA
HETATM   27  C   UNL     1       8.091  23.875  55.219  1.00  0.00     0.210 C 
ENDBRANCH  20  26
ENDBRANCH   1  19
BRANCH  13  28
HETATM   28  N   UNL     1       1.227  30.618  49.546  1.00  0.00    -0.338 N 
HETATM   29  C   UNL     1       0.103  31.406  49.588  1.00  0.00     0.316 C 
HETATM   30  N   UNL     1      -0.312  31.603  50.879  1.00  0.00    -0.340 N 
HETATM   31  O   UNL     1      -0.469  31.846  48.601  1.00  0.00    -0.247 OA
HETATM   32  H   UNL     1       0.429  31.630  51.564  1.00  0.00     0.164 HD
HETATM   33  H   UNL     1       1.352  30.034  50.360  1.00  0.00     0.164 HD
BRANCH  30  34
HETATM   34  C   UNL     1      -1.440  32.461  51.141  1.00  0.00     0.150 C 
BRANCH  34  35
HETATM   35  C   UNL     1      -2.623  31.577  51.375  1.00  0.00    -0.018 C 
HETATM   36  C   UNL     1      -3.373  31.578  52.485  1.00  0.00     0.008 C 
ENDBRANCH  34  35
ENDBRANCH  30  34
ENDBRANCH  13  28
TORSDOF 5
ENDMDL
MODEL 7
REMARK VINA RESULT:      -7.6      5.736      7.698
REMARK  5 active torsions:
REMARK  status: ('A' for Active; 'I' for Inactive)
REMARK    1  A    between atoms: O_2  and  C_3 
REMARK    2  A    between atoms: C_4  and  C_5 
REMARK    3  A    between atoms: C_17  and  N_18 
REMARK       I    between atoms: N_18  and  C_19 
REMARK       I    between atoms: C_19  and  N_20 
REMARK    4  A    between atoms: N_20  and  C_21 
REMARK    5  A    between atoms: C_21  and  C_22 
ROOT
HETATM    1  C   UNL     1       7.780  30.763  59.618  1.00  0.00    -0.022 A 
HETATM    2  C   UNL     1       6.638  31.460  60.056  1.00  0.00     0.031 A 
HETATM    3  C   UNL     1       6.554  32.064  61.333  1.00  0.00     0.059 A 
HETATM    4  C   UNL     1       7.635  31.947  62.205  1.00  0.00     0.050 A 
HETATM    5  N   UNL     1       7.698  32.483  63.492  1.00  0.00    -0.324 N 
HETATM    6  C   UNL     1       7.108  33.616  63.968  1.00  0.00     0.245 C 
HETATM    7  O   UNL     1       7.365  33.937  65.132  1.00  0.00    -0.271 OA
HETATM    8  C   UNL     1       6.302  34.502  62.997  1.00  0.00     0.181 C 
HETATM    9  N   UNL     1       5.115  33.765  62.530  1.00  0.00    -0.334 N 
HETATM   10  C   UNL     1       5.234  32.660  61.671  1.00  0.00     0.256 C 
HETATM   11  O   UNL     1       4.244  32.179  61.115  1.00  0.00    -0.267 OA
HETATM   12  C   UNL     1       6.019  35.837  63.711  1.00  0.00     0.060 C 
HETATM   13  C   UNL     1       4.854  36.612  63.117  1.00  0.00     0.090 C 
HETATM   14  C   UNL     1       3.627  35.720  63.199  1.00  0.00     0.045 C 
HETATM   15  C   UNL     1       3.819  34.440  62.408  1.00  0.00     0.129 C 
HETATM   16  C   UNL     1       8.760  31.215  61.802  1.00  0.00     0.031 A 
HETATM   17  C   UNL     1       8.842  30.657  60.522  1.00  0.00     0.014 A 
HETATM   18  H   UNL     1       8.382  32.110  64.141  1.00  0.00     0.169 HD
ENDROOT
BRANCH   1  19
HETATM   19  C   UNL     1       7.848  30.180  58.254  1.00  0.00     0.009 A 
HETATM   20  C   UNL     1       9.065  29.983  57.552  1.00  0.00     0.079 A 
HETATM   21  C   UNL     1       9.051  29.437  56.259  1.00  0.00     0.039 A 
HETATM   22  C   UNL     1       7.849  29.068  55.654  1.00  0.00     0.026 A 
HETATM   23  C   UNL     1       6.654  29.247  56.334  1.00  0.00     0.035 A 
HETATM   24  C   UNL     1       6.648  29.799  57.614  1.00  0.00     0.039 A 
HETATM   25 CL   UNL     1       5.170  28.785  55.595  1.00  0.00    -0.084 Cl
BRANCH  20  26
HETATM   26  O   UNL     1      10.219  30.335  58.209  1.00  0.00    -0.355 OA
HETATM   27  C   UNL     1      11.457  30.151  57.536  1.00  0.00     0.210 C 
ENDBRANCH  20  26
ENDBRANCH   1  19
BRANCH  13  28
HETATM   28  N   UNL     1       5.121  37.084  61.765  1.00  0.00    -0.338 N 
HETATM   29  C   UNL     1       5.307  38.421  61.510  1.00  0.00     0.316 C 
HETATM   30  N   UNL     1       5.700  38.625  60.214  1.00  0.00    -0.340 N 
HETATM   31  O   UNL     1       5.168  39.307  62.341  1.00  0.00    -0.247 OA
HETATM   32  H   UNL     1       5.328  37.964  59.548  1.00  0.00     0.164 HD
HETATM   33  H   UNL     1       5.624  36.471  61.139  1.00  0.00     0.164 HD
BRANCH  30  34
HETATM   34  C   UNL     1       5.882  39.970  59.728  1.00  0.00     0.150 C 
BRANCH  34  35
HETATM   35  C   UNL     1       5.845  39.910  58.235  1.00  0.00    -0.018 C 
HETATM   36  C   UNL     1       6.102  38.815  57.506  1.00  0.00     0.008 C 
ENDBRANCH  34  35
ENDBRANCH  30  34
ENDBRANCH  13  28
TORSDOF 5
ENDMDL
MODEL 8
REMARK VINA RESULT:      -7.5      4.077      6.218
REMARK  5 active torsions:
REMARK  status: ('A' for Active; 'I' for Inactive)
REMARK    1  A    between atoms: O_2  and  C_3 
REMARK    2  A    between atoms: C_4  and  C_5 
REMARK    3  A    between atoms: C_17  and  N_18 
REMARK       I    between atoms: N_18  and  C_19 
REMARK       I    between atoms: C_19  and  N_20 
REMARK    4  A    between atoms: N_20  and  C_21 
REMARK    5  A    between atoms: C_21  and  C_22 
ROOT
HETATM    1  C   UNL     1       5.587  28.158  54.508  1.00  0.00    -0.022 A 
HETATM    2  C   UNL     1       5.729  28.016  53.115  1.00  0.00     0.031 A 
HETATM    3  C   UNL     1       4.673  28.271  52.209  1.00  0.00     0.059 A 
HETATM    4  C   UNL     1       3.432  28.656  52.713  1.00  0.00     0.050 A 
HETATM    5  N   UNL     1       2.299  28.937  51.948  1.00  0.00    -0.324 N 
HETATM    6  C   UNL     1       2.234  29.456  50.689  1.00  0.00     0.245 C 
HETATM    7  O   UNL     1       1.111  29.690  50.235  1.00  0.00    -0.271 OA
HETATM    8  C   UNL     1       3.542  29.865  49.982  1.00  0.00     0.181 C 
HETATM    9  N   UNL     1       4.360  28.666  49.730  1.00  0.00    -0.334 N 
HETATM   10  C   UNL     1       4.966  27.962  50.784  1.00  0.00     0.256 C 
HETATM   11  O   UNL     1       5.815  27.095  50.563  1.00  0.00    -0.267 OA
HETATM   12  C   UNL     1       3.161  30.685  48.736  1.00  0.00     0.060 C 
HETATM   13  C   UNL     1       4.258  30.746  47.685  1.00  0.00     0.090 C 
HETATM   14  C   UNL     1       4.576  29.318  47.278  1.00  0.00     0.045 C 
HETATM   15  C   UNL     1       5.070  28.502  48.458  1.00  0.00     0.129 C 
HETATM   16  C   UNL     1       3.261  28.755  54.101  1.00  0.00     0.031 A 
HETATM   17  C   UNL     1       4.326  28.536  54.980  1.00  0.00     0.014 A 
HETATM   18  H   UNL     1       1.391  28.924  52.400  1.00  0.00     0.169 HD
ENDROOT
BRANCH   1  19
HETATM   19  C   UNL     1       6.731  27.924  55.425  1.00  0.00     0.009 A 
HETATM   20  C   UNL     1       6.901  26.728  56.168  1.00  0.00     0.079 A 
HETATM   21  C   UNL     1       8.002  26.582  57.027  1.00  0.00     0.039 A 
HETATM   22  C   UNL     1       8.950  27.600  57.149  1.00  0.00     0.026 A 
HETATM   23  C   UNL     1       8.799  28.770  56.420  1.00  0.00     0.035 A 
HETATM   24  C   UNL     1       7.705  28.936  55.573  1.00  0.00     0.039 A 
HETATM   25 CL   UNL     1       9.970  30.024  56.561  1.00  0.00    -0.084 Cl
BRANCH  20  26
HETATM   26  O   UNL     1       5.955  25.749  55.984  1.00  0.00    -0.355 OA
HETATM   27  C   UNL     1       5.115  25.414  57.081  1.00  0.00     0.210 C 
ENDBRANCH  20  26
ENDBRANCH   1  19
BRANCH  13  28
HETATM   28  N   UNL     1       5.432  31.480  48.139  1.00  0.00    -0.338 N 
HETATM   29  C   UNL     1       5.606  32.802  47.810  1.00  0.00     0.316 C 
HETATM   30  N   UNL     1       6.684  33.336  48.466  1.00  0.00    -0.340 N 
HETATM   31  O   UNL     1       4.875  33.427  47.055  1.00  0.00    -0.247 OA
HETATM   32  H   UNL     1       7.438  32.688  48.641  1.00  0.00     0.164 HD
HETATM   33  H   UNL     1       5.844  31.218  49.023  1.00  0.00     0.164 HD
BRANCH  30  34
HETATM   34  C   UNL     1       7.074  34.698  48.204  1.00  0.00     0.150 C 
BRANCH  34  35
HETATM   35  C   UNL     1       8.192  34.654  47.212  1.00  0.00    -0.018 C 
HETATM   36  C   UNL     1       8.291  35.444  46.134  1.00  0.00     0.008 C 
ENDBRANCH  34  35
ENDBRANCH  30  34
ENDBRANCH  13  28
TORSDOF 5
ENDMDL
MODEL 9
REMARK VINA RESULT:      -7.4      5.019      7.609
REMARK  5 active torsions:
REMARK  status: ('A' for Active; 'I' for Inactive)
REMARK    1  A    between atoms: O_2  and  C_3 
REMARK    2  A    between atoms: C_4  and  C_5 
REMARK    3  A    between atoms: C_17  and  N_18 
REMARK       I    between atoms: N_18  and  C_19 
REMARK       I    between atoms: C_19  and  N_20 
REMARK    4  A    between atoms: N_20  and  C_21 
REMARK    5  A    between atoms: C_21  and  C_22 
ROOT
HETATM    1  C   UNL     1       4.791  26.896  50.948  1.00  0.00    -0.022 A 
HETATM    2  C   UNL     1       4.423  28.253  50.990  1.00  0.00     0.031 A 
HETATM    3  C   UNL     1       3.870  28.932  49.878  1.00  0.00     0.059 A 
HETATM    4  C   UNL     1       3.702  28.236  48.682  1.00  0.00     0.050 A 
HETATM    5  N   UNL     1       3.177  28.768  47.503  1.00  0.00    -0.324 N 
HETATM    6  C   UNL     1       2.242  29.750  47.359  1.00  0.00     0.245 C 
HETATM    7  O   UNL     1       1.872  30.009  46.212  1.00  0.00    -0.271 OA
HETATM    8  C   UNL     1       1.595  30.355  48.622  1.00  0.00     0.181 C 
HETATM    9  N   UNL     1       2.617  31.076  49.400  1.00  0.00    -0.334 N 
HETATM   10  C   UNL     1       3.646  30.390  50.066  1.00  0.00     0.256 C 
HETATM   11  O   UNL     1       4.369  30.966  50.883  1.00  0.00    -0.267 OA
HETATM   12  C   UNL     1       0.388  31.195  48.169  1.00  0.00     0.060 C 
HETATM   13  C   UNL     1      -0.056  32.229  49.191  1.00  0.00     0.090 C 
HETATM   14  C   UNL     1       1.129  33.142  49.456  1.00  0.00     0.045 C 
HETATM   15  C   UNL     1       2.309  32.370  50.017  1.00  0.00     0.129 C 
HETATM   16  C   UNL     1       4.109  26.896  48.609  1.00  0.00     0.031 A 
HETATM   17  C   UNL     1       4.617  26.231  49.729  1.00  0.00     0.014 A 
HETATM   18  H   UNL     1       3.359  28.287  46.629  1.00  0.00     0.169 HD
ENDROOT
BRANCH   1  19
HETATM   19  C   UNL     1       5.327  26.206  52.149  1.00  0.00     0.009 A 
HETATM   20  C   UNL     1       4.944  26.540  53.473  1.00  0.00     0.079 A 
HETATM   21  C   UNL     1       5.503  25.853  54.562  1.00  0.00     0.039 A 
HETATM   22  C   UNL     1       6.426  24.826  54.359  1.00  0.00     0.026 A 
HETATM   23  C   UNL     1       6.800  24.484  53.068  1.00  0.00     0.035 A 
HETATM   24  C   UNL     1       6.265  25.165  51.976  1.00  0.00     0.039 A 
HETATM   25 CL   UNL     1       7.931  23.212  52.812  1.00  0.00    -0.084 Cl
BRANCH  20  26
HETATM   26  O   UNL     1       4.010  27.538  53.611  1.00  0.00    -0.355 OA
HETATM   27  C   UNL     1       4.185  28.480  54.661  1.00  0.00     0.210 C 
ENDBRANCH  20  26
ENDBRANCH   1  19
BRANCH  13  28
HETATM   28  N   UNL     1      -0.590  31.627  50.407  1.00  0.00    -0.338 N 
HETATM   29  C   UNL     1      -1.775  32.063  50.945  1.00  0.00     0.316 C 
HETATM   30  N   UNL     1      -2.168  31.262  51.985  1.00  0.00    -0.340 N 
HETATM   31  O   UNL     1      -2.410  33.022  50.530  1.00  0.00    -0.247 OA
HETATM   32  H   UNL     1      -1.413  30.860  52.520  1.00  0.00     0.164 HD
HETATM   33  H   UNL     1      -0.391  30.652  50.580  1.00  0.00     0.164 HD
BRANCH  30  34
HETATM   34  C   UNL     1      -3.358  31.593  52.728  1.00  0.00     0.150 C 
BRANCH  34  35
HETATM   35  C   UNL     1      -4.341  30.489  52.504  1.00  0.00    -0.018 C 
HETATM   36  C   UNL     1      -4.922  30.208  51.330  1.00  0.00     0.008 C 
ENDBRANCH  34  35
ENDBRANCH  30  34
ENDBRANCH  13  28
TORSDOF 5
ENDMDL
MODEL 10
REMARK VINA RESULT:      -7.2      4.436      7.350
REMARK  5 active torsions:
REMARK  status: ('A' for Active; 'I' for Inactive)
REMARK    1  A    between atoms: O_2  and  C_3 
REMARK    2  A    between atoms: C_4  and  C_5 
REMARK    3  A    between atoms: C_17  and  N_18 
REMARK       I    between atoms: N_18  and  C_19 
REMARK       I    between atoms: C_19  and  N_20 
REMARK    4  A    between atoms: N_20  and  C_21 
REMARK    5  A    between atoms: C_21  and  C_22 
ROOT
HETATM    1  C   UNL     1       5.598  27.560  53.223  1.00  0.00    -0.022 A 
HETATM    2  C   UNL     1       5.573  28.514  52.189  1.00  0.00     0.031 A 
HETATM    3  C   UNL     1       5.369  28.168  50.833  1.00  0.00     0.059 A 
HETATM    4  C   UNL     1       5.208  26.824  50.499  1.00  0.00     0.050 A 
HETATM    5  N   UNL     1       5.003  26.329  49.210  1.00  0.00    -0.324 N 
HETATM    6  C   UNL     1       4.369  26.929  48.163  1.00  0.00     0.245 C 
HETATM    7  O   UNL     1       4.242  26.267  47.129  1.00  0.00    -0.271 OA
HETATM    8  C   UNL     1       3.716  28.310  48.378  1.00  0.00     0.181 C 
HETATM    9  N   UNL     1       4.762  29.308  48.658  1.00  0.00    -0.334 N 
HETATM   10  C   UNL     1       5.485  29.288  49.863  1.00  0.00     0.256 C 
HETATM   11  O   UNL     1       6.203  30.238  50.188  1.00  0.00    -0.267 OA
HETATM   12  C   UNL     1       2.830  28.601  47.153  1.00  0.00     0.060 C 
HETATM   13  C   UNL     1       2.512  30.075  46.965  1.00  0.00     0.090 C 
HETATM   14  C   UNL     1       3.835  30.809  46.822  1.00  0.00     0.045 C 
HETATM   15  C   UNL     1       4.696  30.646  48.060  1.00  0.00     0.129 C 
HETATM   16  C   UNL     1       5.279  25.856  51.511  1.00  0.00     0.031 A 
HETATM   17  C   UNL     1       5.443  26.220  52.851  1.00  0.00     0.014 A 
HETATM   18  H   UNL     1       5.185  25.347  49.031  1.00  0.00     0.169 HD
ENDROOT
BRANCH   1  19
HETATM   19  C   UNL     1       5.771  27.966  54.641  1.00  0.00     0.009 A 
HETATM   20  C   UNL     1       5.142  29.104  55.206  1.00  0.00     0.079 A 
HETATM   21  C   UNL     1       5.362  29.435  56.553  1.00  0.00     0.039 A 
HETATM   22  C   UNL     1       6.187  28.644  57.355  1.00  0.00     0.026 A 
HETATM   23  C   UNL     1       6.800  27.523  56.815  1.00  0.00     0.035 A 
HETATM   24  C   UNL     1       6.602  27.188  55.477  1.00  0.00     0.039 A 
HETATM   25 CL   UNL     1       7.810  26.540  57.803  1.00  0.00    -0.084 Cl
BRANCH  20  26
HETATM   26  O   UNL     1       4.317  29.827  54.378  1.00  0.00    -0.355 OA
HETATM   27  C   UNL     1       3.368  30.701  54.974  1.00  0.00     0.210 C 
ENDBRANCH  20  26
ENDBRANCH   1  19
BRANCH  13  28
HETATM   28  N   UNL     1       1.679  30.613  48.032  1.00  0.00    -0.338 N 
HETATM   29  C   UNL     1       0.570  31.370  47.745  1.00  0.00     0.316 C 
HETATM   30  N   UNL     1      -0.151  31.637  48.879  1.00  0.00    -0.340 N 
HETATM   31  O   UNL     1       0.253  31.731  46.621  1.00  0.00    -0.247 OA
HETATM   32  H   UNL     1       0.398  31.728  49.720  1.00  0.00     0.164 HD
HETATM   33  H   UNL     1       1.607  30.085  48.891  1.00  0.00     0.164 HD
BRANCH  30  34
HETATM   34  C   UNL     1      -1.320  32.478  48.798  1.00  0.00     0.150 C 
BRANCH  34  35
HETATM   35  C   UNL     1      -1.245  33.448  49.933  1.00  0.00    -0.018 C 
HETATM   36  C   UNL     1      -0.117  33.809  50.560  1.00  0.00     0.008 C 
ENDBRANCH  34  35
ENDBRANCH  30  34
ENDBRANCH  13  28
TORSDOF 5
ENDMDL
