MODEL 1
REMARK VINA RESULT:     -10.5      0.000      0.000
REMARK  7 active torsions:
REMARK  status: ('A' for Active; 'I' for Inactive)
REMARK    1  A    between atoms: C_6  and  O_7 
REMARK    2  A    between atoms: O_7  and  C_8 
REMARK    3  A    between atoms: C_8  and  C_9 
REMARK       I    between atoms: C_9  and  N_10 
REMARK    4  A    between atoms: N_10  and  C_11 
REMARK    5  A    between atoms: C_14  and  N_15 
REMARK    6  A    between atoms: N_18  and  C_20 
REMARK    7  A    between atoms: C_20  and  C_21 
ROOT
HETATM    1  C   UNL     1       5.969  31.340  58.228  1.00  0.00     0.034 A 
HETATM    2  C   UNL     1       5.065  30.493  57.595  1.00  0.00     0.032 A 
HETATM    3  C   UNL     1       5.429  29.176  57.297  1.00  0.00     0.031 A 
HETATM    4  C   UNL     1       6.689  28.668  57.641  1.00  0.00     0.030 A 
HETATM    5  C   UNL     1       7.600  29.539  58.247  1.00  0.00     0.031 A 
HETATM    6  C   UNL     1       7.254  30.872  58.512  1.00  0.00     0.032 A 
ENDROOT
BRANCH   1   7
HETATM    7  N   UNL     1       5.667  32.673  58.538  1.00  0.00    -0.325 N 
HETATM    8  C   UNL     1       4.934  33.197  59.575  1.00  0.00     0.246 C 
HETATM    9  O   UNL     1       4.576  34.375  59.502  1.00  0.00    -0.271 OA
HETATM   10  H   UNL     1       6.021  33.391  57.915  1.00  0.00     0.169 HD
BRANCH   8  11
HETATM   11  C   UNL     1       4.719  32.374  60.847  1.00  0.00     0.278 C 
BRANCH  11  12
HETATM   12  O   UNL     1       5.939  32.031  61.486  1.00  0.00    -0.342 OA
BRANCH  12  13
HETATM   13  C   UNL     1       6.097  32.548  62.750  1.00  0.00     0.075 A 
HETATM   14  C   UNL     1       7.412  32.658  63.231  1.00  0.00    -0.028 A 
HETATM   15  C   UNL     1       7.637  33.197  64.510  1.00  0.00     0.016 A 
HETATM   16  C   UNL     1       8.579  32.193  62.404  1.00  0.00     0.051 C 
HETATM   17  C   UNL     1       6.574  33.638  65.305  1.00  0.00    -0.061 A 
HETATM   18  C   UNL     1       6.818  34.173  66.686  1.00  0.00     0.048 C 
HETATM   19  C   UNL     1       5.271  33.523  64.816  1.00  0.00     0.009 A 
HETATM   20  C   UNL     1       5.035  32.993  63.545  1.00  0.00     0.038 A 
ENDBRANCH  12  13
ENDBRANCH  11  12
ENDBRANCH   8  11
ENDBRANCH   1   7
BRANCH   4  21
HETATM   21  N   UNL     1       6.960  27.325  57.366  1.00  0.00    -0.378 N 
HETATM   22  C   UNL     1       5.941  26.672  56.524  1.00  0.00     0.150 C 
HETATM   23  C   UNL     1       6.046  25.141  56.686  1.00  0.00     0.255 C 
HETATM   24  N   UNL     1       7.475  24.644  56.425  1.00  0.00    -0.064 N 
HETATM   25  H   UNL     1       7.667  24.808  55.430  1.00  0.00     0.280 HD
HETATM   26  C   UNL     1       8.504  25.431  57.239  1.00  0.00     0.255 C 
HETATM   27  C   UNL     1       8.341  26.951  57.032  1.00  0.00     0.150 C 
BRANCH  24  28
HETATM   28  C   UNL     1       7.620  23.160  56.675  1.00  0.00     0.273 C 
BRANCH  28  29
HETATM   29  C   UNL     1       7.787  22.357  55.416  1.00  0.00    -0.033 A 
HETATM   30  C   UNL     1       8.129  20.998  55.480  1.00  0.00     0.009 A 
HETATM   31  C   UNL     1       8.307  20.259  54.308  1.00  0.00     0.001 A 
HETATM   32  C   UNL     1       8.150  20.871  53.066  1.00  0.00     0.000 A 
HETATM   33  C   UNL     1       7.807  22.218  52.991  1.00  0.00     0.001 A 
HETATM   34  C   UNL     1       7.625  22.960  54.159  1.00  0.00     0.009 A 
ENDBRANCH  28  29
ENDBRANCH  24  28
ENDBRANCH   4  21
TORSDOF 7
ENDMDL
MODEL 2
REMARK VINA RESULT:     -10.4      3.572     10.282
REMARK  7 active torsions:
REMARK  status: ('A' for Active; 'I' for Inactive)
REMARK    1  A    between atoms: C_6  and  O_7 
REMARK    2  A    between atoms: O_7  and  C_8 
REMARK    3  A    between atoms: C_8  and  C_9 
REMARK       I    between atoms: C_9  and  N_10 
REMARK    4  A    between atoms: N_10  and  C_11 
REMARK    5  A    between atoms: C_14  and  N_15 
REMARK    6  A    between atoms: N_18  and  C_20 
REMARK    7  A    between atoms: C_20  and  C_21 
ROOT
HETATM    1  C   UNL     1       6.388  28.227  53.595  1.00  0.00     0.034 A 
HETATM    2  C   UNL     1       5.428  28.908  54.338  1.00  0.00     0.032 A 
HETATM    3  C   UNL     1       5.761  29.454  55.582  1.00  0.00     0.031 A 
HETATM    4  C   UNL     1       7.059  29.355  56.102  1.00  0.00     0.030 A 
HETATM    5  C   UNL     1       8.005  28.641  55.361  1.00  0.00     0.031 A 
HETATM    6  C   UNL     1       7.666  28.057  54.132  1.00  0.00     0.032 A 
ENDROOT
BRANCH   1   7
HETATM    7  N   UNL     1       6.109  27.645  52.351  1.00  0.00    -0.325 N 
HETATM    8  C   UNL     1       5.508  26.448  52.048  1.00  0.00     0.246 C 
HETATM    9  O   UNL     1       5.604  26.019  50.896  1.00  0.00    -0.271 OA
HETATM   10  H   UNL     1       6.389  28.156  51.521  1.00  0.00     0.169 HD
BRANCH   8  11
HETATM   11  C   UNL     1       4.610  25.764  53.083  1.00  0.00     0.278 C 
BRANCH  11  12
HETATM   12  O   UNL     1       5.122  24.507  53.500  1.00  0.00    -0.342 OA
BRANCH  12  13
HETATM   13  C   UNL     1       6.035  24.565  54.526  1.00  0.00     0.075 A 
HETATM   14  C   UNL     1       7.283  23.960  54.300  1.00  0.00    -0.028 A 
HETATM   15  C   UNL     1       8.264  24.004  55.307  1.00  0.00     0.016 A 
HETATM   16  C   UNL     1       7.576  23.254  53.005  1.00  0.00     0.051 C 
HETATM   17  C   UNL     1       8.022  24.652  56.524  1.00  0.00    -0.061 A 
HETATM   18  C   UNL     1       9.058  24.657  57.608  1.00  0.00     0.048 C 
HETATM   19  C   UNL     1       6.778  25.248  56.735  1.00  0.00     0.009 A 
HETATM   20  C   UNL     1       5.797  25.216  55.742  1.00  0.00     0.038 A 
ENDBRANCH  12  13
ENDBRANCH  11  12
ENDBRANCH   8  11
ENDBRANCH   1   7
BRANCH   4  21
HETATM   21  N   UNL     1       7.333  29.979  57.321  1.00  0.00    -0.378 N 
HETATM   22  C   UNL     1       6.256  30.871  57.789  1.00  0.00     0.150 C 
HETATM   23  C   UNL     1       6.826  31.860  58.828  1.00  0.00     0.255 C 
HETATM   24  N   UNL     1       7.557  31.127  59.962  1.00  0.00    -0.064 N 
HETATM   25  H   UNL     1       6.846  30.597  60.478  1.00  0.00     0.280 HD
HETATM   26  C   UNL     1       8.584  30.130  59.419  1.00  0.00     0.255 C 
HETATM   27  C   UNL     1       7.949  29.175  58.386  1.00  0.00     0.150 C 
BRANCH  24  28
HETATM   28  C   UNL     1       8.206  32.082  60.937  1.00  0.00     0.273 C 
BRANCH  28  29
HETATM   29  C   UNL     1       7.349  32.389  62.132  1.00  0.00    -0.033 A 
HETATM   30  C   UNL     1       5.949  32.356  62.031  1.00  0.00     0.009 A 
HETATM   31  C   UNL     1       5.155  32.665  63.138  1.00  0.00     0.001 A 
HETATM   32  C   UNL     1       5.749  33.013  64.349  1.00  0.00     0.000 A 
HETATM   33  C   UNL     1       7.137  33.046  64.461  1.00  0.00     0.001 A 
HETATM   34  C   UNL     1       7.935  32.735  63.359  1.00  0.00     0.009 A 
ENDBRANCH  28  29
ENDBRANCH  24  28
ENDBRANCH   4  21
TORSDOF 7
ENDMDL
MODEL 3
REMARK VINA RESULT:     -10.2      3.578     10.937
REMARK  7 active torsions:
REMARK  status: ('A' for Active; 'I' for Inactive)
REMARK    1  A    between atoms: C_6  and  O_7 
REMARK    2  A    between atoms: O_7  and  C_8 
REMARK    3  A    between atoms: C_8  and  C_9 
REMARK       I    between atoms: C_9  and  N_10 
REMARK    4  A    between atoms: N_10  and  C_11 
REMARK    5  A    between atoms: C_14  and  N_15 
REMARK    6  A    between atoms: N_18  and  C_20 
REMARK    7  A    between atoms: C_20  and  C_21 
ROOT
HETATM    1  C   UNL     1       5.488  27.818  53.561  1.00  0.00     0.034 A 
HETATM    2  C   UNL     1       4.622  28.213  54.577  1.00  0.00     0.032 A 
HETATM    3  C   UNL     1       5.128  28.813  55.735  1.00  0.00     0.031 A 
HETATM    4  C   UNL     1       6.499  29.052  55.898  1.00  0.00     0.030 A 
HETATM    5  C   UNL     1       7.361  28.620  54.884  1.00  0.00     0.031 A 
HETATM    6  C   UNL     1       6.863  27.982  53.740  1.00  0.00     0.032 A 
ENDROOT
BRANCH   1   7
HETATM    7  N   UNL     1       5.041  27.198  52.386  1.00  0.00    -0.325 N 
HETATM    8  C   UNL     1       5.227  25.913  51.937  1.00  0.00     0.246 C 
HETATM    9  O   UNL     1       4.971  25.663  50.756  1.00  0.00    -0.271 OA
HETATM   10  H   UNL     1       4.500  27.758  51.738  1.00  0.00     0.169 HD
BRANCH   8  11
HETATM   11  C   UNL     1       5.585  24.804  52.929  1.00  0.00     0.278 C 
BRANCH  11  12
HETATM   12  O   UNL     1       6.986  24.665  53.107  1.00  0.00    -0.342 OA
BRANCH  12  13
HETATM   13  C   UNL     1       7.377  23.518  53.758  1.00  0.00     0.075 A 
HETATM   14  C   UNL     1       7.507  23.594  55.154  1.00  0.00    -0.028 A 
HETATM   15  C   UNL     1       7.887  22.448  55.876  1.00  0.00     0.016 A 
HETATM   16  C   UNL     1       7.263  24.886  55.884  1.00  0.00     0.051 C 
HETATM   17  C   UNL     1       8.122  21.231  55.227  1.00  0.00    -0.061 A 
HETATM   18  C   UNL     1       8.568  20.024  55.998  1.00  0.00     0.048 C 
HETATM   19  C   UNL     1       7.990  21.169  53.838  1.00  0.00     0.009 A 
HETATM   20  C   UNL     1       7.610  22.299  53.110  1.00  0.00     0.038 A 
ENDBRANCH  12  13
ENDBRANCH  11  12
ENDBRANCH   8  11
ENDBRANCH   1   7
BRANCH   4  21
HETATM   21  N   UNL     1       6.924  29.711  57.054  1.00  0.00    -0.378 N 
HETATM   22  C   UNL     1       5.921  30.634  57.616  1.00  0.00     0.150 C 
HETATM   23  C   UNL     1       6.622  31.647  58.545  1.00  0.00     0.255 C 
HETATM   24  N   UNL     1       7.476  30.941  59.608  1.00  0.00    -0.064 N 
HETATM   25  H   UNL     1       6.826  30.439  60.223  1.00  0.00     0.280 HD
HETATM   26  C   UNL     1       8.419  29.912  58.981  1.00  0.00     0.255 C 
HETATM   27  C   UNL     1       7.655  28.934  58.064  1.00  0.00     0.150 C 
BRANCH  24  28
HETATM   28  C   UNL     1       8.247  31.918  60.465  1.00  0.00     0.273 C 
BRANCH  28  29
HETATM   29  C   UNL     1       7.548  32.267  61.748  1.00  0.00    -0.033 A 
HETATM   30  C   UNL     1       6.151  32.396  61.786  1.00  0.00     0.009 A 
HETATM   31  C   UNL     1       5.506  32.744  62.975  1.00  0.00     0.001 A 
HETATM   32  C   UNL     1       6.249  32.968  64.133  1.00  0.00     0.000 A 
HETATM   33  C   UNL     1       7.635  32.839  64.108  1.00  0.00     0.001 A 
HETATM   34  C   UNL     1       8.284  32.489  62.923  1.00  0.00     0.009 A 
ENDBRANCH  28  29
ENDBRANCH  24  28
ENDBRANCH   4  21
TORSDOF 7
ENDMDL
MODEL 4
REMARK VINA RESULT:      -9.8      2.937     11.790
REMARK  7 active torsions:
REMARK  status: ('A' for Active; 'I' for Inactive)
REMARK    1  A    between atoms: C_6  and  O_7 
REMARK    2  A    between atoms: O_7  and  C_8 
REMARK    3  A    between atoms: C_8  and  C_9 
REMARK       I    between atoms: C_9  and  N_10 
REMARK    4  A    between atoms: N_10  and  C_11 
REMARK    5  A    between atoms: C_14  and  N_15 
REMARK    6  A    between atoms: N_18  and  C_20 
REMARK    7  A    between atoms: C_20  and  C_21 
ROOT
HETATM    1  C   UNL     1       7.628  29.597  56.400  1.00  0.00     0.034 A 
HETATM    2  C   UNL     1       6.454  30.165  56.885  1.00  0.00     0.032 A 
HETATM    3  C   UNL     1       6.422  30.715  58.171  1.00  0.00     0.031 A 
HETATM    4  C   UNL     1       7.558  30.731  58.991  1.00  0.00     0.030 A 
HETATM    5  C   UNL     1       8.722  30.127  58.503  1.00  0.00     0.031 A 
HETATM    6  C   UNL     1       8.749  29.540  57.231  1.00  0.00     0.032 A 
ENDROOT
BRANCH   1   7
HETATM    7  N   UNL     1       7.717  29.018  55.127  1.00  0.00    -0.325 N 
HETATM    8  C   UNL     1       7.634  27.701  54.745  1.00  0.00     0.246 C 
HETATM    9  O   UNL     1       8.004  27.395  53.608  1.00  0.00    -0.271 OA
HETATM   10  H   UNL     1       7.876  29.637  54.340  1.00  0.00     0.169 HD
BRANCH   8  11
HETATM   11  C   UNL     1       6.946  26.685  55.661  1.00  0.00     0.278 C 
BRANCH  11  12
HETATM   12  O   UNL     1       6.150  25.755  54.941  1.00  0.00    -0.342 OA
BRANCH  12  13
HETATM   13  C   UNL     1       6.771  24.564  54.649  1.00  0.00     0.075 A 
HETATM   14  C   UNL     1       6.714  24.129  53.315  1.00  0.00    -0.028 A 
HETATM   15  C   UNL     1       7.347  22.927  52.953  1.00  0.00     0.016 A 
HETATM   16  C   UNL     1       5.973  24.922  52.274  1.00  0.00     0.051 C 
HETATM   17  C   UNL     1       8.044  22.164  53.897  1.00  0.00    -0.061 A 
HETATM   18  C   UNL     1       8.680  20.862  53.513  1.00  0.00     0.048 C 
HETATM   19  C   UNL     1       8.092  22.608  55.220  1.00  0.00     0.009 A 
HETATM   20  C   UNL     1       7.471  23.803  55.592  1.00  0.00     0.038 A 
ENDBRANCH  12  13
ENDBRANCH  11  12
ENDBRANCH   8  11
ENDBRANCH   1   7
BRANCH   4  21
HETATM   21  N   UNL     1       7.466  31.352  60.239  1.00  0.00    -0.378 N 
HETATM   22  C   UNL     1       8.748  31.889  60.733  1.00  0.00     0.150 C 
HETATM   23  C   UNL     1       8.663  32.092  62.260  1.00  0.00     0.255 C 
HETATM   24  N   UNL     1       7.446  32.942  62.649  1.00  0.00    -0.064 N 
HETATM   25  H   UNL     1       7.612  33.884  62.276  1.00  0.00     0.280 HD
HETATM   26  C   UNL     1       6.159  32.408  62.017  1.00  0.00     0.255 C 
HETATM   27  C   UNL     1       6.314  32.227  60.493  1.00  0.00     0.150 C 
BRANCH  24  28
HETATM   28  C   UNL     1       7.291  33.070  64.147  1.00  0.00     0.273 C 
BRANCH  28  29
HETATM   29  C   UNL     1       6.225  34.047  64.555  1.00  0.00    -0.033 A 
HETATM   30  C   UNL     1       6.078  35.265  63.876  1.00  0.00     0.009 A 
HETATM   31  C   UNL     1       5.101  36.181  64.274  1.00  0.00     0.001 A 
HETATM   32  C   UNL     1       4.268  35.890  65.352  1.00  0.00     0.000 A 
HETATM   33  C   UNL     1       4.403  34.683  66.031  1.00  0.00     0.001 A 
HETATM   34  C   UNL     1       5.375  33.763  65.636  1.00  0.00     0.009 A 
ENDBRANCH  28  29
ENDBRANCH  24  28
ENDBRANCH   4  21
TORSDOF 7
ENDMDL
MODEL 5
REMARK VINA RESULT:      -9.6      3.160     11.285
REMARK  7 active torsions:
REMARK  status: ('A' for Active; 'I' for Inactive)
REMARK    1  A    between atoms: C_6  and  O_7 
REMARK    2  A    between atoms: O_7  and  C_8 
REMARK    3  A    between atoms: C_8  and  C_9 
REMARK       I    between atoms: C_9  and  N_10 
REMARK    4  A    between atoms: N_10  and  C_11 
REMARK    5  A    between atoms: C_14  and  N_15 
REMARK    6  A    between atoms: N_18  and  C_20 
REMARK    7  A    between atoms: C_20  and  C_21 
ROOT
HETATM    1  C   UNL     1       4.568  28.343  54.723  1.00  0.00     0.034 A 
HETATM    2  C   UNL     1       4.774  27.908  56.030  1.00  0.00     0.032 A 
HETATM    3  C   UNL     1       4.970  28.839  57.055  1.00  0.00     0.031 A 
HETATM    4  C   UNL     1       4.945  30.218  56.808  1.00  0.00     0.030 A 
HETATM    5  C   UNL     1       4.770  30.640  55.486  1.00  0.00     0.031 A 
HETATM    6  C   UNL     1       4.612  29.711  54.449  1.00  0.00     0.032 A 
ENDROOT
BRANCH   1   7
HETATM    7  N   UNL     1       4.381  27.458  53.653  1.00  0.00    -0.325 N 
HETATM    8  C   UNL     1       5.300  26.875  52.814  1.00  0.00     0.246 C 
HETATM    9  O   UNL     1       4.893  26.341  51.779  1.00  0.00    -0.271 OA
HETATM   10  H   UNL     1       3.430  27.189  53.427  1.00  0.00     0.169 HD
BRANCH   8  11
HETATM   11  C   UNL     1       6.763  26.760  53.250  1.00  0.00     0.278 C 
BRANCH  11  12
HETATM   12  O   UNL     1       6.926  25.940  54.397  1.00  0.00    -0.342 OA
BRANCH  12  13
HETATM   13  C   UNL     1       7.298  24.643  54.134  1.00  0.00     0.075 A 
HETATM   14  C   UNL     1       7.344  23.762  55.227  1.00  0.00    -0.028 A 
HETATM   15  C   UNL     1       7.701  22.418  55.017  1.00  0.00     0.016 A 
HETATM   16  C   UNL     1       7.031  24.239  56.619  1.00  0.00     0.051 C 
HETATM   17  C   UNL     1       7.998  21.942  53.734  1.00  0.00    -0.061 A 
HETATM   18  C   UNL     1       8.419  20.518  53.524  1.00  0.00     0.048 C 
HETATM   19  C   UNL     1       7.950  22.828  52.657  1.00  0.00     0.009 A 
HETATM   20  C   UNL     1       7.593  24.165  52.853  1.00  0.00     0.038 A 
ENDBRANCH  12  13
ENDBRANCH  11  12
ENDBRANCH   8  11
ENDBRANCH   1   7
BRANCH   4  21
HETATM   21  N   UNL     1       5.087  31.088  57.892  1.00  0.00    -0.378 N 
HETATM   22  C   UNL     1       3.950  31.062  58.830  1.00  0.00     0.150 C 
HETATM   23  C   UNL     1       3.954  32.352  59.676  1.00  0.00     0.255 C 
HETATM   24  N   UNL     1       5.312  32.576  60.357  1.00  0.00    -0.064 N 
HETATM   25  H   UNL     1       5.426  31.822  61.043  1.00  0.00     0.280 HD
HETATM   26  C   UNL     1       6.467  32.480  59.357  1.00  0.00     0.255 C 
HETATM   27  C   UNL     1       6.401  31.169  58.546  1.00  0.00     0.150 C 
BRANCH  24  28
HETATM   28  C   UNL     1       5.367  33.885  61.110  1.00  0.00     0.273 C 
BRANCH  28  29
HETATM   29  C   UNL     1       6.059  33.780  62.439  1.00  0.00    -0.033 A 
HETATM   30  C   UNL     1       7.213  32.995  62.580  1.00  0.00     0.009 A 
HETATM   31  C   UNL     1       7.841  32.880  63.823  1.00  0.00     0.001 A 
HETATM   32  C   UNL     1       7.322  33.544  64.932  1.00  0.00     0.000 A 
HETATM   33  C   UNL     1       6.179  34.329  64.802  1.00  0.00     0.001 A 
HETATM   34  C   UNL     1       5.550  34.449  63.563  1.00  0.00     0.009 A 
ENDBRANCH  28  29
ENDBRANCH  24  28
ENDBRANCH   4  21
TORSDOF 7
ENDMDL
MODEL 6
REMARK VINA RESULT:      -9.6      6.576     10.926
REMARK  7 active torsions:
REMARK  status: ('A' for Active; 'I' for Inactive)
REMARK    1  A    between atoms: C_6  and  O_7 
REMARK    2  A    between atoms: O_7  and  C_8 
REMARK    3  A    between atoms: C_8  and  C_9 
REMARK       I    between atoms: C_9  and  N_10 
REMARK    4  A    between atoms: N_10  and  C_11 
REMARK    5  A    between atoms: C_14  and  N_15 
REMARK    6  A    between atoms: N_18  and  C_20 
REMARK    7  A    between atoms: C_20  and  C_21 
ROOT
HETATM    1  C   UNL     1       6.834  27.311  54.994  1.00  0.00     0.034 A 
HETATM    2  C   UNL     1       7.510  27.067  53.802  1.00  0.00     0.032 A 
HETATM    3  C   UNL     1       6.833  27.155  52.582  1.00  0.00     0.031 A 
HETATM    4  C   UNL     1       5.478  27.509  52.519  1.00  0.00     0.030 A 
HETATM    5  C   UNL     1       4.803  27.719  53.725  1.00  0.00     0.031 A 
HETATM    6  C   UNL     1       5.467  27.593  54.953  1.00  0.00     0.032 A 
ENDROOT
BRANCH   1   7
HETATM    7  N   UNL     1       7.455  27.222  56.247  1.00  0.00    -0.325 N 
HETATM    8  C   UNL     1       7.304  26.292  57.247  1.00  0.00     0.246 C 
HETATM    9  O   UNL     1       7.752  26.557  58.366  1.00  0.00    -0.271 OA
HETATM   10  H   UNL     1       8.121  27.947  56.493  1.00  0.00     0.169 HD
BRANCH   8  11
HETATM   11  C   UNL     1       6.740  24.907  56.919  1.00  0.00     0.278 C 
BRANCH  11  12
HETATM   12  O   UNL     1       7.717  23.883  57.026  1.00  0.00    -0.342 OA
BRANCH  12  13
HETATM   13  C   UNL     1       7.842  23.082  55.915  1.00  0.00     0.075 A 
HETATM   14  C   UNL     1       8.150  21.730  56.139  1.00  0.00    -0.028 A 
HETATM   15  C   UNL     1       8.272  20.859  55.042  1.00  0.00     0.016 A 
HETATM   16  C   UNL     1       8.366  21.207  57.532  1.00  0.00     0.051 C 
HETATM   17  C   UNL     1       8.077  21.315  53.732  1.00  0.00    -0.061 A 
HETATM   18  C   UNL     1       8.251  20.389  52.565  1.00  0.00     0.048 C 
HETATM   19  C   UNL     1       7.772  22.661  53.524  1.00  0.00     0.009 A 
HETATM   20  C   UNL     1       7.644  23.535  54.606  1.00  0.00     0.038 A 
ENDBRANCH  12  13
ENDBRANCH  11  12
ENDBRANCH   8  11
ENDBRANCH   1   7
BRANCH   4  21
HETATM   21  N   UNL     1       4.885  27.637  51.261  1.00  0.00    -0.378 N 
HETATM   22  C   UNL     1       4.782  26.367  50.518  1.00  0.00     0.150 C 
HETATM   23  C   UNL     1       4.594  26.666  49.016  1.00  0.00     0.255 C 
HETATM   24  N   UNL     1       3.416  27.621  48.774  1.00  0.00    -0.064 N 
HETATM   25  H   UNL     1       2.565  27.113  49.041  1.00  0.00     0.280 HD
HETATM   26  C   UNL     1       3.513  28.870  49.652  1.00  0.00     0.255 C 
HETATM   27  C   UNL     1       3.702  28.499  51.138  1.00  0.00     0.150 C 
BRANCH  24  28
HETATM   28  C   UNL     1       3.278  28.003  47.318  1.00  0.00     0.273 C 
BRANCH  28  29
HETATM   29  C   UNL     1       1.867  28.331  46.919  1.00  0.00    -0.033 A 
HETATM   30  C   UNL     1       0.936  27.307  46.687  1.00  0.00     0.009 A 
HETATM   31  C   UNL     1      -0.368  27.616  46.293  1.00  0.00     0.001 A 
HETATM   32  C   UNL     1      -0.751  28.944  46.125  1.00  0.00     0.000 A 
HETATM   33  C   UNL     1       0.164  29.968  46.355  1.00  0.00     0.001 A 
HETATM   34  C   UNL     1       1.467  29.666  46.752  1.00  0.00     0.009 A 
ENDBRANCH  28  29
ENDBRANCH  24  28
ENDBRANCH   4  21
TORSDOF 7
ENDMDL
MODEL 7
REMARK VINA RESULT:      -9.6      3.078     11.385
REMARK  7 active torsions:
REMARK  status: ('A' for Active; 'I' for Inactive)
REMARK    1  A    between atoms: C_6  and  O_7 
REMARK    2  A    between atoms: O_7  and  C_8 
REMARK    3  A    between atoms: C_8  and  C_9 
REMARK       I    between atoms: C_9  and  N_10 
REMARK    4  A    between atoms: N_10  and  C_11 
REMARK    5  A    between atoms: C_14  and  N_15 
REMARK    6  A    between atoms: N_18  and  C_20 
REMARK    7  A    between atoms: C_20  and  C_21 
ROOT
HETATM    1  C   UNL     1       5.364  28.726  55.252  1.00  0.00     0.034 A 
HETATM    2  C   UNL     1       6.719  28.998  55.422  1.00  0.00     0.032 A 
HETATM    3  C   UNL     1       7.164  29.649  56.577  1.00  0.00     0.031 A 
HETATM    4  C   UNL     1       6.276  30.023  57.596  1.00  0.00     0.030 A 
HETATM    5  C   UNL     1       4.915  29.774  57.398  1.00  0.00     0.031 A 
HETATM    6  C   UNL     1       4.459  29.157  56.224  1.00  0.00     0.032 A 
ENDROOT
BRANCH   1   7
HETATM    7  N   UNL     1       4.858  28.092  54.110  1.00  0.00    -0.325 N 
HETATM    8  C   UNL     1       5.039  26.808  53.657  1.00  0.00     0.246 C 
HETATM    9  O   UNL     1       4.717  26.545  52.495  1.00  0.00    -0.271 OA
HETATM   10  H   UNL     1       4.268  28.638  53.493  1.00  0.00     0.169 HD
BRANCH   8  11
HETATM   11  C   UNL     1       5.478  25.711  54.631  1.00  0.00     0.278 C 
BRANCH  11  12
HETATM   12  O   UNL     1       6.882  25.505  54.622  1.00  0.00    -0.342 OA
BRANCH  12  13
HETATM   13  C   UNL     1       7.278  24.215  54.358  1.00  0.00     0.075 A 
HETATM   14  C   UNL     1       7.763  23.951  53.067  1.00  0.00    -0.028 A 
HETATM   15  C   UNL     1       8.199  22.654  52.745  1.00  0.00     0.016 A 
HETATM   16  C   UNL     1       7.808  25.032  52.022  1.00  0.00     0.051 C 
HETATM   17  C   UNL     1       8.169  21.625  53.694  1.00  0.00    -0.061 A 
HETATM   18  C   UNL     1       8.596  20.234  53.330  1.00  0.00     0.048 C 
HETATM   19  C   UNL     1       7.684  21.901  54.973  1.00  0.00     0.009 A 
HETATM   20  C   UNL     1       7.252  23.186  55.307  1.00  0.00     0.038 A 
ENDBRANCH  12  13
ENDBRANCH  11  12
ENDBRANCH   8  11
ENDBRANCH   1   7
BRANCH   4  21
HETATM   21  N   UNL     1       6.801  30.614  58.747  1.00  0.00    -0.378 N 
HETATM   22  C   UNL     1       8.274  30.678  58.766  1.00  0.00     0.150 C 
HETATM   23  C   UNL     1       8.761  30.867  60.218  1.00  0.00     0.255 C 
HETATM   24  N   UNL     1       8.082  32.070  60.887  1.00  0.00    -0.064 N 
HETATM   25  H   UNL     1       8.415  32.908  60.396  1.00  0.00     0.280 HD
HETATM   26  C   UNL     1       6.560  32.013  60.740  1.00  0.00     0.255 C 
HETATM   27  C   UNL     1       6.144  31.821  59.267  1.00  0.00     0.150 C 
BRANCH  24  28
HETATM   28  C   UNL     1       8.472  32.213  62.340  1.00  0.00     0.273 C 
BRANCH  28  29
HETATM   29  C   UNL     1       7.543  33.096  63.124  1.00  0.00    -0.033 A 
HETATM   30  C   UNL     1       6.739  34.042  62.469  1.00  0.00     0.009 A 
HETATM   31  C   UNL     1       5.894  34.878  63.202  1.00  0.00     0.001 A 
HETATM   32  C   UNL     1       5.847  34.780  64.591  1.00  0.00     0.000 A 
HETATM   33  C   UNL     1       6.637  33.842  65.250  1.00  0.00     0.001 A 
HETATM   34  C   UNL     1       7.481  33.003  64.523  1.00  0.00     0.009 A 
ENDBRANCH  28  29
ENDBRANCH  24  28
ENDBRANCH   4  21
TORSDOF 7
ENDMDL
MODEL 8
REMARK VINA RESULT:      -9.4      2.124      3.777
REMARK  7 active torsions:
REMARK  status: ('A' for Active; 'I' for Inactive)
REMARK    1  A    between atoms: C_6  and  O_7 
REMARK    2  A    between atoms: O_7  and  C_8 
REMARK    3  A    between atoms: C_8  and  C_9 
REMARK       I    between atoms: C_9  and  N_10 
REMARK    4  A    between atoms: N_10  and  C_11 
REMARK    5  A    between atoms: C_14  and  N_15 
REMARK    6  A    between atoms: N_18  and  C_20 
REMARK    7  A    between atoms: C_20  and  C_21 
ROOT
HETATM    1  C   UNL     1       3.580  33.378  59.211  1.00  0.00     0.034 A 
HETATM    2  C   UNL     1       4.439  33.750  58.181  1.00  0.00     0.032 A 
HETATM    3  C   UNL     1       5.038  32.772  57.380  1.00  0.00     0.031 A 
HETATM    4  C   UNL     1       4.779  31.408  57.572  1.00  0.00     0.030 A 
HETATM    5  C   UNL     1       3.940  31.047  58.631  1.00  0.00     0.031 A 
HETATM    6  C   UNL     1       3.369  32.021  59.461  1.00  0.00     0.032 A 
ENDROOT
BRANCH   1   7
HETATM    7  N   UNL     1       2.963  34.312  60.055  1.00  0.00    -0.325 N 
HETATM    8  C   UNL     1       3.414  34.889  61.217  1.00  0.00     0.246 C 
HETATM    9  O   UNL     1       2.601  35.479  61.932  1.00  0.00    -0.271 OA
HETATM   10  H   UNL     1       2.033  34.628  59.804  1.00  0.00     0.169 HD
BRANCH   8  11
HETATM   11  C   UNL     1       4.915  34.927  61.516  1.00  0.00     0.278 C 
BRANCH  11  12
HETATM   12  O   UNL     1       5.273  34.099  62.613  1.00  0.00    -0.342 OA
BRANCH  12  13
HETATM   13  C   UNL     1       6.300  33.220  62.365  1.00  0.00     0.075 A 
HETATM   14  C   UNL     1       7.221  33.011  63.405  1.00  0.00    -0.028 A 
HETATM   15  C   UNL     1       8.283  32.109  63.216  1.00  0.00     0.016 A 
HETATM   16  C   UNL     1       7.095  33.749  64.709  1.00  0.00     0.051 C 
HETATM   17  C   UNL     1       8.429  31.406  62.014  1.00  0.00    -0.061 A 
HETATM   18  C   UNL     1       9.588  30.478  61.805  1.00  0.00     0.048 C 
HETATM   19  C   UNL     1       7.508  31.624  60.989  1.00  0.00     0.009 A 
HETATM   20  C   UNL     1       6.446  32.515  61.165  1.00  0.00     0.038 A 
ENDBRANCH  12  13
ENDBRANCH  11  12
ENDBRANCH   8  11
ENDBRANCH   1   7
BRANCH   4  21
HETATM   21  N   UNL     1       5.366  30.493  56.695  1.00  0.00    -0.378 N 
HETATM   22  C   UNL     1       6.607  29.886  57.209  1.00  0.00     0.150 C 
HETATM   23  C   UNL     1       7.419  29.306  56.032  1.00  0.00     0.255 C 
HETATM   24  N   UNL     1       6.572  28.352  55.179  1.00  0.00    -0.064 N 
HETATM   25  H   UNL     1       6.361  27.538  55.767  1.00  0.00     0.280 HD
HETATM   26  C   UNL     1       5.244  28.991  54.767  1.00  0.00     0.255 C 
HETATM   27  C   UNL     1       4.487  29.551  55.989  1.00  0.00     0.150 C 
BRANCH  24  28
HETATM   28  C   UNL     1       7.320  27.850  53.965  1.00  0.00     0.273 C 
BRANCH  28  29
HETATM   29  C   UNL     1       7.335  26.352  53.850  1.00  0.00    -0.033 A 
HETATM   30  C   UNL     1       6.840  25.553  54.892  1.00  0.00     0.009 A 
HETATM   31  C   UNL     1       6.876  24.161  54.792  1.00  0.00     0.001 A 
HETATM   32  C   UNL     1       7.409  23.556  53.655  1.00  0.00     0.000 A 
HETATM   33  C   UNL     1       7.899  24.339  52.614  1.00  0.00     0.001 A 
HETATM   34  C   UNL     1       7.863  25.730  52.708  1.00  0.00     0.009 A 
ENDBRANCH  28  29
ENDBRANCH  24  28
ENDBRANCH   4  21
TORSDOF 7
ENDMDL
MODEL 9
REMARK VINA RESULT:      -9.3      1.249      2.045
REMARK  7 active torsions:
REMARK  status: ('A' for Active; 'I' for Inactive)
REMARK    1  A    between atoms: C_6  and  O_7 
REMARK    2  A    between atoms: O_7  and  C_8 
REMARK    3  A    between atoms: C_8  and  C_9 
REMARK       I    between atoms: C_9  and  N_10 
REMARK    4  A    between atoms: N_10  and  C_11 
REMARK    5  A    between atoms: C_14  and  N_15 
REMARK    6  A    between atoms: N_18  and  C_20 
REMARK    7  A    between atoms: C_20  and  C_21 
ROOT
HETATM    1  C   UNL     1       4.415  31.786  58.139  1.00  0.00     0.034 A 
HETATM    2  C   UNL     1       5.770  31.473  58.082  1.00  0.00     0.032 A 
HETATM    3  C   UNL     1       6.199  30.343  57.378  1.00  0.00     0.031 A 
HETATM    4  C   UNL     1       5.295  29.515  56.700  1.00  0.00     0.030 A 
HETATM    5  C   UNL     1       3.934  29.822  56.792  1.00  0.00     0.031 A 
HETATM    6  C   UNL     1       3.495  30.931  57.529  1.00  0.00     0.032 A 
ENDROOT
BRANCH   1   7
HETATM    7  N   UNL     1       3.924  32.896  58.840  1.00  0.00    -0.325 N 
HETATM    8  C   UNL     1       4.333  33.441  60.033  1.00  0.00     0.246 C 
HETATM    9  O   UNL     1       3.591  34.252  60.592  1.00  0.00    -0.271 OA
HETATM   10  H   UNL     1       3.138  33.394  58.439  1.00  0.00     0.169 HD
BRANCH   8  11
HETATM   11  C   UNL     1       5.746  33.161  60.554  1.00  0.00     0.278 C 
BRANCH  11  12
HETATM   12  O   UNL     1       5.763  32.176  61.576  1.00  0.00    -0.342 OA
BRANCH  12  13
HETATM   13  C   UNL     1       5.962  32.662  62.846  1.00  0.00     0.075 A 
HETATM   14  C   UNL     1       7.288  32.710  63.306  1.00  0.00    -0.028 A 
HETATM   15  C   UNL     1       7.555  33.215  64.591  1.00  0.00     0.016 A 
HETATM   16  C   UNL     1       8.422  32.216  62.451  1.00  0.00     0.051 C 
HETATM   17  C   UNL     1       6.523  33.682  65.413  1.00  0.00    -0.061 A 
HETATM   18  C   UNL     1       6.811  34.180  66.798  1.00  0.00     0.048 C 
HETATM   19  C   UNL     1       5.209  33.628  64.944  1.00  0.00     0.009 A 
HETATM   20  C   UNL     1       4.931  33.132  63.667  1.00  0.00     0.038 A 
ENDBRANCH  12  13
ENDBRANCH  11  12
ENDBRANCH   8  11
ENDBRANCH   1   7
BRANCH   4  21
HETATM   21  N   UNL     1       5.803  28.439  55.967  1.00  0.00    -0.378 N 
HETATM   22  C   UNL     1       6.820  27.654  56.690  1.00  0.00     0.150 C 
HETATM   23  C   UNL     1       7.654  26.841  55.678  1.00  0.00     0.255 C 
HETATM   24  N   UNL     1       6.759  25.996  54.760  1.00  0.00    -0.064 N 
HETATM   25  H   UNL     1       6.315  25.286  55.352  1.00  0.00     0.280 HD
HETATM   26  C   UNL     1       5.651  26.838  54.123  1.00  0.00     0.255 C 
HETATM   27  C   UNL     1       4.860  27.625  55.189  1.00  0.00     0.150 C 
BRANCH  24  28
HETATM   28  C   UNL     1       7.552  25.269  53.699  1.00  0.00     0.273 C 
BRANCH  28  29
HETATM   29  C   UNL     1       7.641  23.787  53.931  1.00  0.00    -0.033 A 
HETATM   30  C   UNL     1       7.546  23.263  55.229  1.00  0.00     0.009 A 
HETATM   31  C   UNL     1       7.653  21.887  55.445  1.00  0.00     0.001 A 
HETATM   32  C   UNL     1       7.858  21.026  54.369  1.00  0.00     0.000 A 
HETATM   33  C   UNL     1       7.950  21.534  53.076  1.00  0.00     0.001 A 
HETATM   34  C   UNL     1       7.841  22.908  52.855  1.00  0.00     0.009 A 
ENDBRANCH  28  29
ENDBRANCH  24  28
ENDBRANCH   4  21
TORSDOF 7
ENDMDL
MODEL 10
REMARK VINA RESULT:      -9.3      1.380      2.399
REMARK  7 active torsions:
REMARK  status: ('A' for Active; 'I' for Inactive)
REMARK    1  A    between atoms: C_6  and  O_7 
REMARK    2  A    between atoms: O_7  and  C_8 
REMARK    3  A    between atoms: C_8  and  C_9 
REMARK       I    between atoms: C_9  and  N_10 
REMARK    4  A    between atoms: N_10  and  C_11 
REMARK    5  A    between atoms: C_14  and  N_15 
REMARK    6  A    between atoms: N_18  and  C_20 
REMARK    7  A    between atoms: C_20  and  C_21 
ROOT
HETATM    1  C   UNL     1       4.967  31.584  57.601  1.00  0.00     0.034 A 
HETATM    2  C   UNL     1       6.295  31.207  57.779  1.00  0.00     0.032 A 
HETATM    3  C   UNL     1       6.673  29.870  57.615  1.00  0.00     0.031 A 
HETATM    4  C   UNL     1       5.744  28.886  57.250  1.00  0.00     0.030 A 
HETATM    5  C   UNL     1       4.408  29.272  57.106  1.00  0.00     0.031 A 
HETATM    6  C   UNL     1       4.017  30.603  57.308  1.00  0.00     0.032 A 
ENDROOT
BRANCH   1   7
HETATM    7  N   UNL     1       4.527  32.904  57.767  1.00  0.00    -0.325 N 
HETATM    8  C   UNL     1       3.992  33.528  58.868  1.00  0.00     0.246 C 
HETATM    9  O   UNL     1       3.432  34.615  58.710  1.00  0.00    -0.271 OA
HETATM   10  H   UNL     1       4.591  33.523  56.966  1.00  0.00     0.169 HD
BRANCH   8  11
HETATM   11  C   UNL     1       4.239  32.951  60.264  1.00  0.00     0.278 C 
BRANCH  11  12
HETATM   12  O   UNL     1       5.294  33.610  60.947  1.00  0.00    -0.342 OA
BRANCH  12  13
HETATM   13  C   UNL     1       6.408  32.838  61.176  1.00  0.00     0.075 A 
HETATM   14  C   UNL     1       6.423  32.081  62.358  1.00  0.00    -0.028 A 
HETATM   15  C   UNL     1       7.528  31.257  62.638  1.00  0.00     0.016 A 
HETATM   16  C   UNL     1       5.282  32.150  63.335  1.00  0.00     0.051 C 
HETATM   17  C   UNL     1       8.607  31.170  61.750  1.00  0.00    -0.061 A 
HETATM   18  C   UNL     1       9.801  30.323  62.075  1.00  0.00     0.048 C 
HETATM   19  C   UNL     1       8.580  31.929  60.579  1.00  0.00     0.009 A 
HETATM   20  C   UNL     1       7.486  32.747  60.287  1.00  0.00     0.038 A 
ENDBRANCH  12  13
ENDBRANCH  11  12
ENDBRANCH   8  11
ENDBRANCH   1   7
BRANCH   4  21
HETATM   21  N   UNL     1       6.206  27.584  57.044  1.00  0.00    -0.378 N 
HETATM   22  C   UNL     1       5.182  26.666  56.511  1.00  0.00     0.150 C 
HETATM   23  C   UNL     1       5.610  25.208  56.783  1.00  0.00     0.255 C 
HETATM   24  N   UNL     1       7.024  24.929  56.256  1.00  0.00    -0.064 N 
HETATM   25  H   UNL     1       6.977  24.994  55.233  1.00  0.00     0.280 HD
HETATM   26  C   UNL     1       8.027  25.976  56.747  1.00  0.00     0.255 C 
HETATM   27  C   UNL     1       7.536  27.408  56.446  1.00  0.00     0.150 C 
BRANCH  24  28
HETATM   28  C   UNL     1       7.499  23.536  56.599  1.00  0.00     0.273 C 
BRANCH  28  29
HETATM   29  C   UNL     1       7.655  22.646  55.399  1.00  0.00    -0.033 A 
HETATM   30  C   UNL     1       7.755  21.254  55.552  1.00  0.00     0.009 A 
HETATM   31  C   UNL     1       7.924  20.432  54.436  1.00  0.00     0.001 A 
HETATM   32  C   UNL     1       7.998  20.990  53.162  1.00  0.00     0.000 A 
HETATM   33  C   UNL     1       7.896  22.369  52.998  1.00  0.00     0.001 A 
HETATM   34  C   UNL     1       7.725  23.195  54.109  1.00  0.00     0.009 A 
ENDBRANCH  28  29
ENDBRANCH  24  28
ENDBRANCH   4  21
TORSDOF 7
ENDMDL
