MODEL 1
REMARK VINA RESULT:      -8.5      0.000      0.000
REMARK  8 active torsions:
REMARK  status: ('A' for Active; 'I' for Inactive)
REMARK    1  A    between atoms: C_2  and  C_3 
REMARK    2  A    between atoms: C_3  and  N_4 
REMARK    3  A    between atoms: C_7  and  C_8 
REMARK       I    between atoms: C_8  and  N_9 
REMARK    4  A    between atoms: N_9  and  N_10 
REMARK       I    between atoms: N_10  and  C_11 
REMARK    5  A    between atoms: C_11  and  C_12 
REMARK    6  A    between atoms: C_15  and  O_16 
REMARK    7  A    between atoms: O_16  and  C_17 
REMARK    8  A    between atoms: C_23  and  C_24 
ROOT
HETATM    1  C   UNL     1       8.347  28.289  57.018  1.00  0.00     0.273 C 
HETATM    2  N   UNL     1       7.393  28.726  57.911  1.00  0.00    -0.263 N 
HETATM    3  O   UNL     1       9.537  28.569  57.161  1.00  0.00    -0.266 OA
HETATM    4  H   UNL     1       6.394  28.603  57.783  1.00  0.00     0.190 HD
ENDROOT
BRANCH   2   5
HETATM    5  N   UNL     1       7.834  29.539  58.969  1.00  0.00    -0.263 N 
HETATM    6  C   UNL     1       7.468  30.872  58.973  1.00  0.00     0.270 C 
HETATM    7  O   UNL     1       7.019  31.462  57.996  1.00  0.00    -0.266 OA
HETATM    8  H   UNL     1       7.886  29.042  59.861  1.00  0.00     0.190 HD
BRANCH   6   9
HETATM    9  C   UNL     1       7.606  31.550  60.295  1.00  0.00     0.033 A 
HETATM   10  C   UNL     1       8.738  31.361  61.098  1.00  0.00     0.020 A 
HETATM   11  C   UNL     1       8.786  31.922  62.375  1.00  0.00     0.038 A 
HETATM   12  C   UNL     1       7.717  32.676  62.863  1.00  0.00     0.068 A 
HETATM   13  C   UNL     1       6.618  32.920  62.039  1.00  0.00     0.038 A 
HETATM   14  C   UNL     1       6.561  32.358  60.757  1.00  0.00     0.020 A 
BRANCH  12  15
HETATM   15  O   UNL     1       7.875  33.116  64.146  1.00  0.00    -0.352 OA
BRANCH  15  16
HETATM   16  C   UNL     1       6.906  34.040  64.638  1.00  0.00     0.171 C 
HETATM   17  C   UNL     1       6.855  33.897  66.150  1.00  0.00     0.034 C 
ENDBRANCH  15  16
ENDBRANCH  12  15
ENDBRANCH   6   9
ENDBRANCH   2   5
BRANCH   1  18
HETATM   18  C   UNL     1       7.855  27.609  55.845  1.00  0.00     0.077 A 
HETATM   19  C   UNL     1       7.757  28.239  54.584  1.00  0.00     0.158 A 
HETATM   20  N   UNL     1       7.358  27.417  53.621  1.00  0.00    -0.183 NA
HETATM   21  N   UNL     1       7.222  26.231  54.244  1.00  0.00    -0.268 N 
HETATM   22  C   UNL     1       7.524  26.283  55.595  1.00  0.00     0.052 A 
BRANCH  21  23
HETATM   23  C   UNL     1       6.909  25.047  53.441  1.00  0.00     0.106 C 
HETATM   24  C   UNL     1       7.739  25.064  52.154  1.00  0.00     0.034 C 
BRANCH  23  25
HETATM   25  C   UNL     1       5.410  24.890  53.102  1.00  0.00     0.022 C 
HETATM   26  C   UNL     1       5.065  25.336  51.688  1.00  0.00     0.007 C 
ENDBRANCH  23  25
ENDBRANCH  21  23
BRANCH  22  27
HETATM   27  C   UNL     1       7.578  25.049  56.500  1.00  0.00     0.038 A 
HETATM   28  C   UNL     1       8.632  23.989  56.266  1.00  0.00     0.011 A 
HETATM   29  C   UNL     1       8.688  24.830  57.497  1.00  0.00     0.011 A 
ENDBRANCH  22  27
ENDBRANCH   1  18
TORSDOF 8
ENDMDL
MODEL 2
REMARK VINA RESULT:      -8.4      1.304      1.588
REMARK  8 active torsions:
REMARK  status: ('A' for Active; 'I' for Inactive)
REMARK    1  A    between atoms: C_2  and  C_3 
REMARK    2  A    between atoms: C_3  and  N_4 
REMARK    3  A    between atoms: C_7  and  C_8 
REMARK       I    between atoms: C_8  and  N_9 
REMARK    4  A    between atoms: N_9  and  N_10 
REMARK       I    between atoms: N_10  and  C_11 
REMARK    5  A    between atoms: C_11  and  C_12 
REMARK    6  A    between atoms: C_15  and  O_16 
REMARK    7  A    between atoms: O_16  and  C_17 
REMARK    8  A    between atoms: C_23  and  C_24 
ROOT
HETATM    1  C   UNL     1       6.731  28.107  56.919  1.00  0.00     0.273 C 
HETATM    2  N   UNL     1       7.853  28.687  57.471  1.00  0.00    -0.263 N 
HETATM    3  O   UNL     1       5.632  28.184  57.467  1.00  0.00    -0.266 OA
HETATM    4  H   UNL     1       8.793  28.570  57.107  1.00  0.00     0.190 HD
ENDROOT
BRANCH   2   5
HETATM    5  N   UNL     1       7.694  29.333  58.708  1.00  0.00    -0.263 N 
HETATM    6  C   UNL     1       8.655  30.245  59.104  1.00  0.00     0.270 C 
HETATM    7  O   UNL     1       9.765  30.335  58.592  1.00  0.00    -0.266 OA
HETATM    8  H   UNL     1       6.716  29.521  58.939  1.00  0.00     0.190 HD
BRANCH   6   9
HETATM    9  C   UNL     1       8.220  31.175  60.187  1.00  0.00     0.033 A 
HETATM   10  C   UNL     1       8.928  31.275  61.391  1.00  0.00     0.020 A 
HETATM   11  C   UNL     1       8.432  32.072  62.425  1.00  0.00     0.038 A 
HETATM   12  C   UNL     1       7.237  32.776  62.272  1.00  0.00     0.068 A 
HETATM   13  C   UNL     1       6.565  32.728  61.049  1.00  0.00     0.038 A 
HETATM   14  C   UNL     1       7.055  31.929  60.008  1.00  0.00     0.020 A 
BRANCH  12  15
HETATM   15  O   UNL     1       6.842  33.468  63.381  1.00  0.00    -0.352 OA
BRANCH  15  16
HETATM   16  C   UNL     1       7.565  33.226  64.588  1.00  0.00     0.171 C 
HETATM   17  C   UNL     1       6.778  33.843  65.731  1.00  0.00     0.034 C 
ENDBRANCH  15  16
ENDBRANCH  12  15
ENDBRANCH   6   9
ENDBRANCH   2   5
BRANCH   1  18
HETATM   18  C   UNL     1       6.947  27.299  55.744  1.00  0.00     0.077 A 
HETATM   19  C   UNL     1       6.996  27.845  54.442  1.00  0.00     0.158 A 
HETATM   20  N   UNL     1       7.285  26.944  53.510  1.00  0.00    -0.183 NA
HETATM   21  N   UNL     1       7.458  25.804  54.205  1.00  0.00    -0.268 N 
HETATM   22  C   UNL     1       7.279  25.961  55.570  1.00  0.00     0.052 A 
BRANCH  21  23
HETATM   23  C   UNL     1       7.918  24.610  53.493  1.00  0.00     0.106 C 
HETATM   24  C   UNL     1       7.984  24.899  51.991  1.00  0.00     0.034 C 
BRANCH  23  25
HETATM   25  C   UNL     1       7.063  23.350  53.752  1.00  0.00     0.022 C 
HETATM   26  C   UNL     1       7.813  22.051  53.489  1.00  0.00     0.007 C 
ENDBRANCH  23  25
ENDBRANCH  21  23
BRANCH  22  27
HETATM   27  C   UNL     1       7.547  24.854  56.593  1.00  0.00     0.038 A 
HETATM   28  C   UNL     1       8.966  24.400  56.858  1.00  0.00     0.011 A 
HETATM   29  C   UNL     1       8.212  25.127  57.919  1.00  0.00     0.011 A 
ENDBRANCH  22  27
ENDBRANCH   1  18
TORSDOF 8
ENDMDL
MODEL 3
REMARK VINA RESULT:      -8.4      2.202      3.252
REMARK  8 active torsions:
REMARK  status: ('A' for Active; 'I' for Inactive)
REMARK    1  A    between atoms: C_2  and  C_3 
REMARK    2  A    between atoms: C_3  and  N_4 
REMARK    3  A    between atoms: C_7  and  C_8 
REMARK       I    between atoms: C_8  and  N_9 
REMARK    4  A    between atoms: N_9  and  N_10 
REMARK       I    between atoms: N_10  and  C_11 
REMARK    5  A    between atoms: C_11  and  C_12 
REMARK    6  A    between atoms: C_15  and  O_16 
REMARK    7  A    between atoms: O_16  and  C_17 
REMARK    8  A    between atoms: C_23  and  C_24 
ROOT
HETATM    1  C   UNL     1       8.061  26.330  57.357  1.00  0.00     0.273 C 
HETATM    2  N   UNL     1       8.519  27.447  56.693  1.00  0.00    -0.263 N 
HETATM    3  O   UNL     1       7.698  26.384  58.532  1.00  0.00    -0.266 OA
HETATM    4  H   UNL     1       8.917  27.433  55.760  1.00  0.00     0.190 HD
ENDROOT
BRANCH   2   5
HETATM    5  N   UNL     1       8.591  28.642  57.430  1.00  0.00    -0.263 N 
HETATM    6  C   UNL     1       7.510  29.503  57.395  1.00  0.00     0.270 C 
HETATM    7  O   UNL     1       6.610  29.439  56.566  1.00  0.00    -0.266 OA
HETATM    8  H   UNL     1       9.110  28.542  58.305  1.00  0.00     0.190 HD
BRANCH   6   9
HETATM    9  C   UNL     1       7.481  30.508  58.498  1.00  0.00     0.033 A 
HETATM   10  C   UNL     1       8.418  30.478  59.538  1.00  0.00     0.020 A 
HETATM   11  C   UNL     1       8.296  31.364  60.610  1.00  0.00     0.038 A 
HETATM   12  C   UNL     1       7.250  32.287  60.656  1.00  0.00     0.068 A 
HETATM   13  C   UNL     1       6.355  32.362  59.588  1.00  0.00     0.038 A 
HETATM   14  C   UNL     1       6.469  31.475  58.510  1.00  0.00     0.020 A 
BRANCH  12  15
HETATM   15  O   UNL     1       7.220  33.052  61.788  1.00  0.00    -0.352 OA
BRANCH  15  16
HETATM   16  C   UNL     1       6.859  32.397  63.003  1.00  0.00     0.171 C 
HETATM   17  C   UNL     1       7.684  33.010  64.122  1.00  0.00     0.034 C 
ENDBRANCH  15  16
ENDBRANCH  12  15
ENDBRANCH   6   9
ENDBRANCH   2   5
BRANCH   1  18
HETATM   18  C   UNL     1       8.162  25.081  56.642  1.00  0.00     0.077 A 
HETATM   19  C   UNL     1       9.194  24.147  56.884  1.00  0.00     0.158 A 
HETATM   20  N   UNL     1       9.060  23.029  56.180  1.00  0.00    -0.183 NA
HETATM   21  N   UNL     1       7.916  23.215  55.494  1.00  0.00    -0.268 N 
HETATM   22  C   UNL     1       7.318  24.439  55.745  1.00  0.00     0.052 A 
BRANCH  21  23
HETATM   23  C   UNL     1       7.388  22.107  54.694  1.00  0.00     0.106 C 
HETATM   24  C   UNL     1       7.619  20.785  55.432  1.00  0.00     0.034 C 
BRANCH  23  25
HETATM   25  C   UNL     1       7.968  22.024  53.266  1.00  0.00     0.022 C 
HETATM   26  C   UNL     1       8.308  20.604  52.838  1.00  0.00     0.007 C 
ENDBRANCH  23  25
ENDBRANCH  21  23
BRANCH  22  27
HETATM   27  C   UNL     1       5.946  24.841  55.196  1.00  0.00     0.038 A 
HETATM   28  C   UNL     1       5.765  26.188  54.531  1.00  0.00     0.011 A 
HETATM   29  C   UNL     1       5.669  24.942  53.717  1.00  0.00     0.011 A 
ENDBRANCH  22  27
ENDBRANCH   1  18
TORSDOF 8
ENDMDL
MODEL 4
REMARK VINA RESULT:      -8.2      7.718     10.366
REMARK  8 active torsions:
REMARK  status: ('A' for Active; 'I' for Inactive)
REMARK    1  A    between atoms: C_2  and  C_3 
REMARK    2  A    between atoms: C_3  and  N_4 
REMARK    3  A    between atoms: C_7  and  C_8 
REMARK       I    between atoms: C_8  and  N_9 
REMARK    4  A    between atoms: N_9  and  N_10 
REMARK       I    between atoms: N_10  and  C_11 
REMARK    5  A    between atoms: C_11  and  C_12 
REMARK    6  A    between atoms: C_15  and  O_16 
REMARK    7  A    between atoms: O_16  and  C_17 
REMARK    8  A    between atoms: C_23  and  C_24 
ROOT
HETATM    1  C   UNL     1       4.887  27.581  50.482  1.00  0.00     0.273 C 
HETATM    2  N   UNL     1       4.882  26.250  50.837  1.00  0.00    -0.263 N 
HETATM    3  O   UNL     1       5.709  28.369  50.950  1.00  0.00    -0.266 OA
HETATM    4  H   UNL     1       4.169  25.587  50.553  1.00  0.00     0.190 HD
ENDROOT
BRANCH   2   5
HETATM    5  N   UNL     1       5.832  25.840  51.787  1.00  0.00    -0.263 N 
HETATM    6  C   UNL     1       5.428  24.986  52.796  1.00  0.00     0.270 C 
HETATM    7  O   UNL     1       4.256  24.772  53.085  1.00  0.00    -0.266 OA
HETATM    8  H   UNL     1       6.769  25.726  51.395  1.00  0.00     0.190 HD
BRANCH   6   9
HETATM    9  C   UNL     1       6.542  24.278  53.494  1.00  0.00     0.033 A 
HETATM   10  C   UNL     1       7.383  23.390  52.813  1.00  0.00     0.020 A 
HETATM   11  C   UNL     1       8.344  22.662  53.517  1.00  0.00     0.038 A 
HETATM   12  C   UNL     1       8.480  22.812  54.898  1.00  0.00     0.068 A 
HETATM   13  C   UNL     1       7.686  23.745  55.568  1.00  0.00     0.038 A 
HETATM   14  C   UNL     1       6.719  24.477  54.868  1.00  0.00     0.020 A 
BRANCH  12  15
HETATM   15  O   UNL     1       9.419  21.998  55.466  1.00  0.00    -0.352 OA
BRANCH  15  16
HETATM   16  C   UNL     1       9.186  20.592  55.393  1.00  0.00     0.171 C 
HETATM   17  C   UNL     1       7.970  20.279  56.248  1.00  0.00     0.034 C 
ENDBRANCH  15  16
ENDBRANCH  12  15
ENDBRANCH   6   9
ENDBRANCH   2   5
BRANCH   1  18
HETATM   18  C   UNL     1       3.797  28.019  49.645  1.00  0.00     0.077 A 
HETATM   19  C   UNL     1       3.116  29.239  49.857  1.00  0.00     0.158 A 
HETATM   20  N   UNL     1       2.201  29.493  48.929  1.00  0.00    -0.183 NA
HETATM   21  N   UNL     1       2.300  28.449  48.083  1.00  0.00    -0.268 N 
HETATM   22  C   UNL     1       3.264  27.528  48.460  1.00  0.00     0.052 A 
BRANCH  21  23
HETATM   23  C   UNL     1       1.508  28.465  46.851  1.00  0.00     0.106 C 
HETATM   24  C   UNL     1       1.326  29.909  46.375  1.00  0.00     0.034 C 
BRANCH  23  25
HETATM   25  C   UNL     1       0.134  27.771  46.974  1.00  0.00     0.022 C 
HETATM   26  C   UNL     1      -0.609  27.674  45.649  1.00  0.00     0.007 C 
ENDBRANCH  23  25
ENDBRANCH  21  23
BRANCH  22  27
HETATM   27  C   UNL     1       3.666  26.324  47.603  1.00  0.00     0.038 A 
HETATM   28  C   UNL     1       3.250  24.930  48.018  1.00  0.00     0.011 A 
HETATM   29  C   UNL     1       2.663  25.542  46.792  1.00  0.00     0.011 A 
ENDBRANCH  22  27
ENDBRANCH   1  18
TORSDOF 8
ENDMDL
MODEL 5
REMARK VINA RESULT:      -7.7      2.497      9.875
REMARK  8 active torsions:
REMARK  status: ('A' for Active; 'I' for Inactive)
REMARK    1  A    between atoms: C_2  and  C_3 
REMARK    2  A    between atoms: C_3  and  N_4 
REMARK    3  A    between atoms: C_7  and  C_8 
REMARK       I    between atoms: C_8  and  N_9 
REMARK    4  A    between atoms: N_9  and  N_10 
REMARK       I    between atoms: N_10  and  C_11 
REMARK    5  A    between atoms: C_11  and  C_12 
REMARK    6  A    between atoms: C_15  and  O_16 
REMARK    7  A    between atoms: O_16  and  C_17 
REMARK    8  A    between atoms: C_23  and  C_24 
ROOT
HETATM    1  C   UNL     1       6.164  30.374  57.564  1.00  0.00     0.273 C 
HETATM    2  N   UNL     1       6.114  29.041  57.912  1.00  0.00    -0.263 N 
HETATM    3  O   UNL     1       6.366  30.727  56.402  1.00  0.00    -0.266 OA
HETATM    4  H   UNL     1       6.046  28.704  58.867  1.00  0.00     0.190 HD
ENDROOT
BRANCH   2   5
HETATM    5  N   UNL     1       6.345  28.106  56.890  1.00  0.00    -0.263 N 
HETATM    6  C   UNL     1       7.245  27.083  57.125  1.00  0.00     0.270 C 
HETATM    7  O   UNL     1       8.054  27.080  58.046  1.00  0.00    -0.266 OA
HETATM    8  H   UNL     1       5.512  27.907  56.333  1.00  0.00     0.190 HD
BRANCH   6   9
HETATM    9  C   UNL     1       7.127  25.925  56.190  1.00  0.00     0.033 A 
HETATM   10  C   UNL     1       8.027  24.853  56.237  1.00  0.00     0.020 A 
HETATM   11  C   UNL     1       7.954  23.841  55.279  1.00  0.00     0.038 A 
HETATM   12  C   UNL     1       6.988  23.881  54.272  1.00  0.00     0.068 A 
HETATM   13  C   UNL     1       6.049  24.914  54.263  1.00  0.00     0.038 A 
HETATM   14  C   UNL     1       6.118  25.935  55.221  1.00  0.00     0.020 A 
BRANCH  12  15
HETATM   15  O   UNL     1       7.068  22.858  53.370  1.00  0.00    -0.352 OA
BRANCH  15  16
HETATM   16  C   UNL     1       8.284  22.112  53.343  1.00  0.00     0.171 C 
HETATM   17  C   UNL     1       7.930  20.658  53.083  1.00  0.00     0.034 C 
ENDBRANCH  15  16
ENDBRANCH  12  15
ENDBRANCH   6   9
ENDBRANCH   2   5
BRANCH   1  18
HETATM   18  C   UNL     1       6.102  31.318  58.653  1.00  0.00     0.077 A 
HETATM   19  C   UNL     1       4.914  31.995  59.008  1.00  0.00     0.158 A 
HETATM   20  N   UNL     1       5.052  32.756  60.087  1.00  0.00    -0.183 NA
HETATM   21  N   UNL     1       6.329  32.557  60.463  1.00  0.00    -0.268 N 
HETATM   22  C   UNL     1       7.014  31.680  59.636  1.00  0.00     0.052 A 
BRANCH  21  23
HETATM   23  C   UNL     1       6.796  33.157  61.715  1.00  0.00     0.106 C 
HETATM   24  C   UNL     1       6.658  32.143  62.854  1.00  0.00     0.034 C 
BRANCH  23  25
HETATM   25  C   UNL     1       6.081  34.474  62.090  1.00  0.00     0.022 C 
HETATM   26  C   UNL     1       5.458  34.444  63.478  1.00  0.00     0.007 C 
ENDBRANCH  23  25
ENDBRANCH  21  23
BRANCH  22  27
HETATM   27  C   UNL     1       8.434  31.183  59.920  1.00  0.00     0.038 A 
HETATM   28  C   UNL     1       9.549  31.490  58.944  1.00  0.00     0.011 A 
HETATM   29  C   UNL     1       9.555  32.119  60.296  1.00  0.00     0.011 A 
ENDBRANCH  22  27
ENDBRANCH   1  18
TORSDOF 8
ENDMDL
MODEL 6
REMARK VINA RESULT:      -7.7      2.147      3.404
REMARK  8 active torsions:
REMARK  status: ('A' for Active; 'I' for Inactive)
REMARK    1  A    between atoms: C_2  and  C_3 
REMARK    2  A    between atoms: C_3  and  N_4 
REMARK    3  A    between atoms: C_7  and  C_8 
REMARK       I    between atoms: C_8  and  N_9 
REMARK    4  A    between atoms: N_9  and  N_10 
REMARK       I    between atoms: N_10  and  C_11 
REMARK    5  A    between atoms: C_11  and  C_12 
REMARK    6  A    between atoms: C_15  and  O_16 
REMARK    7  A    between atoms: O_16  and  C_17 
REMARK    8  A    between atoms: C_23  and  C_24 
ROOT
HETATM    1  C   UNL     1       7.155  30.587  58.629  1.00  0.00     0.273 C 
HETATM    2  N   UNL     1       7.969  30.242  59.686  1.00  0.00    -0.263 N 
HETATM    3  O   UNL     1       6.278  31.442  58.745  1.00  0.00    -0.266 OA
HETATM    4  H   UNL     1       8.638  29.480  59.665  1.00  0.00     0.190 HD
ENDROOT
BRANCH   2   5
HETATM    5  N   UNL     1       7.726  30.881  60.913  1.00  0.00    -0.263 N 
HETATM    6  C   UNL     1       8.295  32.121  61.134  1.00  0.00     0.270 C 
HETATM    7  O   UNL     1       9.209  32.585  60.462  1.00  0.00    -0.266 OA
HETATM    8  H   UNL     1       6.789  30.700  61.280  1.00  0.00     0.190 HD
BRANCH   6   9
HETATM    9  C   UNL     1       7.671  32.903  62.242  1.00  0.00     0.033 A 
HETATM   10  C   UNL     1       8.012  32.674  63.580  1.00  0.00     0.020 A 
HETATM   11  C   UNL     1       7.329  33.344  64.597  1.00  0.00     0.038 A 
HETATM   12  C   UNL     1       6.309  34.248  64.294  1.00  0.00     0.068 A 
HETATM   13  C   UNL     1       6.014  34.526  62.959  1.00  0.00     0.038 A 
HETATM   14  C   UNL     1       6.693  33.855  61.934  1.00  0.00     0.020 A 
BRANCH  12  15
HETATM   15  O   UNL     1       5.690  34.788  65.386  1.00  0.00    -0.352 OA
BRANCH  15  16
HETATM   16  C   UNL     1       5.065  33.880  66.291  1.00  0.00     0.171 C 
HETATM   17  C   UNL     1       4.599  34.676  67.498  1.00  0.00     0.034 C 
ENDBRANCH  15  16
ENDBRANCH  12  15
ENDBRANCH   6   9
ENDBRANCH   2   5
BRANCH   1  18
HETATM   18  C   UNL     1       7.301  29.796  57.431  1.00  0.00     0.077 A 
HETATM   19  C   UNL     1       8.558  29.524  56.846  1.00  0.00     0.158 A 
HETATM   20  N   UNL     1       8.480  28.713  55.798  1.00  0.00    -0.183 NA
HETATM   21  N   UNL     1       7.168  28.424  55.710  1.00  0.00    -0.268 N 
HETATM   22  C   UNL     1       6.403  29.043  56.685  1.00  0.00     0.052 A 
BRANCH  21  23
HETATM   23  C   UNL     1       6.730  27.435  54.722  1.00  0.00     0.106 C 
HETATM   24  C   UNL     1       7.525  26.139  54.904  1.00  0.00     0.034 C 
BRANCH  23  25
HETATM   25  C   UNL     1       6.832  27.916  53.258  1.00  0.00     0.022 C 
HETATM   26  C   UNL     1       5.665  27.459  52.394  1.00  0.00     0.007 C 
ENDBRANCH  23  25
ENDBRANCH  21  23
BRANCH  22  27
HETATM   27  C   UNL     1       4.909  28.776  56.888  1.00  0.00     0.038 A 
HETATM   28  C   UNL     1       3.909  29.892  56.683  1.00  0.00     0.011 A 
HETATM   29  C   UNL     1       3.934  28.741  55.737  1.00  0.00     0.011 A 
ENDBRANCH  22  27
ENDBRANCH   1  18
TORSDOF 8
ENDMDL
MODEL 7
REMARK VINA RESULT:      -7.6      5.168      6.610
REMARK  8 active torsions:
REMARK  status: ('A' for Active; 'I' for Inactive)
REMARK    1  A    between atoms: C_2  and  C_3 
REMARK    2  A    between atoms: C_3  and  N_4 
REMARK    3  A    between atoms: C_7  and  C_8 
REMARK       I    between atoms: C_8  and  N_9 
REMARK    4  A    between atoms: N_9  and  N_10 
REMARK       I    between atoms: N_10  and  C_11 
REMARK    5  A    between atoms: C_11  and  C_12 
REMARK    6  A    between atoms: C_15  and  O_16 
REMARK    7  A    between atoms: O_16  and  C_17 
REMARK    8  A    between atoms: C_23  and  C_24 
ROOT
HETATM    1  C   UNL     1       7.181  26.329  56.138  1.00  0.00     0.273 C 
HETATM    2  N   UNL     1       5.829  26.593  56.082  1.00  0.00    -0.263 N 
HETATM    3  O   UNL     1       8.013  27.236  56.141  1.00  0.00    -0.266 OA
HETATM    4  H   UNL     1       5.113  25.882  55.981  1.00  0.00     0.190 HD
ENDROOT
BRANCH   2   5
HETATM    5  N   UNL     1       5.446  27.942  55.989  1.00  0.00    -0.263 N 
HETATM    6  C   UNL     1       4.690  28.338  54.901  1.00  0.00     0.270 C 
HETATM    7  O   UNL     1       4.556  27.672  53.881  1.00  0.00    -0.266 OA
HETATM    8  H   UNL     1       5.258  28.369  56.898  1.00  0.00     0.190 HD
BRANCH   6   9
HETATM    9  C   UNL     1       3.984  29.641  55.077  1.00  0.00     0.033 A 
HETATM   10  C   UNL     1       3.599  30.097  56.343  1.00  0.00     0.020 A 
HETATM   11  C   UNL     1       2.844  31.265  56.462  1.00  0.00     0.038 A 
HETATM   12  C   UNL     1       2.469  31.990  55.329  1.00  0.00     0.068 A 
HETATM   13  C   UNL     1       2.908  31.571  54.072  1.00  0.00     0.038 A 
HETATM   14  C   UNL     1       3.664  30.399  53.945  1.00  0.00     0.020 A 
BRANCH  12  15
HETATM   15  O   UNL     1       1.685  33.078  55.587  1.00  0.00    -0.352 OA
BRANCH  15  16
HETATM   16  C   UNL     1       0.792  33.493  54.555  1.00  0.00     0.171 C 
HETATM   17  C   UNL     1      -0.618  33.127  54.987  1.00  0.00     0.034 C 
ENDBRANCH  15  16
ENDBRANCH  12  15
ENDBRANCH   6   9
ENDBRANCH   2   5
BRANCH   1  18
HETATM   18  C   UNL     1       7.560  24.940  56.053  1.00  0.00     0.077 A 
HETATM   19  C   UNL     1       8.087  24.226  57.153  1.00  0.00     0.158 A 
HETATM   20  N   UNL     1       8.295  22.942  56.889  1.00  0.00    -0.183 NA
HETATM   21  N   UNL     1       7.874  22.801  55.617  1.00  0.00    -0.268 N 
HETATM   22  C   UNL     1       7.403  23.980  55.061  1.00  0.00     0.052 A 
BRANCH  21  23
HETATM   23  C   UNL     1       7.841  21.459  55.032  1.00  0.00     0.106 C 
HETATM   24  C   UNL     1       7.903  20.410  56.146  1.00  0.00     0.034 C 
BRANCH  23  25
HETATM   25  C   UNL     1       8.954  21.194  53.994  1.00  0.00     0.022 C 
HETATM   26  C   UNL     1       8.469  20.417  52.779  1.00  0.00     0.007 C 
ENDBRANCH  23  25
ENDBRANCH  21  23
BRANCH  22  27
HETATM   27  C   UNL     1       6.746  24.063  53.681  1.00  0.00     0.038 A 
HETATM   28  C   UNL     1       6.959  25.287  52.817  1.00  0.00     0.011 A 
HETATM   29  C   UNL     1       7.544  23.979  52.404  1.00  0.00     0.011 A 
ENDBRANCH  22  27
ENDBRANCH   1  18
TORSDOF 8
ENDMDL
MODEL 8
REMARK VINA RESULT:      -7.4      6.756     10.748
REMARK  8 active torsions:
REMARK  status: ('A' for Active; 'I' for Inactive)
REMARK    1  A    between atoms: C_2  and  C_3 
REMARK    2  A    between atoms: C_3  and  N_4 
REMARK    3  A    between atoms: C_7  and  C_8 
REMARK       I    between atoms: C_8  and  N_9 
REMARK    4  A    between atoms: N_9  and  N_10 
REMARK       I    between atoms: N_10  and  C_11 
REMARK    5  A    between atoms: C_11  and  C_12 
REMARK    6  A    between atoms: C_15  and  O_16 
REMARK    7  A    between atoms: O_16  and  C_17 
REMARK    8  A    between atoms: C_23  and  C_24 
ROOT
HETATM    1  C   UNL     1       5.102  25.477  53.422  1.00  0.00     0.273 C 
HETATM    2  N   UNL     1       4.957  26.826  53.177  1.00  0.00    -0.263 N 
HETATM    3  O   UNL     1       4.557  24.633  52.711  1.00  0.00    -0.266 OA
HETATM    4  H   UNL     1       5.305  27.556  53.789  1.00  0.00     0.190 HD
ENDROOT
BRANCH   2   5
HETATM    5  N   UNL     1       4.127  27.194  52.105  1.00  0.00    -0.263 N 
HETATM    6  C   UNL     1       4.596  28.128  51.199  1.00  0.00     0.270 C 
HETATM    7  O   UNL     1       5.560  28.856  51.404  1.00  0.00    -0.266 OA
HETATM    8  H   UNL     1       3.552  26.422  51.760  1.00  0.00     0.190 HD
BRANCH   6   9
HETATM    9  C   UNL     1       3.865  28.153  49.899  1.00  0.00     0.033 A 
HETATM   10  C   UNL     1       2.927  29.151  49.607  1.00  0.00     0.020 A 
HETATM   11  C   UNL     1       2.182  29.083  48.429  1.00  0.00     0.038 A 
HETATM   12  C   UNL     1       2.363  28.029  47.531  1.00  0.00     0.068 A 
HETATM   13  C   UNL     1       3.344  27.070  47.789  1.00  0.00     0.038 A 
HETATM   14  C   UNL     1       4.094  27.131  48.971  1.00  0.00     0.020 A 
BRANCH  12  15
HETATM   15  O   UNL     1       1.530  28.058  46.449  1.00  0.00    -0.352 OA
BRANCH  15  16
HETATM   16  C   UNL     1       0.145  27.814  46.692  1.00  0.00     0.171 C 
HETATM   17  C   UNL     1      -0.523  27.562  45.351  1.00  0.00     0.034 C 
ENDBRANCH  15  16
ENDBRANCH  12  15
ENDBRANCH   6   9
ENDBRANCH   2   5
BRANCH   1  18
HETATM   18  C   UNL     1       5.808  25.123  54.628  1.00  0.00     0.077 A 
HETATM   19  C   UNL     1       5.245  25.279  55.914  1.00  0.00     0.158 A 
HETATM   20  N   UNL     1       6.027  24.818  56.884  1.00  0.00    -0.183 NA
HETATM   21  N   UNL     1       7.098  24.328  56.231  1.00  0.00    -0.268 N 
HETATM   22  C   UNL     1       7.015  24.473  54.855  1.00  0.00     0.052 A 
BRANCH  21  23
HETATM   23  C   UNL     1       8.123  23.617  56.997  1.00  0.00     0.106 C 
HETATM   24  C   UNL     1       9.235  24.591  57.397  1.00  0.00     0.034 C 
BRANCH  23  25
HETATM   25  C   UNL     1       8.727  22.397  56.266  1.00  0.00     0.022 C 
HETATM   26  C   UNL     1       7.978  21.101  56.543  1.00  0.00     0.007 C 
ENDBRANCH  23  25
ENDBRANCH  21  23
BRANCH  22  27
HETATM   27  C   UNL     1       8.035  23.882  53.878  1.00  0.00     0.038 A 
HETATM   28  C   UNL     1       7.616  22.789  52.920  1.00  0.00     0.011 A 
HETATM   29  C   UNL     1       7.970  24.139  52.393  1.00  0.00     0.011 A 
ENDBRANCH  22  27
ENDBRANCH   1  18
TORSDOF 8
ENDMDL
MODEL 9
REMARK VINA RESULT:      -7.3      2.990      9.835
REMARK  8 active torsions:
REMARK  status: ('A' for Active; 'I' for Inactive)
REMARK    1  A    between atoms: C_2  and  C_3 
REMARK    2  A    between atoms: C_3  and  N_4 
REMARK    3  A    between atoms: C_7  and  C_8 
REMARK       I    between atoms: C_8  and  N_9 
REMARK    4  A    between atoms: N_9  and  N_10 
REMARK       I    between atoms: N_10  and  C_11 
REMARK    5  A    between atoms: C_11  and  C_12 
REMARK    6  A    between atoms: C_15  and  O_16 
REMARK    7  A    between atoms: O_16  and  C_17 
REMARK    8  A    between atoms: C_23  and  C_24 
ROOT
HETATM    1  C   UNL     1       5.509  29.330  56.883  1.00  0.00     0.273 C 
HETATM    2  N   UNL     1       5.800  29.576  55.559  1.00  0.00    -0.263 N 
HETATM    3  O   UNL     1       5.470  28.185  57.331  1.00  0.00    -0.266 OA
HETATM    4  H   UNL     1       5.750  30.491  55.125  1.00  0.00     0.190 HD
ENDROOT
BRANCH   2   5
HETATM    5  N   UNL     1       6.010  28.458  54.734  1.00  0.00    -0.263 N 
HETATM    6  C   UNL     1       7.304  28.005  54.556  1.00  0.00     0.270 C 
HETATM    7  O   UNL     1       8.303  28.656  54.839  1.00  0.00    -0.266 OA
HETATM    8  H   UNL     1       5.254  27.772  54.789  1.00  0.00     0.190 HD
BRANCH   6   9
HETATM    9  C   UNL     1       7.407  26.610  54.035  1.00  0.00     0.033 A 
HETATM   10  C   UNL     1       7.550  25.517  54.897  1.00  0.00     0.020 A 
HETATM   11  C   UNL     1       7.754  24.239  54.373  1.00  0.00     0.038 A 
HETATM   12  C   UNL     1       7.814  24.036  52.993  1.00  0.00     0.068 A 
HETATM   13  C   UNL     1       7.607  25.115  52.132  1.00  0.00     0.038 A 
HETATM   14  C   UNL     1       7.404  26.400  52.651  1.00  0.00     0.020 A 
BRANCH  12  15
HETATM   15  O   UNL     1       8.075  22.748  52.622  1.00  0.00    -0.352 OA
BRANCH  15  16
HETATM   16  C   UNL     1       7.991  21.751  53.640  1.00  0.00     0.171 C 
HETATM   17  C   UNL     1       8.134  20.394  52.971  1.00  0.00     0.034 C 
ENDBRANCH  15  16
ENDBRANCH  12  15
ENDBRANCH   6   9
ENDBRANCH   2   5
BRANCH   1  18
HETATM   18  C   UNL     1       5.122  30.475  57.672  1.00  0.00     0.077 A 
HETATM   19  C   UNL     1       3.772  30.794  57.940  1.00  0.00     0.158 A 
HETATM   20  N   UNL     1       3.634  31.837  58.749  1.00  0.00    -0.183 NA
HETATM   21  N   UNL     1       4.901  32.189  59.041  1.00  0.00    -0.268 N 
HETATM   22  C   UNL     1       5.849  31.388  58.425  1.00  0.00     0.052 A 
BRANCH  21  23
HETATM   23  C   UNL     1       5.127  33.247  60.028  1.00  0.00     0.106 C 
HETATM   24  C   UNL     1       5.046  32.659  61.440  1.00  0.00     0.034 C 
BRANCH  23  25
HETATM   25  C   UNL     1       4.165  34.449  59.900  1.00  0.00     0.022 C 
HETATM   26  C   UNL     1       3.554  34.872  61.228  1.00  0.00     0.007 C 
ENDBRANCH  23  25
ENDBRANCH  21  23
BRANCH  22  27
HETATM   27  C   UNL     1       7.352  31.493  58.695  1.00  0.00     0.038 A 
HETATM   28  C   UNL     1       7.941  30.857  59.935  1.00  0.00     0.011 A 
HETATM   29  C   UNL     1       8.274  30.303  58.591  1.00  0.00     0.011 A 
ENDBRANCH  22  27
ENDBRANCH   1  18
TORSDOF 8
ENDMDL
MODEL 10
REMARK VINA RESULT:      -7.3      2.352      9.954
REMARK  8 active torsions:
REMARK  status: ('A' for Active; 'I' for Inactive)
REMARK    1  A    between atoms: C_2  and  C_3 
REMARK    2  A    between atoms: C_3  and  N_4 
REMARK    3  A    between atoms: C_7  and  C_8 
REMARK       I    between atoms: C_8  and  N_9 
REMARK    4  A    between atoms: N_9  and  N_10 
REMARK       I    between atoms: N_10  and  C_11 
REMARK    5  A    between atoms: C_11  and  C_12 
REMARK    6  A    between atoms: C_15  and  O_16 
REMARK    7  A    between atoms: O_16  and  C_17 
REMARK    8  A    between atoms: C_23  and  C_24 
ROOT
HETATM    1  C   UNL     1       5.713  31.912  58.569  1.00  0.00     0.273 C 
HETATM    2  N   UNL     1       5.738  30.534  58.567  1.00  0.00    -0.263 N 
HETATM    3  O   UNL     1       6.066  32.563  57.586  1.00  0.00    -0.266 OA
HETATM    4  H   UNL     1       5.549  29.959  59.381  1.00  0.00     0.190 HD
ENDROOT
BRANCH   2   5
HETATM    5  N   UNL     1       6.224  29.907  57.407  1.00  0.00    -0.263 N 
HETATM    6  C   UNL     1       7.257  28.996  57.534  1.00  0.00     0.270 C 
HETATM    7  O   UNL     1       7.960  28.892  58.533  1.00  0.00    -0.266 OA
HETATM    8  H   UNL     1       5.496  29.728  56.713  1.00  0.00     0.190 HD
BRANCH   6   9
HETATM    9  C   UNL     1       7.428  28.085  56.364  1.00  0.00     0.033 A 
HETATM   10  C   UNL     1       7.710  28.583  55.086  1.00  0.00     0.020 A 
HETATM   11  C   UNL     1       7.755  27.713  53.995  1.00  0.00     0.038 A 
HETATM   12  C   UNL     1       7.526  26.347  54.163  1.00  0.00     0.068 A 
HETATM   13  C   UNL     1       7.310  25.841  55.446  1.00  0.00     0.038 A 
HETATM   14  C   UNL     1       7.261  26.708  56.545  1.00  0.00     0.020 A 
BRANCH  12  15
HETATM   15  O   UNL     1       7.544  25.623  53.005  1.00  0.00    -0.352 OA
BRANCH  15  16
HETATM   16  C   UNL     1       6.847  24.378  53.007  1.00  0.00     0.171 C 
HETATM   17  C   UNL     1       7.871  23.274  52.802  1.00  0.00     0.034 C 
ENDBRANCH  15  16
ENDBRANCH  12  15
ENDBRANCH   6   9
ENDBRANCH   2   5
BRANCH   1  18
HETATM   18  C   UNL     1       5.382  32.539  59.826  1.00  0.00     0.077 A 
HETATM   19  C   UNL     1       4.049  32.748  60.245  1.00  0.00     0.158 A 
HETATM   20  N   UNL     1       3.962  33.265  61.465  1.00  0.00    -0.183 NA
HETATM   21  N   UNL     1       5.244  33.369  61.864  1.00  0.00    -0.268 N 
HETATM   22  C   UNL     1       6.152  32.929  60.914  1.00  0.00     0.052 A 
BRANCH  21  23
HETATM   23  C   UNL     1       5.520  33.793  63.238  1.00  0.00     0.106 C 
HETATM   24  C   UNL     1       5.975  35.256  63.243  1.00  0.00     0.034 C 
BRANCH  23  25
HETATM   25  C   UNL     1       6.555  32.916  63.976  1.00  0.00     0.022 C 
HETATM   26  C   UNL     1       7.091  33.560  65.246  1.00  0.00     0.007 C 
ENDBRANCH  23  25
ENDBRANCH  21  23
BRANCH  22  27
HETATM   27  C   UNL     1       7.658  32.817  61.169  1.00  0.00     0.038 A 
HETATM   28  C   UNL     1       8.312  31.454  61.229  1.00  0.00     0.011 A 
HETATM   29  C   UNL     1       8.624  32.375  60.098  1.00  0.00     0.011 A 
ENDBRANCH  22  27
ENDBRANCH   1  18
TORSDOF 8
ENDMDL
