MODEL 1
REMARK VINA RESULT:      -7.8      0.000      0.000
REMARK  2 active torsions:
REMARK  status: ('A' for Active; 'I' for Inactive)
REMARK    1  A    between atoms: C_2  and  C_3 
REMARK    2  A    between atoms: C_3  and  N_4 
ROOT
HETATM    1  N   UNL     1       6.253  26.847  55.152  1.00  0.00    -0.203 NA
HETATM    2  S   UNL     1       5.372  28.297  55.287  1.00  0.00     0.219 S 
HETATM    3  O   UNL     1       4.244  28.123  56.162  1.00  0.00    -0.211 OA
HETATM    4  O   UNL     1       5.265  28.860  53.958  1.00  0.00    -0.211 OA
HETATM    5  C   UNL     1       6.662  29.218  56.090  1.00  0.00     0.164 C 
HETATM    6  C   UNL     1       7.908  28.329  56.023  1.00  0.00     0.116 C 
HETATM    7  O   UNL     1       8.056  27.809  57.370  1.00  0.00    -0.369 OA
HETATM    8  C   UNL     1       7.746  28.934  58.213  1.00  0.00     0.149 C 
HETATM    9  C   UNL     1       8.966  29.882  58.174  1.00  0.00     0.264 C 
HETATM   10  N   UNL     1       9.295  30.288  56.746  1.00  0.00    -0.070 N 
HETATM   11  H   UNL     1       8.703  31.083  56.468  1.00  0.00     0.277 HD
HETATM   12  H   UNL     1      10.260  30.655  56.725  1.00  0.00     0.277 HD
HETATM   13  C   UNL     1       9.179  29.149  55.740  1.00  0.00     0.273 C 
HETATM   14  C   UNL     1       7.690  27.185  55.022  1.00  0.00     0.148 C 
HETATM   15  C   UNL     1       6.481  29.500  57.574  1.00  0.00     0.058 C 
ENDROOT
BRANCH   1  16
HETATM   16  C   UNL     1       5.775  25.888  54.125  1.00  0.00     0.145 C 
BRANCH  16  17
HETATM   17  C   UNL     1       6.532  24.585  54.087  1.00  0.00    -0.044 A 
HETATM   18  C   UNL     1       6.774  23.869  55.270  1.00  0.00     0.010 A 
HETATM   19  C   UNL     1       7.476  22.662  55.237  1.00  0.00     0.024 A 
HETATM   20  C   UNL     1       7.943  22.166  54.022  1.00  0.00     0.034 A 
HETATM   21  C   UNL     1       7.717  22.869  52.840  1.00  0.00     0.024 A 
HETATM   22 CL   UNL     1       8.805  20.678  53.982  1.00  0.00    -0.084 Cl
HETATM   23  C   UNL     1       7.015  24.076  52.873  1.00  0.00     0.010 A 
ENDBRANCH  16  17
ENDBRANCH   1  16
TORSDOF 2
ENDMDL
MODEL 2
REMARK VINA RESULT:      -7.8      1.653      2.319
REMARK  2 active torsions:
REMARK  status: ('A' for Active; 'I' for Inactive)
REMARK    1  A    between atoms: C_2  and  C_3 
REMARK    2  A    between atoms: C_3  and  N_4 
ROOT
HETATM    1  N   UNL     1       6.620  26.645  54.027  1.00  0.00    -0.203 NA
HETATM    2  S   UNL     1       5.491  27.687  53.294  1.00  0.00     0.219 S 
HETATM    3  O   UNL     1       4.226  27.023  53.124  1.00  0.00    -0.211 OA
HETATM    4  O   UNL     1       6.176  28.374  52.220  1.00  0.00    -0.211 OA
HETATM    5  C   UNL     1       5.424  28.852  54.634  1.00  0.00     0.164 C 
HETATM    6  C   UNL     1       6.544  28.442  55.594  1.00  0.00     0.116 C 
HETATM    7  O   UNL     1       5.859  27.806  56.704  1.00  0.00    -0.369 OA
HETATM    8  C   UNL     1       4.695  28.628  56.910  1.00  0.00     0.149 C 
HETATM    9  C   UNL     1       5.169  29.919  57.615  1.00  0.00     0.264 C 
HETATM   10  N   UNL     1       6.249  30.618  56.803  1.00  0.00    -0.070 N 
HETATM   11  H   UNL     1       5.811  31.206  56.081  1.00  0.00     0.277 HD
HETATM   12  H   UNL     1       6.743  31.280  57.421  1.00  0.00     0.277 HD
HETATM   13  C   UNL     1       7.265  29.667  56.184  1.00  0.00     0.273 C 
HETATM   14  C   UNL     1       7.496  27.452  54.908  1.00  0.00     0.148 C 
HETATM   15  C   UNL     1       4.168  28.834  55.494  1.00  0.00     0.058 C 
ENDROOT
BRANCH   1  16
HETATM   16  C   UNL     1       7.366  25.745  53.112  1.00  0.00     0.145 C 
BRANCH  16  17
HETATM   17  C   UNL     1       7.554  24.343  53.632  1.00  0.00    -0.044 A 
HETATM   18  C   UNL     1       7.988  23.319  52.775  1.00  0.00     0.010 A 
HETATM   19  C   UNL     1       8.163  22.019  53.255  1.00  0.00     0.024 A 
HETATM   20  C   UNL     1       7.901  21.735  54.593  1.00  0.00     0.034 A 
HETATM   21  C   UNL     1       7.463  22.739  55.455  1.00  0.00     0.024 A 
HETATM   22 CL   UNL     1       8.118  20.134  55.184  1.00  0.00    -0.084 Cl
HETATM   23  C   UNL     1       7.289  24.039  54.975  1.00  0.00     0.010 A 
ENDBRANCH  16  17
ENDBRANCH   1  16
TORSDOF 2
ENDMDL
MODEL 3
REMARK VINA RESULT:      -7.5      2.496      3.799
REMARK  2 active torsions:
REMARK  status: ('A' for Active; 'I' for Inactive)
REMARK    1  A    between atoms: C_2  and  C_3 
REMARK    2  A    between atoms: C_3  and  N_4 
ROOT
HETATM    1  N   UNL     1       6.257  26.137  55.307  1.00  0.00    -0.203 NA
HETATM    2  S   UNL     1       7.338  27.306  54.706  1.00  0.00     0.219 S 
HETATM    3  O   UNL     1       7.923  26.864  53.468  1.00  0.00    -0.211 OA
HETATM    4  O   UNL     1       8.119  27.784  55.826  1.00  0.00    -0.211 OA
HETATM    5  C   UNL     1       6.109  28.556  54.418  1.00  0.00     0.164 C 
HETATM    6  C   UNL     1       4.821  28.026  55.055  1.00  0.00     0.116 C 
HETATM    7  O   UNL     1       4.007  27.601  53.932  1.00  0.00    -0.369 OA
HETATM    8  C   UNL     1       4.216  28.627  52.944  1.00  0.00     0.149 C 
HETATM    9  C   UNL     1       3.401  29.861  53.392  1.00  0.00     0.264 C 
HETATM   10  N   UNL     1       3.801  30.301  54.792  1.00  0.00    -0.070 N 
HETATM   11  H   UNL     1       4.634  30.904  54.739  1.00  0.00     0.277 HD
HETATM   12  H   UNL     1       3.057  30.908  55.168  1.00  0.00     0.277 HD
HETATM   13  C   UNL     1       4.030  29.144  55.757  1.00  0.00     0.273 C 
HETATM   14  C   UNL     1       5.136  26.838  55.976  1.00  0.00     0.148 C 
HETATM   15  C   UNL     1       5.728  28.821  52.968  1.00  0.00     0.058 C 
ENDROOT
BRANCH   1  16
HETATM   16  C   UNL     1       6.856  25.057  56.130  1.00  0.00     0.145 C 
BRANCH  16  17
HETATM   17  C   UNL     1       7.350  23.872  55.342  1.00  0.00    -0.044 A 
HETATM   18  C   UNL     1       6.982  23.709  53.997  1.00  0.00     0.010 A 
HETATM   19  C   UNL     1       7.439  22.611  53.265  1.00  0.00     0.024 A 
HETATM   20  C   UNL     1       8.263  21.667  53.873  1.00  0.00     0.034 A 
HETATM   21  C   UNL     1       8.632  21.811  55.210  1.00  0.00     0.024 A 
HETATM   22 CL   UNL     1       8.827  20.316  52.970  1.00  0.00    -0.084 Cl
HETATM   23  C   UNL     1       8.176  22.909  55.942  1.00  0.00     0.010 A 
ENDBRANCH  16  17
ENDBRANCH   1  16
TORSDOF 2
ENDMDL
MODEL 4
REMARK VINA RESULT:      -7.5      2.532      3.066
REMARK  2 active torsions:
REMARK  status: ('A' for Active; 'I' for Inactive)
REMARK    1  A    between atoms: C_2  and  C_3 
REMARK    2  A    between atoms: C_3  and  N_4 
ROOT
HETATM    1  N   UNL     1       6.973  25.926  53.566  1.00  0.00    -0.203 NA
HETATM    2  S   UNL     1       5.441  25.554  54.209  1.00  0.00     0.219 S 
HETATM    3  O   UNL     1       5.574  24.884  55.474  1.00  0.00    -0.211 OA
HETATM    4  O   UNL     1       4.633  25.043  53.122  1.00  0.00    -0.211 OA
HETATM    5  C   UNL     1       4.924  27.239  54.432  1.00  0.00     0.164 C 
HETATM    6  C   UNL     1       5.990  28.094  53.739  1.00  0.00     0.116 C 
HETATM    7  O   UNL     1       6.767  28.659  54.826  1.00  0.00    -0.369 OA
HETATM    8  C   UNL     1       5.781  29.003  55.817  1.00  0.00     0.149 C 
HETATM    9  C   UNL     1       5.071  30.284  55.325  1.00  0.00     0.264 C 
HETATM   10  N   UNL     1       4.471  30.078  53.942  1.00  0.00    -0.070 N 
HETATM   11  H   UNL     1       3.547  29.632  54.029  1.00  0.00     0.277 HD
HETATM   12  H   UNL     1       4.282  31.004  53.528  1.00  0.00     0.277 HD
HETATM   13  C   UNL     1       5.367  29.288  52.995  1.00  0.00     0.273 C 
HETATM   14  C   UNL     1       6.873  27.215  52.842  1.00  0.00     0.148 C 
HETATM   15  C   UNL     1       4.895  27.762  55.861  1.00  0.00     0.058 C 
ENDROOT
BRANCH   1  16
HETATM   16  C   UNL     1       7.627  24.853  52.777  1.00  0.00     0.145 C 
BRANCH  16  17
HETATM   17  C   UNL     1       7.954  23.610  53.566  1.00  0.00    -0.044 A 
HETATM   18  C   UNL     1       8.539  23.709  54.838  1.00  0.00     0.010 A 
HETATM   19  C   UNL     1       8.842  22.559  55.570  1.00  0.00     0.024 A 
HETATM   20  C   UNL     1       8.567  21.304  55.032  1.00  0.00     0.034 A 
HETATM   21  C   UNL     1       7.993  21.189  53.768  1.00  0.00     0.024 A 
HETATM   22 CL   UNL     1       8.940  19.887  55.935  1.00  0.00    -0.084 Cl
HETATM   23  C   UNL     1       7.688  22.339  53.036  1.00  0.00     0.010 A 
ENDBRANCH  16  17
ENDBRANCH   1  16
TORSDOF 2
ENDMDL
MODEL 5
REMARK VINA RESULT:      -7.5      2.927      4.597
REMARK  2 active torsions:
REMARK  status: ('A' for Active; 'I' for Inactive)
REMARK    1  A    between atoms: C_2  and  C_3 
REMARK    2  A    between atoms: C_3  and  N_4 
ROOT
HETATM    1  N   UNL     1       6.131  26.457  54.052  1.00  0.00    -0.203 NA
HETATM    2  S   UNL     1       6.680  28.062  54.187  1.00  0.00     0.219 S 
HETATM    3  O   UNL     1       7.977  28.204  53.582  1.00  0.00    -0.211 OA
HETATM    4  O   UNL     1       6.379  28.508  55.530  1.00  0.00    -0.211 OA
HETATM    5  C   UNL     1       5.417  28.772  53.158  1.00  0.00     0.164 C 
HETATM    6  C   UNL     1       4.412  27.645  52.900  1.00  0.00     0.116 C 
HETATM    7  O   UNL     1       4.668  27.234  51.533  1.00  0.00    -0.369 OA
HETATM    8  C   UNL     1       4.894  28.472  50.834  1.00  0.00     0.149 C 
HETATM    9  C   UNL     1       3.515  29.144  50.641  1.00  0.00     0.264 C 
HETATM   10  N   UNL     1       2.812  29.339  51.975  1.00  0.00    -0.070 N 
HETATM   11  H   UNL     1       3.143  30.208  52.416  1.00  0.00     0.277 HD
HETATM   12  H   UNL     1       1.809  29.498  51.795  1.00  0.00     0.277 HD
HETATM   13  C   UNL     1       2.961  28.159  52.927  1.00  0.00     0.273 C 
HETATM   14  C   UNL     1       4.660  26.481  53.870  1.00  0.00     0.148 C 
HETATM   15  C   UNL     1       5.840  29.222  51.767  1.00  0.00     0.058 C 
ENDROOT
BRANCH   1  16
HETATM   16  C   UNL     1       6.581  25.523  55.115  1.00  0.00     0.145 C 
BRANCH  16  17
HETATM   17  C   UNL     1       7.110  24.207  54.606  1.00  0.00    -0.044 A 
HETATM   18  C   UNL     1       7.411  24.040  53.245  1.00  0.00     0.010 A 
HETATM   19  C   UNL     1       7.901  22.821  52.772  1.00  0.00     0.024 A 
HETATM   20  C   UNL     1       8.090  21.761  53.655  1.00  0.00     0.034 A 
HETATM   21  C   UNL     1       7.790  21.909  55.008  1.00  0.00     0.024 A 
HETATM   22 CL   UNL     1       8.696  20.260  53.072  1.00  0.00    -0.084 Cl
HETATM   23  C   UNL     1       7.300  23.128  55.482  1.00  0.00     0.010 A 
ENDBRANCH  16  17
ENDBRANCH   1  16
TORSDOF 2
ENDMDL
MODEL 6
REMARK VINA RESULT:      -7.2      1.771      2.635
REMARK  2 active torsions:
REMARK  status: ('A' for Active; 'I' for Inactive)
REMARK    1  A    between atoms: C_2  and  C_3 
REMARK    2  A    between atoms: C_3  and  N_4 
ROOT
HETATM    1  N   UNL     1       6.249  26.434  55.373  1.00  0.00    -0.203 NA
HETATM    2  S   UNL     1       6.933  25.990  56.868  1.00  0.00     0.219 S 
HETATM    3  O   UNL     1       8.271  25.496  56.684  1.00  0.00    -0.211 OA
HETATM    4  O   UNL     1       5.917  25.271  57.607  1.00  0.00    -0.211 OA
HETATM    5  C   UNL     1       6.948  27.629  57.553  1.00  0.00     0.164 C 
HETATM    6  C   UNL     1       6.156  28.496  56.571  1.00  0.00     0.116 C 
HETATM    7  O   UNL     1       7.165  29.264  55.867  1.00  0.00    -0.369 OA
HETATM    8  C   UNL     1       8.106  29.625  56.895  1.00  0.00     0.149 C 
HETATM    9  C   UNL     1       7.461  30.759  57.724  1.00  0.00     0.264 C 
HETATM   10  N   UNL     1       6.113  30.327  58.282  1.00  0.00    -0.070 N 
HETATM   11  H   UNL     1       6.255  29.804  59.158  1.00  0.00     0.277 HD
HETATM   12  H   UNL     1       5.589  31.171  58.559  1.00  0.00     0.277 HD
HETATM   13  C   UNL     1       5.271  29.522  57.301  1.00  0.00     0.273 C 
HETATM   14  C   UNL     1       5.373  27.608  55.593  1.00  0.00     0.148 C 
HETATM   15  C   UNL     1       8.302  28.317  57.653  1.00  0.00     0.058 C 
ENDROOT
BRANCH   1  16
HETATM   16  C   UNL     1       5.598  25.344  54.605  1.00  0.00     0.145 C 
BRANCH  16  17
HETATM   17  C   UNL     1       6.520  24.215  54.220  1.00  0.00    -0.044 A 
HETATM   18  C   UNL     1       7.077  24.159  52.933  1.00  0.00     0.010 A 
HETATM   19  C   UNL     1       7.931  23.114  52.575  1.00  0.00     0.024 A 
HETATM   20  C   UNL     1       8.230  22.116  53.499  1.00  0.00     0.034 A 
HETATM   21  C   UNL     1       7.680  22.154  54.779  1.00  0.00     0.024 A 
HETATM   22 CL   UNL     1       9.284  20.830  53.058  1.00  0.00    -0.084 Cl
HETATM   23  C   UNL     1       6.826  23.199  55.139  1.00  0.00     0.010 A 
ENDBRANCH  16  17
ENDBRANCH   1  16
TORSDOF 2
ENDMDL
MODEL 7
REMARK VINA RESULT:      -7.0      8.363     10.628
REMARK  2 active torsions:
REMARK  status: ('A' for Active; 'I' for Inactive)
REMARK    1  A    between atoms: C_2  and  C_3 
REMARK    2  A    between atoms: C_3  and  N_4 
ROOT
HETATM    1  N   UNL     1       6.320  33.521  62.984  1.00  0.00    -0.203 NA
HETATM    2  S   UNL     1       5.540  33.837  64.464  1.00  0.00     0.219 S 
HETATM    3  O   UNL     1       6.505  34.121  65.492  1.00  0.00    -0.211 OA
HETATM    4  O   UNL     1       4.489  32.854  64.613  1.00  0.00    -0.211 OA
HETATM    5  C   UNL     1       4.727  35.322  63.926  1.00  0.00     0.164 C 
HETATM    6  C   UNL     1       4.961  35.397  62.414  1.00  0.00     0.116 C 
HETATM    7  O   UNL     1       5.971  36.425  62.252  1.00  0.00    -0.369 OA
HETATM    8  C   UNL     1       5.588  37.441  63.197  1.00  0.00     0.149 C 
HETATM    9  C   UNL     1       4.374  38.186  62.597  1.00  0.00     0.264 C 
HETATM   10  N   UNL     1       3.243  37.219  62.279  1.00  0.00    -0.070 N 
HETATM   11  H   UNL     1       2.686  37.049  63.128  1.00  0.00     0.277 HD
HETATM   12  H   UNL     1       2.595  37.680  61.622  1.00  0.00     0.277 HD
HETATM   13  C   UNL     1       3.713  35.904  61.669  1.00  0.00     0.273 C 
HETATM   14  C   UNL     1       5.473  34.048  61.889  1.00  0.00     0.148 C 
HETATM   15  C   UNL     1       5.281  36.637  64.456  1.00  0.00     0.058 C 
ENDROOT
BRANCH   1  16
HETATM   16  C   UNL     1       6.765  32.121  62.768  1.00  0.00     0.145 C 
BRANCH  16  17
HETATM   17  C   UNL     1       7.685  31.934  61.589  1.00  0.00    -0.044 A 
HETATM   18  C   UNL     1       7.164  31.650  60.317  1.00  0.00     0.010 A 
HETATM   19  C   UNL     1       8.015  31.476  59.224  1.00  0.00     0.024 A 
HETATM   20  C   UNL     1       9.393  31.581  59.397  1.00  0.00     0.034 A 
HETATM   21  C   UNL     1       9.927  31.856  60.654  1.00  0.00     0.024 A 
HETATM   22 CL   UNL     1      10.442  31.369  58.049  1.00  0.00    -0.084 Cl
HETATM   23  C   UNL     1       9.076  32.031  61.748  1.00  0.00     0.010 A 
ENDBRANCH  16  17
ENDBRANCH   1  16
TORSDOF 2
ENDMDL
MODEL 8
REMARK VINA RESULT:      -6.9      7.037      9.409
REMARK  2 active torsions:
REMARK  status: ('A' for Active; 'I' for Inactive)
REMARK    1  A    between atoms: C_2  and  C_3 
REMARK    2  A    between atoms: C_3  and  N_4 
ROOT
HETATM    1  N   UNL     1       5.410  33.049  60.929  1.00  0.00    -0.203 NA
HETATM    2  S   UNL     1       5.054  32.324  62.427  1.00  0.00     0.219 S 
HETATM    3  O   UNL     1       6.241  31.755  63.008  1.00  0.00    -0.211 OA
HETATM    4  O   UNL     1       3.820  31.586  62.264  1.00  0.00    -0.211 OA
HETATM    5  C   UNL     1       4.601  33.830  63.253  1.00  0.00     0.164 C 
HETATM    6  C   UNL     1       4.547  34.901  62.160  1.00  0.00     0.116 C 
HETATM    7  O   UNL     1       5.753  35.683  62.357  1.00  0.00    -0.369 OA
HETATM    8  C   UNL     1       5.861  35.802  63.787  1.00  0.00     0.149 C 
HETATM    9  C   UNL     1       4.811  36.843  64.238  1.00  0.00     0.264 C 
HETATM   10  N   UNL     1       3.416  36.443  63.783  1.00  0.00    -0.070 N 
HETATM   11  H   UNL     1       3.010  35.780  64.458  1.00  0.00     0.277 HD
HETATM   12  H   UNL     1       2.808  37.275  63.827  1.00  0.00     0.277 HD
HETATM   13  C   UNL     1       3.370  35.871  62.371  1.00  0.00     0.273 C 
HETATM   14  C   UNL     1       4.548  34.244  60.773  1.00  0.00     0.148 C 
HETATM   15  C   UNL     1       5.593  34.379  64.268  1.00  0.00     0.058 C 
ENDROOT
BRANCH   1  16
HETATM   16  C   UNL     1       5.395  32.148  59.749  1.00  0.00     0.145 C 
BRANCH  16  17
HETATM   17  C   UNL     1       6.759  31.710  59.280  1.00  0.00    -0.044 A 
HETATM   18  C   UNL     1       6.887  30.743  58.271  1.00  0.00     0.010 A 
HETATM   19  C   UNL     1       8.150  30.336  57.836  1.00  0.00     0.024 A 
HETATM   20  C   UNL     1       9.292  30.890  58.409  1.00  0.00     0.034 A 
HETATM   21  C   UNL     1       9.181  31.847  59.417  1.00  0.00     0.024 A 
HETATM   22 CL   UNL     1      10.847  30.390  57.871  1.00  0.00    -0.084 Cl
HETATM   23  C   UNL     1       7.918  32.255  59.852  1.00  0.00     0.010 A 
ENDBRANCH  16  17
ENDBRANCH   1  16
TORSDOF 2
ENDMDL
MODEL 9
REMARK VINA RESULT:      -6.8      4.290      5.842
REMARK  2 active torsions:
REMARK  status: ('A' for Active; 'I' for Inactive)
REMARK    1  A    between atoms: C_2  and  C_3 
REMARK    2  A    between atoms: C_3  and  N_4 
ROOT
HETATM    1  N   UNL     1       5.119  26.580  51.143  1.00  0.00    -0.203 NA
HETATM    2  S   UNL     1       4.889  27.841  52.263  1.00  0.00     0.219 S 
HETATM    3  O   UNL     1       6.109  28.114  52.974  1.00  0.00    -0.211 OA
HETATM    4  O   UNL     1       3.623  27.603  52.924  1.00  0.00    -0.211 OA
HETATM    5  C   UNL     1       4.562  29.100  51.053  1.00  0.00     0.164 C 
HETATM    6  C   UNL     1       4.433  28.365  49.716  1.00  0.00     0.116 C 
HETATM    7  O   UNL     1       5.675  28.650  49.022  1.00  0.00    -0.369 OA
HETATM    8  C   UNL     1       5.925  30.037  49.314  1.00  0.00     0.149 C 
HETATM    9  C   UNL     1       4.955  30.867  48.443  1.00  0.00     0.264 C 
HETATM   10  N   UNL     1       3.511  30.462  48.697  1.00  0.00    -0.070 N 
HETATM   11  H   UNL     1       3.153  30.961  49.523  1.00  0.00     0.277 HD
HETATM   12  H   UNL     1       2.934  30.800  47.911  1.00  0.00     0.277 HD
HETATM   13  C   UNL     1       3.312  28.958  48.844  1.00  0.00     0.273 C 
HETATM   14  C   UNL     1       4.281  26.855  49.953  1.00  0.00     0.148 C 
HETATM   15  C   UNL     1       5.663  30.123  50.814  1.00  0.00     0.058 C 
ENDROOT
BRANCH   1  16
HETATM   16  C   UNL     1       4.963  25.202  51.672  1.00  0.00     0.145 C 
BRANCH  16  17
HETATM   17  C   UNL     1       5.998  24.804  52.692  1.00  0.00    -0.044 A 
HETATM   18  C   UNL     1       7.301  24.469  52.290  1.00  0.00     0.010 A 
HETATM   19  C   UNL     1       8.262  24.100  53.234  1.00  0.00     0.024 A 
HETATM   20  C   UNL     1       7.925  24.060  54.585  1.00  0.00     0.034 A 
HETATM   21  C   UNL     1       6.634  24.383  55.000  1.00  0.00     0.024 A 
HETATM   22 CL   UNL     1       9.110  23.607  55.747  1.00  0.00    -0.084 Cl
HETATM   23  C   UNL     1       5.673  24.753  54.056  1.00  0.00     0.010 A 
ENDBRANCH  16  17
ENDBRANCH   1  16
TORSDOF 2
ENDMDL
MODEL 10
REMARK VINA RESULT:      -6.8      4.103      6.157
REMARK  2 active torsions:
REMARK  status: ('A' for Active; 'I' for Inactive)
REMARK    1  A    between atoms: C_2  and  C_3 
REMARK    2  A    between atoms: C_3  and  N_4 
ROOT
HETATM    1  N   UNL     1       5.811  28.016  52.002  1.00  0.00    -0.203 NA
HETATM    2  S   UNL     1       4.317  28.788  52.267  1.00  0.00     0.219 S 
HETATM    3  O   UNL     1       4.510  30.196  52.495  1.00  0.00    -0.211 OA
HETATM    4  O   UNL     1       3.546  27.940  53.150  1.00  0.00    -0.211 OA
HETATM    5  C   UNL     1       3.670  28.491  50.639  1.00  0.00     0.164 C 
HETATM    6  C   UNL     1       4.660  27.535  49.968  1.00  0.00     0.116 C 
HETATM    7  O   UNL     1       5.396  28.368  49.036  1.00  0.00    -0.369 OA
HETATM    8  C   UNL     1       4.391  29.231  48.473  1.00  0.00     0.149 C 
HETATM    9  C   UNL     1       3.578  28.386  47.466  1.00  0.00     0.264 C 
HETATM   10  N   UNL     1       2.990  27.154  48.137  1.00  0.00    -0.070 N 
HETATM   11  H   UNL     1       2.105  27.404  48.601  1.00  0.00     0.277 HD
HETATM   12  H   UNL     1       2.725  26.479  47.404  1.00  0.00     0.277 HD
HETATM   13  C   UNL     1       3.940  26.475  49.116  1.00  0.00     0.273 C 
HETATM   14  C   UNL     1       5.605  26.930  51.016  1.00  0.00     0.148 C 
HETATM   15  C   UNL     1       3.606  29.686  49.699  1.00  0.00     0.058 C 
ENDROOT
BRANCH   1  16
HETATM   16  C   UNL     1       6.544  27.582  53.217  1.00  0.00     0.145 C 
BRANCH  16  17
HETATM   17  C   UNL     1       6.859  26.109  53.263  1.00  0.00    -0.044 A 
HETATM   18  C   UNL     1       7.824  25.561  52.402  1.00  0.00     0.010 A 
HETATM   19  C   UNL     1       8.117  24.196  52.443  1.00  0.00     0.024 A 
HETATM   20  C   UNL     1       7.445  23.371  53.342  1.00  0.00     0.034 A 
HETATM   21  C   UNL     1       6.481  23.898  54.198  1.00  0.00     0.024 A 
HETATM   22 CL   UNL     1       7.808  21.690  53.393  1.00  0.00    -0.084 Cl
HETATM   23  C   UNL     1       6.187  25.263  54.158  1.00  0.00     0.010 A 
ENDBRANCH  16  17
ENDBRANCH   1  16
TORSDOF 2
ENDMDL
