MODEL 1
REMARK VINA RESULT:     -10.4      0.000      0.000
REMARK  13 active torsions:
REMARK  status: ('A' for Active; 'I' for Inactive)
REMARK    1  A    between atoms: C_2  and  O_3 
REMARK    2  A    between atoms: O_3  and  C_4 
REMARK    3  A    between atoms: C_5  and  O_6 
REMARK    4  A    between atoms: C_9  and  C_10 
REMARK    5  A    between atoms: N_11  and  C_12 
REMARK    6  A    between atoms: C_12  and  C_13 
REMARK    7  A    between atoms: C_13  and  N_14 
REMARK    8  A    between atoms: C_23  and  O_24 
REMARK    9  A    between atoms: C_25  and  C_26 
REMARK   10  A    between atoms: C_26  and  C_27 
REMARK   11  A    between atoms: C_31  and  O_32 
REMARK   12  A    between atoms: O_32  and  C_33 
REMARK   13  A    between atoms: C_33  and  C_34 
ROOT
HETATM    1  C   UNL     1       6.969  26.893  53.869  1.00  0.00     0.161 A 
HETATM    2  N   UNL     1       5.593  26.796  53.383  1.00  0.00    -0.332 N 
HETATM    3  C   UNL     1       4.860  27.900  53.732  1.00  0.00     0.278 A 
HETATM    4  O   UNL     1       3.652  28.027  53.626  1.00  0.00    -0.265 OA
HETATM    5  C   UNL     1       5.761  28.864  54.379  1.00  0.00     0.146 A 
HETATM    6  C   UNL     1       6.966  28.281  54.451  1.00  0.00     0.059 A 
ENDROOT
BRANCH   6   7
HETATM    7  C   UNL     1       8.224  28.852  54.980  1.00  0.00     0.194 C 
HETATM    8  O   UNL     1       9.230  28.909  54.286  1.00  0.00    -0.287 OA
BRANCH   7   9
HETATM    9  C   UNL     1       8.233  29.377  56.358  1.00  0.00     0.021 A 
HETATM   10  C   UNL     1       9.437  29.616  57.038  1.00  0.00    -0.045 A 
HETATM   11  C   UNL     1      10.774  29.514  56.366  1.00  0.00     0.049 C 
HETATM   12  C   UNL     1       9.367  29.998  58.387  1.00  0.00     0.044 A 
HETATM   13  C   UNL     1       8.137  30.118  59.044  1.00  0.00     0.069 A 
HETATM   14  C   UNL     1       6.952  29.937  58.332  1.00  0.00     0.038 A 
HETATM   15  C   UNL     1       6.996  29.568  56.986  1.00  0.00     0.019 A 
BRANCH  13  16
HETATM   16  O   UNL     1       8.224  30.425  60.374  1.00  0.00    -0.347 OA
BRANCH  16  17
HETATM   17  C   UNL     1       8.883  31.651  60.694  1.00  0.00     0.214 C 
BRANCH  17  18
HETATM   18  C   UNL     1       8.058  32.382  61.721  1.00  0.00    -0.034 A 
HETATM   19  C   UNL     1       8.387  32.301  63.082  1.00  0.00     0.009 A 
HETATM   20  C   UNL     1       7.625  32.975  64.037  1.00  0.00     0.001 A 
HETATM   21  C   UNL     1       6.523  33.732  63.642  1.00  0.00     0.000 A 
HETATM   22  C   UNL     1       6.176  33.809  62.295  1.00  0.00     0.001 A 
HETATM   23  C   UNL     1       6.937  33.134  61.339  1.00  0.00     0.009 A 
ENDBRANCH  17  18
ENDBRANCH  16  17
ENDBRANCH  13  16
ENDBRANCH   7   9
ENDBRANCH   6   7
BRANCH   1  24
HETATM   24  C   UNL     1       7.245  25.758  54.840  1.00  0.00    -0.028 A 
HETATM   25  C   UNL     1       6.876  25.914  56.190  1.00  0.00     0.012 A 
HETATM   26  C   UNL     1       7.214  24.950  57.138  1.00  0.00     0.040 A 
HETATM   27  C   UNL     1       7.906  23.817  56.740  1.00  0.00     0.099 A 
HETATM   28  C   UNL     1       8.249  23.611  55.403  1.00  0.00     0.102 A 
HETATM   29  C   UNL     1       7.941  24.591  54.458  1.00  0.00     0.049 A 
BRANCH  27  30
HETATM   30  O   UNL     1       8.240  22.898  57.692  1.00  0.00    -0.358 OA
HETATM   31  H   UNL     1       8.327  23.392  58.531  1.00  0.00     0.218 HD
ENDBRANCH  27  30
BRANCH  28  32
HETATM   32  O   UNL     1       8.935  22.458  55.130  1.00  0.00    -0.349 OA
BRANCH  32  33
HETATM   33  C   UNL     1       8.923  22.057  53.756  1.00  0.00     0.171 C 
HETATM   34  C   UNL     1       7.963  20.890  53.616  1.00  0.00     0.034 C 
ENDBRANCH  32  33
ENDBRANCH  28  32
ENDBRANCH   1  24
BRANCH   5  35
HETATM   35  O   UNL     1       5.359  30.093  54.798  1.00  0.00    -0.355 OA
HETATM   36  H   UNL     1       4.762  30.460  54.117  1.00  0.00     0.218 HD
ENDBRANCH   5  35
BRANCH   2  37
HETATM   37  C   UNL     1       5.082  25.666  52.607  1.00  0.00     0.155 C 
BRANCH  37  38
HETATM   38  C   UNL     1       5.439  25.712  51.105  1.00  0.00     0.255 C 
BRANCH  38  39
HETATM   39  N   UNL     1       4.514  26.626  50.329  1.00  0.00    -0.066 N 
HETATM   40  H   UNL     1       3.692  26.812  50.923  1.00  0.00     0.280 HD
HETATM   41  C   UNL     1       5.088  28.011  50.052  1.00  0.00     0.261 C 
HETATM   42  C   UNL     1       4.023  28.861  49.345  1.00  0.00     0.195 C 
HETATM   43  O   UNL     1       3.590  28.233  48.132  1.00  0.00    -0.388 OA
HETATM   44  C   UNL     1       3.001  26.951  48.378  1.00  0.00     0.195 C 
HETATM   45  C   UNL     1       4.006  26.001  49.040  1.00  0.00     0.261 C 
ENDBRANCH  38  39
ENDBRANCH  37  38
ENDBRANCH   2  37
TORSDOF 13
ENDMDL
MODEL 2
REMARK VINA RESULT:     -10.1      3.831      8.191
REMARK  13 active torsions:
REMARK  status: ('A' for Active; 'I' for Inactive)
REMARK    1  A    between atoms: C_2  and  O_3 
REMARK    2  A    between atoms: O_3  and  C_4 
REMARK    3  A    between atoms: C_5  and  O_6 
REMARK    4  A    between atoms: C_9  and  C_10 
REMARK    5  A    between atoms: N_11  and  C_12 
REMARK    6  A    between atoms: C_12  and  C_13 
REMARK    7  A    between atoms: C_13  and  N_14 
REMARK    8  A    between atoms: C_23  and  O_24 
REMARK    9  A    between atoms: C_25  and  C_26 
REMARK   10  A    between atoms: C_26  and  C_27 
REMARK   11  A    between atoms: C_31  and  O_32 
REMARK   12  A    between atoms: O_32  and  C_33 
REMARK   13  A    between atoms: C_33  and  C_34 
ROOT
HETATM    1  C   UNL     1       4.669  30.608  54.391  1.00  0.00     0.161 A 
HETATM    2  N   UNL     1       3.393  31.325  54.397  1.00  0.00    -0.332 N 
HETATM    3  C   UNL     1       2.788  31.259  55.624  1.00  0.00     0.278 A 
HETATM    4  O   UNL     1       1.647  31.603  55.885  1.00  0.00    -0.265 OA
HETATM    5  C   UNL     1       3.704  30.582  56.552  1.00  0.00     0.146 A 
HETATM    6  C   UNL     1       4.778  30.215  55.839  1.00  0.00     0.059 A 
ENDROOT
BRANCH   6   7
HETATM    7  C   UNL     1       6.002  29.537  56.319  1.00  0.00     0.194 C 
HETATM    8  O   UNL     1       6.862  30.152  56.936  1.00  0.00    -0.287 OA
BRANCH   7   9
HETATM    9  C   UNL     1       6.154  28.094  56.060  1.00  0.00     0.021 A 
HETATM   10  C   UNL     1       7.079  27.617  55.118  1.00  0.00    -0.045 A 
HETATM   11  C   UNL     1       8.074  28.513  54.444  1.00  0.00     0.049 C 
HETATM   12  C   UNL     1       7.082  26.242  54.835  1.00  0.00     0.044 A 
HETATM   13  C   UNL     1       6.177  25.372  55.455  1.00  0.00     0.069 A 
HETATM   14  C   UNL     1       5.309  25.857  56.433  1.00  0.00     0.038 A 
HETATM   15  C   UNL     1       5.297  27.219  56.740  1.00  0.00     0.019 A 
BRANCH  13  16
HETATM   16  O   UNL     1       6.245  24.074  55.030  1.00  0.00    -0.347 OA
BRANCH  16  17
HETATM   17  C   UNL     1       7.143  23.812  53.951  1.00  0.00     0.214 C 
BRANCH  17  18
HETATM   18  C   UNL     1       7.722  22.432  54.135  1.00  0.00    -0.034 A 
HETATM   19  C   UNL     1       8.061  21.973  55.416  1.00  0.00     0.009 A 
HETATM   20  C   UNL     1       8.598  20.697  55.591  1.00  0.00     0.001 A 
HETATM   21  C   UNL     1       8.808  19.871  54.488  1.00  0.00     0.000 A 
HETATM   22  C   UNL     1       8.489  20.321  53.210  1.00  0.00     0.001 A 
HETATM   23  C   UNL     1       7.952  21.598  53.033  1.00  0.00     0.009 A 
ENDBRANCH  17  18
ENDBRANCH  16  17
ENDBRANCH  13  16
ENDBRANCH   7   9
ENDBRANCH   6   7
BRANCH   1  24
HETATM   24  C   UNL     1       4.605  29.469  53.388  1.00  0.00    -0.028 A 
HETATM   25  C   UNL     1       3.880  28.309  53.724  1.00  0.00     0.012 A 
HETATM   26  C   UNL     1       3.891  27.193  52.887  1.00  0.00     0.040 A 
HETATM   27  C   UNL     1       4.609  27.239  51.703  1.00  0.00     0.099 A 
HETATM   28  C   UNL     1       5.301  28.388  51.319  1.00  0.00     0.102 A 
HETATM   29  C   UNL     1       5.319  29.493  52.172  1.00  0.00     0.049 A 
BRANCH  27  30
HETATM   30  O   UNL     1       4.616  26.126  50.911  1.00  0.00    -0.358 OA
HETATM   31  H   UNL     1       3.865  25.576  51.206  1.00  0.00     0.218 HD
ENDBRANCH  27  30
BRANCH  28  32
HETATM   32  O   UNL     1       5.977  28.313  50.131  1.00  0.00    -0.349 OA
BRANCH  32  33
HETATM   33  C   UNL     1       5.394  29.055  49.054  1.00  0.00     0.171 C 
HETATM   34  C   UNL     1       5.107  28.088  47.920  1.00  0.00     0.034 C 
ENDBRANCH  32  33
ENDBRANCH  28  32
ENDBRANCH   1  24
BRANCH   5  35
HETATM   35  O   UNL     1       3.429  30.401  57.871  1.00  0.00    -0.355 OA
HETATM   36  H   UNL     1       2.630  30.924  58.083  1.00  0.00     0.218 HD
ENDBRANCH   5  35
BRANCH   2  37
HETATM   37  C   UNL     1       2.853  32.035  53.237  1.00  0.00     0.155 C 
BRANCH  37  38
HETATM   38  C   UNL     1       2.724  33.562  53.429  1.00  0.00     0.255 C 
BRANCH  38  39
HETATM   39  N   UNL     1       4.016  34.286  53.113  1.00  0.00    -0.066 N 
HETATM   40  H   UNL     1       3.769  35.225  52.768  1.00  0.00     0.280 HD
HETATM   41  C   UNL     1       4.896  34.560  54.328  1.00  0.00     0.261 C 
HETATM   42  C   UNL     1       6.121  35.373  53.886  1.00  0.00     0.195 C 
HETATM   43  O   UNL     1       6.853  34.680  52.868  1.00  0.00    -0.388 OA
HETATM   44  C   UNL     1       6.058  34.458  51.698  1.00  0.00     0.195 C 
HETATM   45  C   UNL     1       4.826  33.604  52.022  1.00  0.00     0.261 C 
ENDBRANCH  38  39
ENDBRANCH  37  38
ENDBRANCH   2  37
TORSDOF 13
ENDMDL
MODEL 3
REMARK VINA RESULT:     -10.0      6.327     12.165
REMARK  13 active torsions:
REMARK  status: ('A' for Active; 'I' for Inactive)
REMARK    1  A    between atoms: C_2  and  O_3 
REMARK    2  A    between atoms: O_3  and  C_4 
REMARK    3  A    between atoms: C_5  and  O_6 
REMARK    4  A    between atoms: C_9  and  C_10 
REMARK    5  A    between atoms: N_11  and  C_12 
REMARK    6  A    between atoms: C_12  and  C_13 
REMARK    7  A    between atoms: C_13  and  N_14 
REMARK    8  A    between atoms: C_23  and  O_24 
REMARK    9  A    between atoms: C_25  and  C_26 
REMARK   10  A    between atoms: C_26  and  C_27 
REMARK   11  A    between atoms: C_31  and  O_32 
REMARK   12  A    between atoms: O_32  and  C_33 
REMARK   13  A    between atoms: C_33  and  C_34 
ROOT
HETATM    1  C   UNL     1       4.891  35.187  62.735  1.00  0.00     0.161 A 
HETATM    2  N   UNL     1       4.827  36.216  63.772  1.00  0.00    -0.332 N 
HETATM    3  C   UNL     1       4.728  35.662  65.021  1.00  0.00     0.278 A 
HETATM    4  O   UNL     1       4.480  36.258  66.056  1.00  0.00    -0.265 OA
HETATM    5  C   UNL     1       4.843  34.204  64.888  1.00  0.00     0.146 A 
HETATM    6  C   UNL     1       4.938  33.940  63.577  1.00  0.00     0.059 A 
ENDROOT
BRANCH   6   7
HETATM    7  C   UNL     1       5.114  32.625  62.922  1.00  0.00     0.194 C 
HETATM    8  O   UNL     1       4.361  31.693  63.168  1.00  0.00    -0.287 OA
BRANCH   7   9
HETATM    9  C   UNL     1       6.207  32.469  61.944  1.00  0.00     0.021 A 
HETATM   10  C   UNL     1       7.552  32.500  62.344  1.00  0.00    -0.045 A 
HETATM   11  C   UNL     1       7.960  32.527  63.787  1.00  0.00     0.049 C 
HETATM   12  C   UNL     1       8.537  32.468  61.345  1.00  0.00     0.044 A 
HETATM   13  C   UNL     1       8.194  32.428  59.989  1.00  0.00     0.069 A 
HETATM   14  C   UNL     1       6.853  32.335  59.616  1.00  0.00     0.038 A 
HETATM   15  C   UNL     1       5.856  32.352  60.594  1.00  0.00     0.019 A 
BRANCH  13  16
HETATM   16  O   UNL     1       9.254  32.475  59.127  1.00  0.00    -0.347 OA
BRANCH  16  17
HETATM   17  C   UNL     1      10.120  31.340  59.133  1.00  0.00     0.214 C 
BRANCH  17  18
HETATM   18  C   UNL     1       9.707  30.418  58.014  1.00  0.00    -0.034 A 
HETATM   19  C   UNL     1      10.387  30.445  56.788  1.00  0.00     0.009 A 
HETATM   20  C   UNL     1      10.008  29.594  55.748  1.00  0.00     0.001 A 
HETATM   21  C   UNL     1       8.941  28.714  55.922  1.00  0.00     0.000 A 
HETATM   22  C   UNL     1       8.248  28.689  57.130  1.00  0.00     0.001 A 
HETATM   23  C   UNL     1       8.626  29.539  58.170  1.00  0.00     0.009 A 
ENDBRANCH  17  18
ENDBRANCH  16  17
ENDBRANCH  13  16
ENDBRANCH   7   9
ENDBRANCH   6   7
BRANCH   1  24
HETATM   24  C   UNL     1       3.696  35.326  61.808  1.00  0.00    -0.028 A 
HETATM   25  C   UNL     1       2.422  34.960  62.283  1.00  0.00     0.012 A 
HETATM   26  C   UNL     1       1.316  34.960  61.433  1.00  0.00     0.040 A 
HETATM   27  C   UNL     1       1.475  35.343  60.111  1.00  0.00     0.099 A 
HETATM   28  C   UNL     1       2.714  35.754  59.619  1.00  0.00     0.102 A 
HETATM   29  C   UNL     1       3.828  35.722  60.460  1.00  0.00     0.049 A 
BRANCH  27  30
HETATM   30  O   UNL     1       0.379  35.317  59.297  1.00  0.00    -0.358 OA
HETATM   31  H   UNL     1       0.695  35.560  58.405  1.00  0.00     0.218 HD
ENDBRANCH  27  30
BRANCH  28  32
HETATM   32  O   UNL     1       2.750  36.106  58.296  1.00  0.00    -0.349 OA
BRANCH  32  33
HETATM   33  C   UNL     1       3.832  35.542  57.549  1.00  0.00     0.171 C 
HETATM   34  C   UNL     1       3.509  34.082  57.284  1.00  0.00     0.034 C 
ENDBRANCH  32  33
ENDBRANCH  28  32
ENDBRANCH   1  24
BRANCH   5  35
HETATM   35  O   UNL     1       4.839  33.356  65.950  1.00  0.00    -0.355 OA
HETATM   36  H   UNL     1       5.596  32.746  65.848  1.00  0.00     0.218 HD
ENDBRANCH   5  35
BRANCH   2  37
HETATM   37  C   UNL     1       4.883  37.652  63.498  1.00  0.00     0.155 C 
BRANCH  37  38
HETATM   38  C   UNL     1       6.282  38.170  63.097  1.00  0.00     0.255 C 
BRANCH  38  39
HETATM   39  N   UNL     1       6.201  39.326  62.122  1.00  0.00    -0.066 N 
HETATM   40  H   UNL     1       5.278  39.769  62.243  1.00  0.00     0.280 HD
HETATM   41  C   UNL     1       7.190  40.453  62.401  1.00  0.00     0.261 C 
HETATM   42  C   UNL     1       6.942  41.594  61.404  1.00  0.00     0.195 C 
HETATM   43  O   UNL     1       7.063  41.128  60.054  1.00  0.00    -0.388 OA
HETATM   44  C   UNL     1       6.107  40.103  59.758  1.00  0.00     0.195 C 
HETATM   45  C   UNL     1       6.302  38.887  60.670  1.00  0.00     0.261 C 
ENDBRANCH  38  39
ENDBRANCH  37  38
ENDBRANCH   2  37
TORSDOF 13
ENDMDL
MODEL 4
REMARK VINA RESULT:     -10.0      3.957     11.003
REMARK  13 active torsions:
REMARK  status: ('A' for Active; 'I' for Inactive)
REMARK    1  A    between atoms: C_2  and  O_3 
REMARK    2  A    between atoms: O_3  and  C_4 
REMARK    3  A    between atoms: C_5  and  O_6 
REMARK    4  A    between atoms: C_9  and  C_10 
REMARK    5  A    between atoms: N_11  and  C_12 
REMARK    6  A    between atoms: C_12  and  C_13 
REMARK    7  A    between atoms: C_13  and  N_14 
REMARK    8  A    between atoms: C_23  and  O_24 
REMARK    9  A    between atoms: C_25  and  C_26 
REMARK   10  A    between atoms: C_26  and  C_27 
REMARK   11  A    between atoms: C_31  and  O_32 
REMARK   12  A    between atoms: O_32  and  C_33 
REMARK   13  A    between atoms: C_33  and  C_34 
ROOT
HETATM    1  C   UNL     1       6.861  32.678  60.042  1.00  0.00     0.161 A 
HETATM    2  N   UNL     1       6.376  32.635  61.422  1.00  0.00    -0.332 N 
HETATM    3  C   UNL     1       6.952  31.609  62.123  1.00  0.00     0.278 A 
HETATM    4  O   UNL     1       6.619  31.214  63.228  1.00  0.00    -0.265 OA
HETATM    5  C   UNL     1       7.962  30.975  61.264  1.00  0.00     0.146 A 
HETATM    6  C   UNL     1       7.904  31.594  60.076  1.00  0.00     0.059 A 
ENDROOT
BRANCH   6   7
HETATM    7  C   UNL     1       8.745  31.355  58.883  1.00  0.00     0.194 C 
HETATM    8  O   UNL     1       9.630  32.140  58.568  1.00  0.00    -0.287 OA
BRANCH   7   9
HETATM    9  C   UNL     1       8.511  30.132  58.092  1.00  0.00     0.021 A 
HETATM   10  C   UNL     1       9.538  29.548  57.334  1.00  0.00    -0.045 A 
HETATM   11  C   UNL     1      10.959  30.022  57.406  1.00  0.00     0.049 C 
HETATM   12  C   UNL     1       9.211  28.459  56.511  1.00  0.00     0.044 A 
HETATM   13  C   UNL     1       7.898  27.980  56.429  1.00  0.00     0.069 A 
HETATM   14  C   UNL     1       6.907  28.535  57.238  1.00  0.00     0.038 A 
HETATM   15  C   UNL     1       7.212  29.611  58.074  1.00  0.00     0.019 A 
BRANCH  13  16
HETATM   16  O   UNL     1       7.713  26.963  55.534  1.00  0.00    -0.347 OA
BRANCH  16  17
HETATM   17  C   UNL     1       7.433  25.678  56.090  1.00  0.00     0.214 C 
BRANCH  17  18
HETATM   18  C   UNL     1       7.647  24.638  55.020  1.00  0.00    -0.034 A 
HETATM   19  C   UNL     1       7.369  24.935  53.678  1.00  0.00     0.009 A 
HETATM   20  C   UNL     1       7.564  23.976  52.684  1.00  0.00     0.001 A 
HETATM   21  C   UNL     1       8.032  22.707  53.023  1.00  0.00     0.000 A 
HETATM   22  C   UNL     1       8.298  22.394  54.354  1.00  0.00     0.001 A 
HETATM   23  C   UNL     1       8.102  23.353  55.349  1.00  0.00     0.009 A 
ENDBRANCH  17  18
ENDBRANCH  16  17
ENDBRANCH  13  16
ENDBRANCH   7   9
ENDBRANCH   6   7
BRANCH   1  24
HETATM   24  C   UNL     1       5.699  32.461  59.089  1.00  0.00    -0.028 A 
HETATM   25  C   UNL     1       4.657  31.596  59.474  1.00  0.00     0.012 A 
HETATM   26  C   UNL     1       3.630  31.275  58.587  1.00  0.00     0.040 A 
HETATM   27  C   UNL     1       3.629  31.832  57.318  1.00  0.00     0.099 A 
HETATM   28  C   UNL     1       4.622  32.727  56.920  1.00  0.00     0.102 A 
HETATM   29  C   UNL     1       5.669  33.023  57.795  1.00  0.00     0.049 A 
BRANCH  27  30
HETATM   30  O   UNL     1       2.621  31.487  56.463  1.00  0.00    -0.358 OA
HETATM   31  H   UNL     1       2.848  31.884  55.600  1.00  0.00     0.218 HD
ENDBRANCH  27  30
BRANCH  28  32
HETATM   32  O   UNL     1       4.519  33.210  55.642  1.00  0.00    -0.349 OA
BRANCH  32  33
HETATM   33  C   UNL     1       4.276  34.617  55.544  1.00  0.00     0.171 C 
HETATM   34  C   UNL     1       5.454  35.248  54.825  1.00  0.00     0.034 C 
ENDBRANCH  32  33
ENDBRANCH  28  32
ENDBRANCH   1  24
BRANCH   5  35
HETATM   35  O   UNL     1       8.757  29.954  61.679  1.00  0.00    -0.355 OA
HETATM   36  H   UNL     1       9.418  29.787  60.978  1.00  0.00     0.218 HD
ENDBRANCH   5  35
BRANCH   2  37
HETATM   37  C   UNL     1       5.411  33.585  61.975  1.00  0.00     0.155 C 
BRANCH  37  38
HETATM   38  C   UNL     1       6.047  34.754  62.759  1.00  0.00     0.255 C 
BRANCH  38  39
HETATM   39  N   UNL     1       5.560  34.807  64.192  1.00  0.00    -0.066 N 
HETATM   40  H   UNL     1       5.579  35.795  64.490  1.00  0.00     0.280 HD
HETATM   41  C   UNL     1       4.103  34.395  64.376  1.00  0.00     0.261 C 
HETATM   42  C   UNL     1       3.713  34.581  65.849  1.00  0.00     0.195 C 
HETATM   43  O   UNL     1       4.573  33.820  66.706  1.00  0.00    -0.388 OA
HETATM   44  C   UNL     1       5.941  34.228  66.584  1.00  0.00     0.195 C 
HETATM   45  C   UNL     1       6.449  34.032  65.151  1.00  0.00     0.261 C 
ENDBRANCH  38  39
ENDBRANCH  37  38
ENDBRANCH   2  37
TORSDOF 13
ENDMDL
MODEL 5
REMARK VINA RESULT:      -9.8      4.752      8.882
REMARK  13 active torsions:
REMARK  status: ('A' for Active; 'I' for Inactive)
REMARK    1  A    between atoms: C_2  and  O_3 
REMARK    2  A    between atoms: O_3  and  C_4 
REMARK    3  A    between atoms: C_5  and  O_6 
REMARK    4  A    between atoms: C_9  and  C_10 
REMARK    5  A    between atoms: N_11  and  C_12 
REMARK    6  A    between atoms: C_12  and  C_13 
REMARK    7  A    between atoms: C_13  and  N_14 
REMARK    8  A    between atoms: C_23  and  O_24 
REMARK    9  A    between atoms: C_25  and  C_26 
REMARK   10  A    between atoms: C_26  and  C_27 
REMARK   11  A    between atoms: C_31  and  O_32 
REMARK   12  A    between atoms: O_32  and  C_33 
REMARK   13  A    between atoms: C_33  and  C_34 
ROOT
HETATM    1  C   UNL     1       5.079  28.891  50.735  1.00  0.00     0.161 A 
HETATM    2  N   UNL     1       5.156  30.273  50.261  1.00  0.00    -0.332 N 
HETATM    3  C   UNL     1       4.469  31.124  51.086  1.00  0.00     0.278 A 
HETATM    4  O   UNL     1       4.205  32.293  50.858  1.00  0.00    -0.265 OA
HETATM    5  C   UNL     1       3.988  30.355  52.242  1.00  0.00     0.146 A 
HETATM    6  C   UNL     1       4.342  29.079  52.033  1.00  0.00     0.059 A 
ENDROOT
BRANCH   6   7
HETATM    7  C   UNL     1       4.128  27.916  52.924  1.00  0.00     0.194 C 
HETATM    8  O   UNL     1       3.093  27.797  53.565  1.00  0.00    -0.287 OA
BRANCH   7   9
HETATM    9  C   UNL     1       5.182  26.888  53.002  1.00  0.00     0.021 A 
HETATM   10  C   UNL     1       6.395  27.139  53.662  1.00  0.00    -0.045 A 
HETATM   11  C   UNL     1       6.633  28.385  54.461  1.00  0.00     0.049 C 
HETATM   12  C   UNL     1       7.398  26.159  53.591  1.00  0.00     0.044 A 
HETATM   13  C   UNL     1       7.207  24.976  52.867  1.00  0.00     0.069 A 
HETATM   14  C   UNL     1       5.972  24.721  52.271  1.00  0.00     0.038 A 
HETATM   15  C   UNL     1       4.955  25.676  52.339  1.00  0.00     0.019 A 
BRANCH  13  16
HETATM   16  O   UNL     1       8.294  24.148  52.824  1.00  0.00    -0.347 OA
BRANCH  16  17
HETATM   17  C   UNL     1       8.016  22.749  52.758  1.00  0.00     0.214 C 
BRANCH  17  18
HETATM   18  C   UNL     1       8.154  22.169  54.143  1.00  0.00    -0.034 A 
HETATM   19  C   UNL     1       7.969  20.796  54.357  1.00  0.00     0.009 A 
HETATM   20  C   UNL     1       8.094  20.256  55.638  1.00  0.00     0.001 A 
HETATM   21  C   UNL     1       8.398  21.083  56.717  1.00  0.00     0.000 A 
HETATM   22  C   UNL     1       8.569  22.452  56.520  1.00  0.00     0.001 A 
HETATM   23  C   UNL     1       8.443  22.993  55.240  1.00  0.00     0.009 A 
ENDBRANCH  17  18
ENDBRANCH  16  17
ENDBRANCH  13  16
ENDBRANCH   7   9
ENDBRANCH   6   7
BRANCH   1  24
HETATM   24  C   UNL     1       4.388  28.035  49.688  1.00  0.00    -0.028 A 
HETATM   25  C   UNL     1       5.164  27.154  48.910  1.00  0.00     0.012 A 
HETATM   26  C   UNL     1       4.592  26.436  47.860  1.00  0.00     0.040 A 
HETATM   27  C   UNL     1       3.239  26.580  47.595  1.00  0.00     0.099 A 
HETATM   28  C   UNL     1       2.433  27.410  48.375  1.00  0.00     0.102 A 
HETATM   29  C   UNL     1       3.011  28.155  49.404  1.00  0.00     0.049 A 
BRANCH  27  30
HETATM   30  O   UNL     1       2.709  25.878  46.551  1.00  0.00    -0.358 OA
HETATM   31  H   UNL     1       3.461  25.447  46.101  1.00  0.00     0.218 HD
ENDBRANCH  27  30
BRANCH  28  32
HETATM   32  O   UNL     1       1.113  27.475  48.016  1.00  0.00    -0.349 OA
BRANCH  32  33
HETATM   33  C   UNL     1       0.776  28.555  47.141  1.00  0.00     0.171 C 
HETATM   34  C   UNL     1      -0.141  28.014  46.059  1.00  0.00     0.034 C 
ENDBRANCH  32  33
ENDBRANCH  28  32
ENDBRANCH   1  24
BRANCH   5  35
HETATM   35  O   UNL     1       3.312  30.914  53.279  1.00  0.00    -0.355 OA
HETATM   36  H   UNL     1       3.502  31.873  53.277  1.00  0.00     0.218 HD
ENDBRANCH   5  35
BRANCH   2  37
HETATM   37  C   UNL     1       5.894  30.684  49.066  1.00  0.00     0.155 C 
BRANCH  37  38
HETATM   38  C   UNL     1       5.004  31.191  47.911  1.00  0.00     0.255 C 
BRANCH  38  39
HETATM   39  N   UNL     1       5.374  32.597  47.485  1.00  0.00    -0.066 N 
HETATM   40  H   UNL     1       5.694  32.549  46.505  1.00  0.00     0.280 HD
HETATM   41  C   UNL     1       4.201  33.570  47.443  1.00  0.00     0.261 C 
HETATM   42  C   UNL     1       4.694  34.923  46.910  1.00  0.00     0.195 C 
HETATM   43  O   UNL     1       5.757  35.436  47.723  1.00  0.00    -0.388 OA
HETATM   44  C   UNL     1       6.888  34.558  47.734  1.00  0.00     0.195 C 
HETATM   45  C   UNL     1       6.514  33.184  48.301  1.00  0.00     0.261 C 
ENDBRANCH  38  39
ENDBRANCH  37  38
ENDBRANCH   2  37
TORSDOF 13
ENDMDL
MODEL 6
REMARK VINA RESULT:      -9.8      1.525      2.120
REMARK  13 active torsions:
REMARK  status: ('A' for Active; 'I' for Inactive)
REMARK    1  A    between atoms: C_2  and  O_3 
REMARK    2  A    between atoms: O_3  and  C_4 
REMARK    3  A    between atoms: C_5  and  O_6 
REMARK    4  A    between atoms: C_9  and  C_10 
REMARK    5  A    between atoms: N_11  and  C_12 
REMARK    6  A    between atoms: C_12  and  C_13 
REMARK    7  A    between atoms: C_13  and  N_14 
REMARK    8  A    between atoms: C_23  and  O_24 
REMARK    9  A    between atoms: C_25  and  C_26 
REMARK   10  A    between atoms: C_26  and  C_27 
REMARK   11  A    between atoms: C_31  and  O_32 
REMARK   12  A    between atoms: O_32  and  C_33 
REMARK   13  A    between atoms: C_33  and  C_34 
ROOT
HETATM    1  C   UNL     1       6.590  27.374  54.206  1.00  0.00     0.161 A 
HETATM    2  N   UNL     1       5.569  27.634  53.192  1.00  0.00    -0.332 N 
HETATM    3  C   UNL     1       4.357  27.921  53.763  1.00  0.00     0.278 A 
HETATM    4  O   UNL     1       3.288  28.004  53.182  1.00  0.00    -0.265 OA
HETATM    5  C   UNL     1       4.539  27.986  55.219  1.00  0.00     0.146 A 
HETATM    6  C   UNL     1       5.819  27.673  55.464  1.00  0.00     0.059 A 
ENDROOT
BRANCH   6   7
HETATM    7  C   UNL     1       6.515  27.637  56.770  1.00  0.00     0.194 C 
HETATM    8  O   UNL     1       6.688  26.580  57.362  1.00  0.00    -0.287 OA
BRANCH   7   9
HETATM    9  C   UNL     1       7.019  28.903  57.332  1.00  0.00     0.021 A 
HETATM   10  C   UNL     1       8.395  29.151  57.447  1.00  0.00    -0.045 A 
HETATM   11  C   UNL     1       9.429  28.234  56.863  1.00  0.00     0.049 C 
HETATM   12  C   UNL     1       8.801  30.324  58.103  1.00  0.00     0.044 A 
HETATM   13  C   UNL     1       7.865  31.211  58.648  1.00  0.00     0.069 A 
HETATM   14  C   UNL     1       6.503  30.976  58.469  1.00  0.00     0.038 A 
HETATM   15  C   UNL     1       6.076  29.822  57.808  1.00  0.00     0.019 A 
BRANCH  13  16
HETATM   16  O   UNL     1       8.405  32.272  59.322  1.00  0.00    -0.347 OA
BRANCH  16  17
HETATM   17  C   UNL     1       9.002  31.977  60.585  1.00  0.00     0.214 C 
BRANCH  17  18
HETATM   18  C   UNL     1       8.133  32.556  61.672  1.00  0.00    -0.034 A 
HETATM   19  C   UNL     1       8.427  32.310  63.020  1.00  0.00     0.009 A 
HETATM   20  C   UNL     1       7.624  32.843  64.029  1.00  0.00     0.001 A 
HETATM   21  C   UNL     1       6.515  33.620  63.701  1.00  0.00     0.000 A 
HETATM   22  C   UNL     1       6.203  33.859  62.364  1.00  0.00     0.001 A 
HETATM   23  C   UNL     1       7.005  33.326  61.354  1.00  0.00     0.009 A 
ENDBRANCH  17  18
ENDBRANCH  16  17
ENDBRANCH  13  16
ENDBRANCH   7   9
ENDBRANCH   6   7
BRANCH   1  24
HETATM   24  C   UNL     1       7.104  25.953  54.056  1.00  0.00    -0.028 A 
HETATM   25  C   UNL     1       6.690  25.195  52.943  1.00  0.00     0.012 A 
HETATM   26  C   UNL     1       7.041  23.851  52.825  1.00  0.00     0.040 A 
HETATM   27  C   UNL     1       7.822  23.262  53.807  1.00  0.00     0.099 A 
HETATM   28  C   UNL     1       8.285  23.996  54.899  1.00  0.00     0.102 A 
HETATM   29  C   UNL     1       7.907  25.333  55.037  1.00  0.00     0.049 A 
BRANCH  27  30
HETATM   30  O   UNL     1       8.136  21.940  53.674  1.00  0.00    -0.358 OA
HETATM   31  H   UNL     1       7.795  21.665  52.801  1.00  0.00     0.218 HD
ENDBRANCH  27  30
BRANCH  28  32
HETATM   32  O   UNL     1       9.045  23.307  55.806  1.00  0.00    -0.349 OA
BRANCH  32  33
HETATM   33  C   UNL     1       8.357  22.915  56.999  1.00  0.00     0.171 C 
HETATM   34  C   UNL     1       8.355  21.399  57.062  1.00  0.00     0.034 C 
ENDBRANCH  32  33
ENDBRANCH  28  32
ENDBRANCH   1  24
BRANCH   5  35
HETATM   35  O   UNL     1       3.538  28.305  56.081  1.00  0.00    -0.355 OA
HETATM   36  H   UNL     1       3.687  27.806  56.909  1.00  0.00     0.218 HD
ENDBRANCH   5  35
BRANCH   2  37
HETATM   37  C   UNL     1       5.828  27.607  51.752  1.00  0.00     0.155 C 
BRANCH  37  38
HETATM   38  C   UNL     1       5.236  28.804  50.976  1.00  0.00     0.255 C 
BRANCH  38  39
HETATM   39  N   UNL     1       4.396  28.357  49.797  1.00  0.00    -0.066 N 
HETATM   40  H   UNL     1       4.823  28.752  48.945  1.00  0.00     0.280 HD
HETATM   41  C   UNL     1       4.409  26.852  49.552  1.00  0.00     0.261 C 
HETATM   42  C   UNL     1       3.600  26.546  48.284  1.00  0.00     0.195 C 
HETATM   43  O   UNL     1       2.258  27.034  48.403  1.00  0.00    -0.388 OA
HETATM   44  C   UNL     1       2.224  28.455  48.583  1.00  0.00     0.195 C 
HETATM   45  C   UNL     1       2.965  28.866  49.861  1.00  0.00     0.261 C 
ENDBRANCH  38  39
ENDBRANCH  37  38
ENDBRANCH   2  37
TORSDOF 13
ENDMDL
MODEL 7
REMARK VINA RESULT:      -9.8      6.058     12.857
REMARK  13 active torsions:
REMARK  status: ('A' for Active; 'I' for Inactive)
REMARK    1  A    between atoms: C_2  and  O_3 
REMARK    2  A    between atoms: O_3  and  C_4 
REMARK    3  A    between atoms: C_5  and  O_6 
REMARK    4  A    between atoms: C_9  and  C_10 
REMARK    5  A    between atoms: N_11  and  C_12 
REMARK    6  A    between atoms: C_12  and  C_13 
REMARK    7  A    between atoms: C_13  and  N_14 
REMARK    8  A    between atoms: C_23  and  O_24 
REMARK    9  A    between atoms: C_25  and  C_26 
REMARK   10  A    between atoms: C_26  and  C_27 
REMARK   11  A    between atoms: C_31  and  O_32 
REMARK   12  A    between atoms: O_32  and  C_33 
REMARK   13  A    between atoms: C_33  and  C_34 
ROOT
HETATM    1  C   UNL     1       4.955  35.180  63.023  1.00  0.00     0.161 A 
HETATM    2  N   UNL     1       4.861  36.180  64.087  1.00  0.00    -0.332 N 
HETATM    3  C   UNL     1       4.825  35.592  65.325  1.00  0.00     0.278 A 
HETATM    4  O   UNL     1       4.572  36.148  66.380  1.00  0.00    -0.265 OA
HETATM    5  C   UNL     1       5.017  34.146  65.152  1.00  0.00     0.146 A 
HETATM    6  C   UNL     1       5.092  33.919  63.833  1.00  0.00     0.059 A 
ENDROOT
BRANCH   6   7
HETATM    7  C   UNL     1       5.323  32.631  63.142  1.00  0.00     0.194 C 
HETATM    8  O   UNL     1       4.723  31.619  63.478  1.00  0.00    -0.287 OA
BRANCH   7   9
HETATM    9  C   UNL     1       6.278  32.599  62.018  1.00  0.00     0.021 A 
HETATM   10  C   UNL     1       5.842  32.402  60.699  1.00  0.00    -0.045 A 
HETATM   11  C   UNL     1       4.390  32.378  60.327  1.00  0.00     0.049 C 
HETATM   12  C   UNL     1       6.816  32.261  59.698  1.00  0.00     0.044 A 
HETATM   13  C   UNL     1       8.182  32.292  60.004  1.00  0.00     0.069 A 
HETATM   14  C   UNL     1       8.592  32.552  61.312  1.00  0.00     0.038 A 
HETATM   15  C   UNL     1       7.640  32.708  62.322  1.00  0.00     0.019 A 
BRANCH  13  16
HETATM   16  O   UNL     1       9.014  32.068  58.943  1.00  0.00    -0.347 OA
BRANCH  16  17
HETATM   17  C   UNL     1       9.710  30.821  58.941  1.00  0.00     0.214 C 
BRANCH  17  18
HETATM   18  C   UNL     1       9.073  29.920  57.915  1.00  0.00    -0.034 A 
HETATM   19  C   UNL     1       7.981  29.112  58.263  1.00  0.00     0.009 A 
HETATM   20  C   UNL     1       7.389  28.275  57.316  1.00  0.00     0.001 A 
HETATM   21  C   UNL     1       7.886  28.232  56.015  1.00  0.00     0.000 A 
HETATM   22  C   UNL     1       8.980  29.019  55.660  1.00  0.00     0.001 A 
HETATM   23  C   UNL     1       9.574  29.856  56.607  1.00  0.00     0.009 A 
ENDBRANCH  17  18
ENDBRANCH  16  17
ENDBRANCH  13  16
ENDBRANCH   7   9
ENDBRANCH   6   7
BRANCH   1  24
HETATM   24  C   UNL     1       3.730  35.274  62.130  1.00  0.00    -0.028 A 
HETATM   25  C   UNL     1       2.503  34.770  62.604  1.00  0.00     0.012 A 
HETATM   26  C   UNL     1       1.381  34.728  61.776  1.00  0.00     0.040 A 
HETATM   27  C   UNL     1       1.475  35.207  60.479  1.00  0.00     0.099 A 
HETATM   28  C   UNL     1       2.662  35.754  59.993  1.00  0.00     0.102 A 
HETATM   29  C   UNL     1       3.795  35.766  60.809  1.00  0.00     0.049 A 
BRANCH  27  30
HETATM   30  O   UNL     1       0.366  35.138  59.686  1.00  0.00    -0.358 OA
HETATM   31  H   UNL     1       0.637  35.470  58.808  1.00  0.00     0.218 HD
ENDBRANCH  27  30
BRANCH  28  32
HETATM   32  O   UNL     1       2.636  36.192  58.696  1.00  0.00    -0.349 OA
BRANCH  32  33
HETATM   33  C   UNL     1       3.240  35.308  57.746  1.00  0.00     0.171 C 
HETATM   34  C   UNL     1       4.500  35.973  57.223  1.00  0.00     0.034 C 
ENDBRANCH  32  33
ENDBRANCH  28  32
ENDBRANCH   1  24
BRANCH   5  35
HETATM   35  O   UNL     1       5.087  33.275  66.193  1.00  0.00    -0.355 OA
HETATM   36  H   UNL     1       5.825  32.658  66.016  1.00  0.00     0.218 HD
ENDBRANCH   5  35
BRANCH   2  37
HETATM   37  C   UNL     1       4.830  37.623  63.847  1.00  0.00     0.155 C 
BRANCH  37  38
HETATM   38  C   UNL     1       6.101  38.182  63.171  1.00  0.00     0.255 C 
BRANCH  38  39
HETATM   39  N   UNL     1       6.385  39.610  63.590  1.00  0.00    -0.066 N 
HETATM   40  H   UNL     1       7.388  39.788  63.426  1.00  0.00     0.280 HD
HETATM   41  C   UNL     1       5.681  40.665  62.743  1.00  0.00     0.261 C 
HETATM   42  C   UNL     1       6.123  42.058  63.211  1.00  0.00     0.195 C 
HETATM   43  O   UNL     1       5.838  42.244  64.603  1.00  0.00    -0.388 OA
HETATM   44  C   UNL     1       6.532  41.293  65.419  1.00  0.00     0.195 C 
HETATM   45  C   UNL     1       6.120  39.859  65.066  1.00  0.00     0.261 C 
ENDBRANCH  38  39
ENDBRANCH  37  38
ENDBRANCH   2  37
TORSDOF 13
ENDMDL
MODEL 8
REMARK VINA RESULT:      -9.5      3.114      8.212
REMARK  13 active torsions:
REMARK  status: ('A' for Active; 'I' for Inactive)
REMARK    1  A    between atoms: C_2  and  O_3 
REMARK    2  A    between atoms: O_3  and  C_4 
REMARK    3  A    between atoms: C_5  and  O_6 
REMARK    4  A    between atoms: C_9  and  C_10 
REMARK    5  A    between atoms: N_11  and  C_12 
REMARK    6  A    between atoms: C_12  and  C_13 
REMARK    7  A    between atoms: C_13  and  N_14 
REMARK    8  A    between atoms: C_23  and  O_24 
REMARK    9  A    between atoms: C_25  and  C_26 
REMARK   10  A    between atoms: C_26  and  C_27 
REMARK   11  A    between atoms: C_31  and  O_32 
REMARK   12  A    between atoms: O_32  and  C_33 
REMARK   13  A    between atoms: C_33  and  C_34 
ROOT
HETATM    1  C   UNL     1       6.350  31.067  56.634  1.00  0.00     0.161 A 
HETATM    2  N   UNL     1       5.517  31.854  57.543  1.00  0.00    -0.332 N 
HETATM    3  C   UNL     1       5.835  31.609  58.853  1.00  0.00     0.278 A 
HETATM    4  O   UNL     1       5.203  31.975  59.829  1.00  0.00    -0.265 OA
HETATM    5  C   UNL     1       7.001  30.715  58.883  1.00  0.00     0.146 A 
HETATM    6  C   UNL     1       7.290  30.411  57.610  1.00  0.00     0.059 A 
ENDROOT
BRANCH   6   7
HETATM    7  C   UNL     1       8.402  29.577  57.102  1.00  0.00     0.194 C 
HETATM    8  O   UNL     1       9.522  30.046  56.951  1.00  0.00    -0.287 OA
BRANCH   7   9
HETATM    9  C   UNL     1       8.136  28.158  56.804  1.00  0.00     0.021 A 
HETATM   10  C   UNL     1       8.019  27.701  55.483  1.00  0.00    -0.045 A 
HETATM   11  C   UNL     1       8.315  28.575  54.301  1.00  0.00     0.049 C 
HETATM   12  C   UNL     1       7.644  26.363  55.279  1.00  0.00     0.044 A 
HETATM   13  C   UNL     1       7.373  25.513  56.358  1.00  0.00     0.069 A 
HETATM   14  C   UNL     1       7.556  25.971  57.662  1.00  0.00     0.038 A 
HETATM   15  C   UNL     1       7.941  27.294  57.889  1.00  0.00     0.019 A 
BRANCH  13  16
HETATM   16  O   UNL     1       6.949  24.261  56.010  1.00  0.00    -0.347 OA
BRANCH  16  17
HETATM   17  C   UNL     1       7.068  23.918  54.629  1.00  0.00     0.214 C 
BRANCH  17  18
HETATM   18  C   UNL     1       7.654  22.532  54.530  1.00  0.00    -0.034 A 
HETATM   19  C   UNL     1       7.903  21.957  53.276  1.00  0.00     0.009 A 
HETATM   20  C   UNL     1       8.443  20.674  53.180  1.00  0.00     0.001 A 
HETATM   21  C   UNL     1       8.734  19.951  54.336  1.00  0.00     0.000 A 
HETATM   22  C   UNL     1       8.477  20.505  55.587  1.00  0.00     0.001 A 
HETATM   23  C   UNL     1       7.935  21.788  55.685  1.00  0.00     0.009 A 
ENDBRANCH  17  18
ENDBRANCH  16  17
ENDBRANCH  13  16
ENDBRANCH   7   9
ENDBRANCH   6   7
BRANCH   1  24
HETATM   24  C   UNL     1       5.470  30.134  55.820  1.00  0.00    -0.028 A 
HETATM   25  C   UNL     1       4.939  28.987  56.441  1.00  0.00     0.012 A 
HETATM   26  C   UNL     1       4.224  28.043  55.704  1.00  0.00     0.040 A 
HETATM   27  C   UNL     1       4.020  28.250  54.350  1.00  0.00     0.099 A 
HETATM   28  C   UNL     1       4.494  29.397  53.713  1.00  0.00     0.102 A 
HETATM   29  C   UNL     1       5.239  30.326  54.441  1.00  0.00     0.049 A 
BRANCH  27  30
HETATM   30  O   UNL     1       3.331  27.301  53.650  1.00  0.00    -0.358 OA
HETATM   31  H   UNL     1       3.952  26.949  52.983  1.00  0.00     0.218 HD
ENDBRANCH  27  30
BRANCH  28  32
HETATM   32  O   UNL     1       4.236  29.490  52.371  1.00  0.00    -0.349 OA
BRANCH  32  33
HETATM   33  C   UNL     1       5.367  29.277  51.520  1.00  0.00     0.171 C 
HETATM   34  C   UNL     1       5.081  28.063  50.655  1.00  0.00     0.034 C 
ENDBRANCH  32  33
ENDBRANCH  28  32
ENDBRANCH   1  24
BRANCH   5  35
HETATM   35  O   UNL     1       7.605  30.317  60.034  1.00  0.00    -0.355 OA
HETATM   36  H   UNL     1       6.957  30.416  60.760  1.00  0.00     0.218 HD
ENDBRANCH   5  35
BRANCH   2  37
HETATM   37  C   UNL     1       4.492  32.797  57.096  1.00  0.00     0.155 C 
BRANCH  37  38
HETATM   38  C   UNL     1       4.986  33.830  56.059  1.00  0.00     0.255 C 
BRANCH  38  39
HETATM   39  N   UNL     1       4.150  33.811  54.796  1.00  0.00    -0.066 N 
HETATM   40  H   UNL     1       3.603  32.937  54.800  1.00  0.00     0.280 HD
HETATM   41  C   UNL     1       3.092  34.908  54.727  1.00  0.00     0.261 C 
HETATM   42  C   UNL     1       2.261  34.720  53.449  1.00  0.00     0.195 C 
HETATM   43  O   UNL     1       3.099  34.741  52.287  1.00  0.00    -0.388 OA
HETATM   44  C   UNL     1       4.067  33.686  52.311  1.00  0.00     0.195 C 
HETATM   45  C   UNL     1       4.990  33.811  53.529  1.00  0.00     0.261 C 
ENDBRANCH  38  39
ENDBRANCH  37  38
ENDBRANCH   2  37
TORSDOF 13
ENDMDL
MODEL 9
REMARK VINA RESULT:      -9.4      2.336      9.453
REMARK  13 active torsions:
REMARK  status: ('A' for Active; 'I' for Inactive)
REMARK    1  A    between atoms: C_2  and  O_3 
REMARK    2  A    between atoms: O_3  and  C_4 
REMARK    3  A    between atoms: C_5  and  O_6 
REMARK    4  A    between atoms: C_9  and  C_10 
REMARK    5  A    between atoms: N_11  and  C_12 
REMARK    6  A    between atoms: C_12  and  C_13 
REMARK    7  A    between atoms: C_13  and  N_14 
REMARK    8  A    between atoms: C_23  and  O_24 
REMARK    9  A    between atoms: C_25  and  C_26 
REMARK   10  A    between atoms: C_26  and  C_27 
REMARK   11  A    between atoms: C_31  and  O_32 
REMARK   12  A    between atoms: O_32  and  C_33 
REMARK   13  A    between atoms: C_33  and  C_34 
ROOT
HETATM    1  C   UNL     1       6.884  27.912  55.173  1.00  0.00     0.161 A 
HETATM    2  N   UNL     1       6.796  26.575  55.759  1.00  0.00    -0.332 N 
HETATM    3  C   UNL     1       5.598  26.386  56.396  1.00  0.00     0.278 A 
HETATM    4  O   UNL     1       5.307  25.450  57.123  1.00  0.00    -0.265 OA
HETATM    5  C   UNL     1       4.761  27.570  56.161  1.00  0.00     0.146 A 
HETATM    6  C   UNL     1       5.504  28.438  55.459  1.00  0.00     0.059 A 
ENDROOT
BRANCH   6   7
HETATM    7  C   UNL     1       5.106  29.763  54.936  1.00  0.00     0.194 C 
HETATM    8  O   UNL     1       5.196  30.767  55.630  1.00  0.00    -0.287 OA
BRANCH   7   9
HETATM    9  C   UNL     1       4.621  29.853  53.547  1.00  0.00     0.021 A 
HETATM   10  C   UNL     1       3.537  30.678  53.207  1.00  0.00    -0.045 A 
HETATM   11  C   UNL     1       2.916  31.632  54.182  1.00  0.00     0.049 C 
HETATM   12  C   UNL     1       3.053  30.619  51.890  1.00  0.00     0.044 A 
HETATM   13  C   UNL     1       3.616  29.751  50.948  1.00  0.00     0.069 A 
HETATM   14  C   UNL     1       4.731  28.987  51.291  1.00  0.00     0.038 A 
HETATM   15  C   UNL     1       5.238  29.038  52.591  1.00  0.00     0.019 A 
BRANCH  13  16
HETATM   16  O   UNL     1       2.997  29.747  49.729  1.00  0.00    -0.347 OA
BRANCH  16  17
HETATM   17  C   UNL     1       3.819  29.424  48.607  1.00  0.00     0.214 C 
BRANCH  17  18
HETATM   18  C   UNL     1       3.358  28.106  48.039  1.00  0.00    -0.034 A 
HETATM   19  C   UNL     1       2.115  28.008  47.398  1.00  0.00     0.009 A 
HETATM   20  C   UNL     1       1.683  26.789  46.873  1.00  0.00     0.001 A 
HETATM   21  C   UNL     1       2.486  25.656  46.989  1.00  0.00     0.000 A 
HETATM   22  C   UNL     1       3.716  25.737  47.637  1.00  0.00     0.001 A 
HETATM   23  C   UNL     1       4.149  26.955  48.164  1.00  0.00     0.009 A 
ENDBRANCH  17  18
ENDBRANCH  16  17
ENDBRANCH  13  16
ENDBRANCH   7   9
ENDBRANCH   6   7
BRANCH   1  24
HETATM   24  C   UNL     1       8.036  28.670  55.811  1.00  0.00    -0.028 A 
HETATM   25  C   UNL     1       9.147  29.012  55.015  1.00  0.00     0.012 A 
HETATM   26  C   UNL     1      10.276  29.602  55.583  1.00  0.00     0.040 A 
HETATM   27  C   UNL     1      10.293  29.870  56.942  1.00  0.00     0.099 A 
HETATM   28  C   UNL     1       9.193  29.584  57.750  1.00  0.00     0.102 A 
HETATM   29  C   UNL     1       8.075  28.962  57.190  1.00  0.00     0.049 A 
BRANCH  27  30
HETATM   30  O   UNL     1      11.418  30.432  57.474  1.00  0.00    -0.358 OA
HETATM   31  H   UNL     1      11.449  31.349  57.140  1.00  0.00     0.218 HD
ENDBRANCH  27  30
BRANCH  28  32
HETATM   32  O   UNL     1       9.327  29.889  59.078  1.00  0.00    -0.349 OA
BRANCH  32  33
HETATM   33  C   UNL     1       8.374  30.829  59.583  1.00  0.00     0.171 C 
HETATM   34  C   UNL     1       9.117  32.103  59.945  1.00  0.00     0.034 C 
ENDBRANCH  32  33
ENDBRANCH  28  32
ENDBRANCH   1  24
BRANCH   5  35
HETATM   35  O   UNL     1       3.484  27.681  56.614  1.00  0.00    -0.355 OA
HETATM   36  H   UNL     1       3.133  28.542  56.310  1.00  0.00     0.218 HD
ENDBRANCH   5  35
BRANCH   2  37
HETATM   37  C   UNL     1       7.853  25.569  55.653  1.00  0.00     0.155 C 
BRANCH  37  38
HETATM   38  C   UNL     1       7.693  24.600  54.460  1.00  0.00     0.255 C 
BRANCH  38  39
HETATM   39  N   UNL     1       7.816  23.152  54.885  1.00  0.00    -0.066 N 
HETATM   40  H   UNL     1       6.862  22.766  54.952  1.00  0.00     0.280 HD
HETATM   41  C   UNL     1       8.506  22.254  53.864  1.00  0.00     0.261 C 
HETATM   42  C   UNL     1       8.483  20.806  54.374  1.00  0.00     0.195 C 
HETATM   43  O   UNL     1       9.117  20.706  55.656  1.00  0.00    -0.388 OA
HETATM   44  C   UNL     1       8.451  21.505  56.641  1.00  0.00     0.195 C 
HETATM   45  C   UNL     1       8.464  22.987  56.251  1.00  0.00     0.261 C 
ENDBRANCH  38  39
ENDBRANCH  37  38
ENDBRANCH   2  37
TORSDOF 13
ENDMDL
MODEL 10
REMARK VINA RESULT:      -9.4      1.147      2.068
REMARK  13 active torsions:
REMARK  status: ('A' for Active; 'I' for Inactive)
REMARK    1  A    between atoms: C_2  and  O_3 
REMARK    2  A    between atoms: O_3  and  C_4 
REMARK    3  A    between atoms: C_5  and  O_6 
REMARK    4  A    between atoms: C_9  and  C_10 
REMARK    5  A    between atoms: N_11  and  C_12 
REMARK    6  A    between atoms: C_12  and  C_13 
REMARK    7  A    between atoms: C_13  and  N_14 
REMARK    8  A    between atoms: C_23  and  O_24 
REMARK    9  A    between atoms: C_25  and  C_26 
REMARK   10  A    between atoms: C_26  and  C_27 
REMARK   11  A    between atoms: C_31  and  O_32 
REMARK   12  A    between atoms: O_32  and  C_33 
REMARK   13  A    between atoms: C_33  and  C_34 
ROOT
HETATM    1  C   UNL     1       6.825  26.911  52.818  1.00  0.00     0.161 A 
HETATM    2  N   UNL     1       5.420  26.918  52.412  1.00  0.00    -0.332 N 
HETATM    3  C   UNL     1       4.693  27.822  53.141  1.00  0.00     0.278 A 
HETATM    4  O   UNL     1       3.478  27.926  53.155  1.00  0.00    -0.265 OA
HETATM    5  C   UNL     1       5.618  28.564  54.007  1.00  0.00     0.146 A 
HETATM    6  C   UNL     1       6.836  28.038  53.815  1.00  0.00     0.059 A 
ENDROOT
BRANCH   6   7
HETATM    7  C   UNL     1       8.118  28.462  54.421  1.00  0.00     0.194 C 
HETATM    8  O   UNL     1       9.152  28.472  53.767  1.00  0.00    -0.287 OA
BRANCH   7   9
HETATM    9  C   UNL     1       8.118  28.898  55.830  1.00  0.00     0.021 A 
HETATM   10  C   UNL     1       9.243  29.512  56.401  1.00  0.00    -0.045 A 
HETATM   11  C   UNL     1      10.439  29.912  55.590  1.00  0.00     0.049 C 
HETATM   12  C   UNL     1       9.215  29.789  57.777  1.00  0.00     0.044 A 
HETATM   13  C   UNL     1       8.110  29.443  58.564  1.00  0.00     0.069 A 
HETATM   14  C   UNL     1       6.979  28.890  57.965  1.00  0.00     0.038 A 
HETATM   15  C   UNL     1       6.980  28.617  56.595  1.00  0.00     0.019 A 
BRANCH  13  16
HETATM   16  O   UNL     1       8.252  29.705  59.899  1.00  0.00    -0.347 OA
BRANCH  16  17
HETATM   17  C   UNL     1       9.076  30.821  60.237  1.00  0.00     0.214 C 
BRANCH  17  18
HETATM   18  C   UNL     1       8.319  31.697  61.203  1.00  0.00    -0.034 A 
HETATM   19  C   UNL     1       7.236  32.469  60.759  1.00  0.00     0.009 A 
HETATM   20  C   UNL     1       6.533  33.282  61.649  1.00  0.00     0.001 A 
HETATM   21  C   UNL     1       6.911  33.337  62.990  1.00  0.00     0.000 A 
HETATM   22  C   UNL     1       7.995  32.587  63.440  1.00  0.00     0.001 A 
HETATM   23  C   UNL     1       8.699  31.774  62.550  1.00  0.00     0.009 A 
ENDBRANCH  17  18
ENDBRANCH  16  17
ENDBRANCH  13  16
ENDBRANCH   7   9
ENDBRANCH   6   7
BRANCH   1  24
HETATM   24  C   UNL     1       7.192  25.538  53.353  1.00  0.00    -0.028 A 
HETATM   25  C   UNL     1       7.613  24.546  52.446  1.00  0.00     0.012 A 
HETATM   26  C   UNL     1       7.846  23.240  52.876  1.00  0.00     0.040 A 
HETATM   27  C   UNL     1       7.678  22.923  54.214  1.00  0.00     0.099 A 
HETATM   28  C   UNL     1       7.304  23.892  55.146  1.00  0.00     0.102 A 
HETATM   29  C   UNL     1       7.037  25.192  54.712  1.00  0.00     0.049 A 
BRANCH  27  30
HETATM   30  O   UNL     1       7.896  21.633  54.603  1.00  0.00    -0.358 OA
HETATM   31  H   UNL     1       8.678  21.326  54.105  1.00  0.00     0.218 HD
ENDBRANCH  27  30
BRANCH  28  32
HETATM   32  O   UNL     1       7.165  23.461  56.438  1.00  0.00    -0.349 OA
BRANCH  32  33
HETATM   33  C   UNL     1       8.365  23.489  57.218  1.00  0.00     0.171 C 
HETATM   34  C   UNL     1       8.699  24.940  57.512  1.00  0.00     0.034 C 
ENDBRANCH  32  33
ENDBRANCH  28  32
ENDBRANCH   1  24
BRANCH   5  35
HETATM   35  O   UNL     1       5.224  29.577  54.824  1.00  0.00    -0.355 OA
HETATM   36  H   UNL     1       5.205  30.398  54.293  1.00  0.00     0.218 HD
ENDBRANCH   5  35
BRANCH   2  37
HETATM   37  C   UNL     1       4.877  26.076  51.346  1.00  0.00     0.155 C 
BRANCH  37  38
HETATM   38  C   UNL     1       4.802  26.765  49.966  1.00  0.00     0.255 C 
BRANCH  38  39
HETATM   39  N   UNL     1       3.390  27.189  49.619  1.00  0.00    -0.066 N 
HETATM   40  H   UNL     1       2.757  26.747  50.303  1.00  0.00     0.280 HD
HETATM   41  C   UNL     1       3.125  28.681  49.782  1.00  0.00     0.261 C 
HETATM   42  C   UNL     1       1.643  28.960  49.489  1.00  0.00     0.195 C 
HETATM   43  O   UNL     1       1.290  28.517  48.173  1.00  0.00    -0.388 OA
HETATM   44  C   UNL     1       1.485  27.107  48.017  1.00  0.00     0.195 C 
HETATM   45  C   UNL     1       2.954  26.726  48.238  1.00  0.00     0.261 C 
ENDBRANCH  38  39
ENDBRANCH  37  38
ENDBRANCH   2  37
TORSDOF 13
ENDMDL
