MODEL 1
REMARK VINA RESULT:      -9.2      0.000      0.000
REMARK  6 active torsions:
REMARK  status: ('A' for Active; 'I' for Inactive)
REMARK    1  A    between atoms: C_5  and  C_6 
REMARK    2  A    between atoms: C_6  and  O_7 
REMARK    3  A    between atoms: C_6  and  C_8 
REMARK    4  A    between atoms: C_8  and  N_9 
REMARK    5  A    between atoms: C_11  and  C_12 
REMARK    6  A    between atoms: C_13  and  O_14 
ROOT
HETATM    1  N   UNL     1       6.001  25.797  56.021  1.00  0.00    -0.395 N 
HETATM    2  H   UNL     1       5.528  25.919  55.112  1.00  0.00     0.159 HD
HETATM    3  C   UNL     1       6.985  24.969  56.049  1.00  0.00     0.098 C 
ENDROOT
BRANCH   1   4
HETATM    4  C   UNL     1       5.495  26.603  57.159  1.00  0.00     0.155 C 
BRANCH   4   5
HETATM    5  C   UNL     1       5.634  28.104  56.857  1.00  0.00     0.170 C 
BRANCH   5   6
HETATM    6  C   UNL     1       7.062  28.589  56.885  1.00  0.00    -0.011 A 
HETATM    7  C   UNL     1       7.685  28.849  58.103  1.00  0.00     0.126 A 
HETATM    8  N   UNL     1       8.939  29.326  58.226  1.00  0.00    -0.265 NA
HETATM    9  C   UNL     1       9.655  29.525  57.096  1.00  0.00     0.030 A 
HETATM   10  C   UNL     1      11.071  29.995  57.249  1.00  0.00     0.070 C 
HETATM   11  C   UNL     1       9.128  29.279  55.834  1.00  0.00     0.027 A 
HETATM   12  C   UNL     1       7.817  28.818  55.729  1.00  0.00     0.013 A 
ENDBRANCH   5   6
BRANCH   5  13
HETATM   13  O   UNL     1       4.815  28.829  57.778  1.00  0.00    -0.389 OA
HETATM   14  H   UNL     1       5.393  29.482  58.222  1.00  0.00     0.210 HD
ENDBRANCH   5  13
ENDBRANCH   4   5
ENDBRANCH   1   4
BRANCH   3  15
HETATM   15  C   UNL     1       7.435  24.183  54.872  1.00  0.00     0.023 A 
HETATM   16  C   UNL     1       7.519  24.798  53.606  1.00  0.00     0.078 A 
HETATM   17  C   UNL     1       7.882  24.070  52.481  1.00  0.00     0.038 A 
HETATM   18  C   UNL     1       8.170  22.715  52.610  1.00  0.00     0.015 A 
HETATM   19  C   UNL     1       8.114  22.074  53.856  1.00  0.00    -0.025 A 
HETATM   20  C   UNL     1       7.749  22.798  55.022  1.00  0.00    -0.012 A 
HETATM   21  C   UNL     1       8.427  20.707  53.936  1.00  0.00     0.012 A 
HETATM   22  C   UNL     1       7.740  22.078  56.247  1.00  0.00     0.013 A 
HETATM   23  C   UNL     1       8.058  20.718  56.308  1.00  0.00     0.001 A 
HETATM   24  C   UNL     1       8.398  20.032  55.152  1.00  0.00     0.001 A 
BRANCH  16  25
HETATM   25  O   UNL     1       7.238  26.138  53.469  1.00  0.00    -0.360 OA
HETATM   26  H   UNL     1       7.083  26.509  54.364  1.00  0.00     0.217 HD
ENDBRANCH  16  25
ENDBRANCH   3  15
TORSDOF 6
ENDMDL
MODEL 2
REMARK VINA RESULT:      -9.1      1.657      2.039
REMARK  6 active torsions:
REMARK  status: ('A' for Active; 'I' for Inactive)
REMARK    1  A    between atoms: C_5  and  C_6 
REMARK    2  A    between atoms: C_6  and  O_7 
REMARK    3  A    between atoms: C_6  and  C_8 
REMARK    4  A    between atoms: C_8  and  N_9 
REMARK    5  A    between atoms: C_11  and  C_12 
REMARK    6  A    between atoms: C_13  and  O_14 
ROOT
HETATM    1  N   UNL     1       7.372  26.364  55.855  1.00  0.00    -0.395 N 
HETATM    2  H   UNL     1       6.739  26.456  55.045  1.00  0.00     0.159 HD
HETATM    3  C   UNL     1       8.090  25.298  55.903  1.00  0.00     0.098 C 
ENDROOT
BRANCH   1   4
HETATM    4  C   UNL     1       7.381  27.476  56.836  1.00  0.00     0.155 C 
BRANCH   4   5
HETATM    5  C   UNL     1       8.378  28.565  56.404  1.00  0.00     0.170 C 
BRANCH   5   6
HETATM    6  C   UNL     1       8.760  29.502  57.522  1.00  0.00    -0.011 A 
HETATM    7  C   UNL     1       7.961  29.590  58.659  1.00  0.00     0.126 A 
HETATM    8  N   UNL     1       8.197  30.429  59.687  1.00  0.00    -0.265 NA
HETATM    9  C   UNL     1       9.303  31.204  59.631  1.00  0.00     0.030 A 
HETATM   10  C   UNL     1       9.589  32.087  60.810  1.00  0.00     0.070 C 
HETATM   11  C   UNL     1      10.172  31.177  58.547  1.00  0.00     0.027 A 
HETATM   12  C   UNL     1       9.890  30.326  57.479  1.00  0.00     0.013 A 
ENDBRANCH   5   6
BRANCH   5  13
HETATM   13  O   UNL     1       7.822  29.272  55.292  1.00  0.00    -0.389 OA
HETATM   14  H   UNL     1       6.850  29.256  55.400  1.00  0.00     0.210 HD
ENDBRANCH   5  13
ENDBRANCH   4   5
ENDBRANCH   1   4
BRANCH   3  15
HETATM   15  C   UNL     1       8.025  24.213  54.890  1.00  0.00     0.023 A 
HETATM   16  C   UNL     1       7.844  24.533  53.529  1.00  0.00     0.078 A 
HETATM   17  C   UNL     1       7.723  23.535  52.571  1.00  0.00     0.038 A 
HETATM   18  C   UNL     1       7.786  22.201  52.964  1.00  0.00     0.015 A 
HETATM   19  C   UNL     1       7.982  21.847  54.306  1.00  0.00    -0.025 A 
HETATM   20  C   UNL     1       8.113  22.850  55.304  1.00  0.00    -0.012 A 
HETATM   21  C   UNL     1       8.052  20.487  54.651  1.00  0.00     0.012 A 
HETATM   22  C   UNL     1       8.333  22.404  56.635  1.00  0.00     0.013 A 
HETATM   23  C   UNL     1       8.403  21.045  56.959  1.00  0.00     0.001 A 
HETATM   24  C   UNL     1       8.259  20.088  55.967  1.00  0.00     0.001 A 
BRANCH  16  25
HETATM   25  O   UNL     1       7.783  25.848  53.130  1.00  0.00    -0.360 OA
HETATM   26  H   UNL     1       8.217  25.920  52.254  1.00  0.00     0.217 HD
ENDBRANCH  16  25
ENDBRANCH   3  15
TORSDOF 6
ENDMDL
MODEL 3
REMARK VINA RESULT:      -9.0      1.588      2.593
REMARK  6 active torsions:
REMARK  status: ('A' for Active; 'I' for Inactive)
REMARK    1  A    between atoms: C_5  and  C_6 
REMARK    2  A    between atoms: C_6  and  O_7 
REMARK    3  A    between atoms: C_6  and  C_8 
REMARK    4  A    between atoms: C_8  and  N_9 
REMARK    5  A    between atoms: C_11  and  C_12 
REMARK    6  A    between atoms: C_13  and  O_14 
ROOT
HETATM    1  N   UNL     1       5.935  25.341  55.041  1.00  0.00    -0.395 N 
HETATM    2  H   UNL     1       5.310  24.784  55.644  1.00  0.00     0.159 HD
HETATM    3  C   UNL     1       7.114  24.867  54.843  1.00  0.00     0.098 C 
ENDROOT
BRANCH   1   4
HETATM    4  C   UNL     1       5.384  26.596  54.473  1.00  0.00     0.155 C 
BRANCH   4   5
HETATM    5  C   UNL     1       5.215  27.655  55.575  1.00  0.00     0.170 C 
BRANCH   5   6
HETATM    6  C   UNL     1       6.526  28.189  56.095  1.00  0.00    -0.011 A 
HETATM    7  C   UNL     1       7.490  28.654  55.205  1.00  0.00     0.126 A 
HETATM    8  N   UNL     1       8.706  29.106  55.572  1.00  0.00    -0.265 NA
HETATM    9  C   UNL     1       8.992  29.152  56.893  1.00  0.00     0.030 A 
HETATM   10  C   UNL     1      10.323  29.717  57.293  1.00  0.00     0.070 C 
HETATM   11  C   UNL     1       8.090  28.726  57.860  1.00  0.00     0.027 A 
HETATM   12  C   UNL     1       6.851  28.230  57.455  1.00  0.00     0.013 A 
ENDBRANCH   5   6
BRANCH   5  13
HETATM   13  O   UNL     1       4.422  27.094  56.624  1.00  0.00    -0.389 OA
HETATM   14  H   UNL     1       4.234  26.167  56.376  1.00  0.00     0.210 HD
ENDBRANCH   5  13
ENDBRANCH   4   5
ENDBRANCH   1   4
BRANCH   3  15
HETATM   15  C   UNL     1       7.608  23.606  55.453  1.00  0.00     0.023 A 
HETATM   16  C   UNL     1       7.833  23.538  56.843  1.00  0.00     0.078 A 
HETATM   17  C   UNL     1       8.348  22.389  57.429  1.00  0.00     0.038 A 
HETATM   18  C   UNL     1       8.643  21.290  56.628  1.00  0.00     0.015 A 
HETATM   19  C   UNL     1       8.416  21.315  55.245  1.00  0.00    -0.025 A 
HETATM   20  C   UNL     1       7.886  22.477  54.624  1.00  0.00    -0.012 A 
HETATM   21  C   UNL     1       8.718  20.176  54.482  1.00  0.00     0.012 A 
HETATM   22  C   UNL     1       7.666  22.410  53.221  1.00  0.00     0.013 A 
HETATM   23  C   UNL     1       7.968  21.265  52.479  1.00  0.00     0.001 A 
HETATM   24  C   UNL     1       8.498  20.149  53.109  1.00  0.00     0.001 A 
BRANCH  16  25
HETATM   25  O   UNL     1       7.542  24.619  57.643  1.00  0.00    -0.360 OA
HETATM   26  H   UNL     1       7.498  25.416  57.072  1.00  0.00     0.217 HD
ENDBRANCH  16  25
ENDBRANCH   3  15
TORSDOF 6
ENDMDL
MODEL 4
REMARK VINA RESULT:      -8.6      2.243      3.466
REMARK  6 active torsions:
REMARK  status: ('A' for Active; 'I' for Inactive)
REMARK    1  A    between atoms: C_5  and  C_6 
REMARK    2  A    between atoms: C_6  and  O_7 
REMARK    3  A    between atoms: C_6  and  C_8 
REMARK    4  A    between atoms: C_8  and  N_9 
REMARK    5  A    between atoms: C_11  and  C_12 
REMARK    6  A    between atoms: C_13  and  O_14 
ROOT
HETATM    1  N   UNL     1       5.923  27.269  56.786  1.00  0.00    -0.395 N 
HETATM    2  H   UNL     1       5.402  26.495  57.228  1.00  0.00     0.159 HD
HETATM    3  C   UNL     1       7.014  26.954  56.181  1.00  0.00     0.098 C 
ENDROOT
BRANCH   1   4
HETATM    4  C   UNL     1       5.336  28.627  56.893  1.00  0.00     0.155 C 
BRANCH   4   5
HETATM    5  C   UNL     1       6.396  29.696  56.576  1.00  0.00     0.170 C 
BRANCH   5   6
HETATM    6  C   UNL     1       7.001  30.319  57.809  1.00  0.00    -0.011 A 
HETATM    7  C   UNL     1       6.565  31.569  58.242  1.00  0.00     0.126 A 
HETATM    8  N   UNL     1       7.076  32.224  59.303  1.00  0.00    -0.265 NA
HETATM    9  C   UNL     1       8.044  31.610  60.021  1.00  0.00     0.030 A 
HETATM   10  C   UNL     1       8.560  32.321  61.236  1.00  0.00     0.070 C 
HETATM   11  C   UNL     1       8.535  30.356  59.679  1.00  0.00     0.027 A 
HETATM   12  C   UNL     1       8.016  29.712  58.557  1.00  0.00     0.013 A 
ENDBRANCH   5   6
BRANCH   5  13
HETATM   13  O   UNL     1       5.806  30.681  55.725  1.00  0.00    -0.389 OA
HETATM   14  H   UNL     1       6.539  31.131  55.257  1.00  0.00     0.210 HD
ENDBRANCH   5  13
ENDBRANCH   4   5
ENDBRANCH   1   4
BRANCH   3  15
HETATM   15  C   UNL     1       7.553  25.571  56.121  1.00  0.00     0.023 A 
HETATM   16  C   UNL     1       8.028  24.950  57.295  1.00  0.00     0.078 A 
HETATM   17  C   UNL     1       8.589  23.681  57.254  1.00  0.00     0.038 A 
HETATM   18  C   UNL     1       8.678  23.014  56.036  1.00  0.00     0.015 A 
HETATM   19  C   UNL     1       8.200  23.593  54.852  1.00  0.00    -0.025 A 
HETATM   20  C   UNL     1       7.619  24.889  54.869  1.00  0.00    -0.012 A 
HETATM   21  C   UNL     1       8.301  22.874  53.650  1.00  0.00     0.012 A 
HETATM   22  C   UNL     1       7.139  25.391  53.629  1.00  0.00     0.013 A 
HETATM   23  C   UNL     1       7.244  24.659  52.443  1.00  0.00     0.001 A 
HETATM   24  C   UNL     1       7.828  23.402  52.453  1.00  0.00     0.001 A 
BRANCH  16  25
HETATM   25  O   UNL     1       7.943  25.601  58.503  1.00  0.00    -0.360 OA
HETATM   26  H   UNL     1       7.025  25.504  58.836  1.00  0.00     0.217 HD
ENDBRANCH  16  25
ENDBRANCH   3  15
TORSDOF 6
ENDMDL
MODEL 5
REMARK VINA RESULT:      -8.5      1.688      1.986
REMARK  6 active torsions:
REMARK  status: ('A' for Active; 'I' for Inactive)
REMARK    1  A    between atoms: C_5  and  C_6 
REMARK    2  A    between atoms: C_6  and  O_7 
REMARK    3  A    between atoms: C_6  and  C_8 
REMARK    4  A    between atoms: C_8  and  N_9 
REMARK    5  A    between atoms: C_11  and  C_12 
REMARK    6  A    between atoms: C_13  and  O_14 
ROOT
HETATM    1  N   UNL     1       6.371  26.853  56.041  1.00  0.00    -0.395 N 
HETATM    2  H   UNL     1       7.009  27.421  55.462  1.00  0.00     0.159 HD
HETATM    3  C   UNL     1       6.181  25.638  55.664  1.00  0.00     0.098 C 
ENDROOT
BRANCH   1   4
HETATM    4  C   UNL     1       5.780  27.506  57.235  1.00  0.00     0.155 C 
BRANCH   4   5
HETATM    5  C   UNL     1       5.637  29.020  57.003  1.00  0.00     0.170 C 
BRANCH   5   6
HETATM    6  C   UNL     1       6.587  29.843  57.837  1.00  0.00    -0.011 A 
HETATM    7  C   UNL     1       6.289  31.174  58.120  1.00  0.00     0.126 A 
HETATM    8  N   UNL     1       7.095  31.999  58.817  1.00  0.00    -0.265 NA
HETATM    9  C   UNL     1       8.247  31.492  59.310  1.00  0.00     0.030 A 
HETATM   10  C   UNL     1       9.105  32.402  60.138  1.00  0.00     0.070 C 
HETATM   11  C   UNL     1       8.625  30.172  59.096  1.00  0.00     0.027 A 
HETATM   12  C   UNL     1       7.792  29.345  58.343  1.00  0.00     0.013 A 
ENDBRANCH   5   6
BRANCH   5  13
HETATM   13  O   UNL     1       4.276  29.388  57.239  1.00  0.00    -0.389 OA
HETATM   14  H   UNL     1       4.151  30.282  56.859  1.00  0.00     0.210 HD
ENDBRANCH   5  13
ENDBRANCH   4   5
ENDBRANCH   1   4
BRANCH   3  15
HETATM   15  C   UNL     1       6.797  25.047  54.449  1.00  0.00     0.023 A 
HETATM   16  C   UNL     1       6.876  25.804  53.261  1.00  0.00     0.078 A 
HETATM   17  C   UNL     1       7.396  25.254  52.097  1.00  0.00     0.038 A 
HETATM   18  C   UNL     1       7.847  23.938  52.108  1.00  0.00     0.015 A 
HETATM   19  C   UNL     1       7.800  23.161  53.274  1.00  0.00    -0.025 A 
HETATM   20  C   UNL     1       7.276  23.702  54.478  1.00  0.00    -0.012 A 
HETATM   21  C   UNL     1       8.279  21.842  53.236  1.00  0.00     0.012 A 
HETATM   22  C   UNL     1       7.287  22.855  55.619  1.00  0.00     0.013 A 
HETATM   23  C   UNL     1       7.772  21.545  55.563  1.00  0.00     0.001 A 
HETATM   24  C   UNL     1       8.265  21.038  54.371  1.00  0.00     0.001 A 
BRANCH  16  25
HETATM   25  O   UNL     1       6.435  27.107  53.242  1.00  0.00    -0.360 OA
HETATM   26  H   UNL     1       5.569  27.127  52.782  1.00  0.00     0.217 HD
ENDBRANCH  16  25
ENDBRANCH   3  15
TORSDOF 6
ENDMDL
MODEL 6
REMARK VINA RESULT:      -8.5      3.082      4.550
REMARK  6 active torsions:
REMARK  status: ('A' for Active; 'I' for Inactive)
REMARK    1  A    between atoms: C_5  and  C_6 
REMARK    2  A    between atoms: C_6  and  O_7 
REMARK    3  A    between atoms: C_6  and  C_8 
REMARK    4  A    between atoms: C_8  and  N_9 
REMARK    5  A    between atoms: C_11  and  C_12 
REMARK    6  A    between atoms: C_13  and  O_14 
ROOT
HETATM    1  N   UNL     1       7.229  27.965  57.571  1.00  0.00    -0.395 N 
HETATM    2  H   UNL     1       6.721  27.308  58.184  1.00  0.00     0.159 HD
HETATM    3  C   UNL     1       7.813  27.457  56.543  1.00  0.00     0.098 C 
ENDROOT
BRANCH   1   4
HETATM    4  C   UNL     1       7.197  29.400  57.946  1.00  0.00     0.155 C 
BRANCH   4   5
HETATM    5  C   UNL     1       8.520  29.809  58.616  1.00  0.00     0.170 C 
BRANCH   5   6
HETATM    6  C   UNL     1       8.326  30.601  59.884  1.00  0.00    -0.011 A 
HETATM    7  C   UNL     1       7.254  31.482  59.997  1.00  0.00     0.126 A 
HETATM    8  N   UNL     1       7.025  32.263  61.071  1.00  0.00    -0.265 NA
HETATM    9  C   UNL     1       7.865  32.154  62.125  1.00  0.00     0.030 A 
HETATM   10  C   UNL     1       7.564  32.982  63.339  1.00  0.00     0.070 C 
HETATM   11  C   UNL     1       8.955  31.291  62.116  1.00  0.00     0.027 A 
HETATM   12  C   UNL     1       9.192  30.517  60.980  1.00  0.00     0.013 A 
ENDBRANCH   5   6
BRANCH   5  13
HETATM   13  O   UNL     1       9.307  30.527  57.663  1.00  0.00    -0.389 OA
HETATM   14  H   UNL     1       9.228  31.477  57.884  1.00  0.00     0.210 HD
ENDBRANCH   5  13
ENDBRANCH   4   5
ENDBRANCH   1   4
BRANCH   3  15
HETATM   15  C   UNL     1       7.815  26.006  56.231  1.00  0.00     0.023 A 
HETATM   16  C   UNL     1       7.969  25.063  57.268  1.00  0.00     0.078 A 
HETATM   17  C   UNL     1       8.031  23.703  56.994  1.00  0.00     0.038 A 
HETATM   18  C   UNL     1       7.936  23.269  55.676  1.00  0.00     0.015 A 
HETATM   19  C   UNL     1       7.765  24.176  54.620  1.00  0.00    -0.025 A 
HETATM   20  C   UNL     1       7.695  25.571  54.876  1.00  0.00    -0.012 A 
HETATM   21  C   UNL     1       7.661  23.687  53.308  1.00  0.00     0.012 A 
HETATM   22  C   UNL     1       7.497  26.419  53.752  1.00  0.00     0.013 A 
HETATM   23  C   UNL     1       7.391  25.913  52.453  1.00  0.00     0.001 A 
HETATM   24  C   UNL     1       7.477  24.547  52.232  1.00  0.00     0.001 A 
BRANCH  16  25
HETATM   25  O   UNL     1       8.062  25.483  58.575  1.00  0.00    -0.360 OA
HETATM   26  H   UNL     1       7.492  24.901  59.122  1.00  0.00     0.217 HD
ENDBRANCH  16  25
ENDBRANCH   3  15
TORSDOF 6
ENDMDL
MODEL 7
REMARK VINA RESULT:      -8.4      4.281      6.391
REMARK  6 active torsions:
REMARK  status: ('A' for Active; 'I' for Inactive)
REMARK    1  A    between atoms: C_5  and  C_6 
REMARK    2  A    between atoms: C_6  and  O_7 
REMARK    3  A    between atoms: C_6  and  C_8 
REMARK    4  A    between atoms: C_8  and  N_9 
REMARK    5  A    between atoms: C_11  and  C_12 
REMARK    6  A    between atoms: C_13  and  O_14 
ROOT
HETATM    1  N   UNL     1       6.375  25.912  53.182  1.00  0.00    -0.395 N 
HETATM    2  H   UNL     1       5.621  25.706  53.856  1.00  0.00     0.159 HD
HETATM    3  C   UNL     1       7.510  25.346  53.399  1.00  0.00     0.098 C 
ENDROOT
BRANCH   1   4
HETATM    4  C   UNL     1       6.042  26.811  52.050  1.00  0.00     0.155 C 
BRANCH   4   5
HETATM    5  C   UNL     1       5.366  26.019  50.918  1.00  0.00     0.170 C 
BRANCH   5   6
HETATM    6  C   UNL     1       4.632  26.895  49.933  1.00  0.00    -0.011 A 
HETATM    7  C   UNL     1       4.193  26.364  48.723  1.00  0.00     0.126 A 
HETATM    8  N   UNL     1       3.570  27.078  47.764  1.00  0.00    -0.265 NA
HETATM    9  C   UNL     1       3.316  28.383  48.010  1.00  0.00     0.030 A 
HETATM   10  C   UNL     1       2.566  29.151  46.962  1.00  0.00     0.070 C 
HETATM   11  C   UNL     1       3.700  29.001  49.194  1.00  0.00     0.027 A 
HETATM   12  C   UNL     1       4.374  28.251  50.158  1.00  0.00     0.013 A 
ENDBRANCH   5   6
BRANCH   5  13
HETATM   13  O   UNL     1       4.498  25.044  51.502  1.00  0.00    -0.389 OA
HETATM   14  H   UNL     1       4.545  24.246  50.938  1.00  0.00     0.210 HD
ENDBRANCH   5  13
ENDBRANCH   4   5
ENDBRANCH   1   4
BRANCH   3  15
HETATM   15  C   UNL     1       7.781  24.463  54.562  1.00  0.00     0.023 A 
HETATM   16  C   UNL     1       7.884  25.015  55.856  1.00  0.00     0.078 A 
HETATM   17  C   UNL     1       8.193  24.218  56.950  1.00  0.00     0.038 A 
HETATM   18  C   UNL     1       8.399  22.854  56.763  1.00  0.00     0.015 A 
HETATM   19  C   UNL     1       8.289  22.268  55.494  1.00  0.00    -0.025 A 
HETATM   20  C   UNL     1       7.970  23.062  54.361  1.00  0.00    -0.012 A 
HETATM   21  C   UNL     1       8.494  20.886  55.360  1.00  0.00     0.012 A 
HETATM   22  C   UNL     1       7.854  22.384  53.117  1.00  0.00     0.013 A 
HETATM   23  C   UNL     1       8.058  21.006  53.003  1.00  0.00     0.001 A 
HETATM   24  C   UNL     1       8.381  20.258  54.124  1.00  0.00     0.001 A 
BRANCH  16  25
HETATM   25  O   UNL     1       7.679  26.361  56.051  1.00  0.00    -0.360 OA
HETATM   26  H   UNL     1       8.525  26.756  56.351  1.00  0.00     0.217 HD
ENDBRANCH  16  25
ENDBRANCH   3  15
TORSDOF 6
ENDMDL
MODEL 8
REMARK VINA RESULT:      -8.4      5.330      7.559
REMARK  6 active torsions:
REMARK  status: ('A' for Active; 'I' for Inactive)
REMARK    1  A    between atoms: C_5  and  C_6 
REMARK    2  A    between atoms: C_6  and  O_7 
REMARK    3  A    between atoms: C_6  and  C_8 
REMARK    4  A    between atoms: C_8  and  N_9 
REMARK    5  A    between atoms: C_11  and  C_12 
REMARK    6  A    between atoms: C_13  and  O_14 
ROOT
HETATM    1  N   UNL     1       5.444  25.831  51.535  1.00  0.00    -0.395 N 
HETATM    2  H   UNL     1       5.913  26.675  51.899  1.00  0.00     0.159 HD
HETATM    3  C   UNL     1       5.409  24.811  52.318  1.00  0.00     0.098 C 
ENDROOT
BRANCH   1   4
HETATM    4  C   UNL     1       4.858  25.917  50.175  1.00  0.00     0.155 C 
BRANCH   4   5
HETATM    5  C   UNL     1       4.503  27.375  49.835  1.00  0.00     0.170 C 
BRANCH   5   6
HETATM    6  C   UNL     1       3.318  27.500  48.910  1.00  0.00    -0.011 A 
HETATM    7  C   UNL     1       2.997  26.457  48.046  1.00  0.00     0.126 A 
HETATM    8  N   UNL     1       1.987  26.495  47.154  1.00  0.00    -0.265 NA
HETATM    9  C   UNL     1       1.208  27.600  47.127  1.00  0.00     0.030 A 
HETATM   10  C   UNL     1       0.049  27.604  46.175  1.00  0.00     0.070 C 
HETATM   11  C   UNL     1       1.437  28.687  47.961  1.00  0.00     0.027 A 
HETATM   12  C   UNL     1       2.508  28.640  48.852  1.00  0.00     0.013 A 
ENDBRANCH   5   6
BRANCH   5  13
HETATM   13  O   UNL     1       5.664  28.008  49.291  1.00  0.00    -0.389 OA
HETATM   14  H   UNL     1       6.290  28.142  50.031  1.00  0.00     0.210 HD
ENDBRANCH   5  13
ENDBRANCH   4   5
ENDBRANCH   1   4
BRANCH   3  15
HETATM   15  C   UNL     1       6.027  24.786  53.668  1.00  0.00     0.023 A 
HETATM   16  C   UNL     1       5.603  25.705  54.651  1.00  0.00     0.078 A 
HETATM   17  C   UNL     1       6.204  25.739  55.902  1.00  0.00     0.038 A 
HETATM   18  C   UNL     1       7.237  24.850  56.187  1.00  0.00     0.015 A 
HETATM   19  C   UNL     1       7.672  23.912  55.241  1.00  0.00    -0.025 A 
HETATM   20  C   UNL     1       7.070  23.855  53.955  1.00  0.00    -0.012 A 
HETATM   21  C   UNL     1       8.709  23.029  55.580  1.00  0.00     0.012 A 
HETATM   22  C   UNL     1       7.556  22.860  53.064  1.00  0.00     0.013 A 
HETATM   23  C   UNL     1       8.586  21.986  53.422  1.00  0.00     0.001 A 
HETATM   24  C   UNL     1       9.165  22.073  54.679  1.00  0.00     0.001 A 
BRANCH  16  25
HETATM   25  O   UNL     1       4.582  26.585  54.380  1.00  0.00    -0.360 OA
HETATM   26  H   UNL     1       4.349  27.046  55.214  1.00  0.00     0.217 HD
ENDBRANCH  16  25
ENDBRANCH   3  15
TORSDOF 6
ENDMDL
MODEL 9
REMARK VINA RESULT:      -8.2      2.115      2.774
REMARK  6 active torsions:
REMARK  status: ('A' for Active; 'I' for Inactive)
REMARK    1  A    between atoms: C_5  and  C_6 
REMARK    2  A    between atoms: C_6  and  O_7 
REMARK    3  A    between atoms: C_6  and  C_8 
REMARK    4  A    between atoms: C_8  and  N_9 
REMARK    5  A    between atoms: C_11  and  C_12 
REMARK    6  A    between atoms: C_13  and  O_14 
ROOT
HETATM    1  N   UNL     1       5.197  27.933  55.570  1.00  0.00    -0.395 N 
HETATM    2  H   UNL     1       5.293  28.231  54.587  1.00  0.00     0.159 HD
HETATM    3  C   UNL     1       5.462  26.700  55.824  1.00  0.00     0.098 C 
ENDROOT
BRANCH   1   4
HETATM    4  C   UNL     1       4.788  28.966  56.553  1.00  0.00     0.155 C 
BRANCH   4   5
HETATM    5  C   UNL     1       5.696  30.202  56.442  1.00  0.00     0.170 C 
BRANCH   5   6
HETATM    6  C   UNL     1       6.581  30.402  57.647  1.00  0.00    -0.011 A 
HETATM    7  C   UNL     1       7.550  29.454  57.964  1.00  0.00     0.126 A 
HETATM    8  N   UNL     1       8.354  29.524  59.043  1.00  0.00    -0.265 NA
HETATM    9  C   UNL     1       8.244  30.606  59.846  1.00  0.00     0.030 A 
HETATM   10  C   UNL     1       9.188  30.704  61.007  1.00  0.00     0.070 C 
HETATM   11  C   UNL     1       7.320  31.615  59.605  1.00  0.00     0.027 A 
HETATM   12  C   UNL     1       6.474  31.504  58.502  1.00  0.00     0.013 A 
ENDBRANCH   5   6
BRANCH   5  13
HETATM   13  O   UNL     1       4.876  31.347  56.196  1.00  0.00    -0.389 OA
HETATM   14  H   UNL     1       4.348  31.154  55.395  1.00  0.00     0.210 HD
ENDBRANCH   5  13
ENDBRANCH   4   5
ENDBRANCH   1   4
BRANCH   3  15
HETATM   15  C   UNL     1       5.857  25.712  54.789  1.00  0.00     0.023 A 
HETATM   16  C   UNL     1       5.143  25.642  53.575  1.00  0.00     0.078 A 
HETATM   17  C   UNL     1       5.457  24.689  52.615  1.00  0.00     0.038 A 
HETATM   18  C   UNL     1       6.495  23.794  52.858  1.00  0.00     0.015 A 
HETATM   19  C   UNL     1       7.238  23.845  54.045  1.00  0.00    -0.025 A 
HETATM   20  C   UNL     1       6.938  24.814  55.040  1.00  0.00    -0.012 A 
HETATM   21  C   UNL     1       8.284  22.929  54.237  1.00  0.00     0.012 A 
HETATM   22  C   UNL     1       7.755  24.811  56.203  1.00  0.00     0.013 A 
HETATM   23  C   UNL     1       8.795  23.893  56.375  1.00  0.00     0.001 A 
HETATM   24  C   UNL     1       9.057  22.950  55.393  1.00  0.00     0.001 A 
BRANCH  16  25
HETATM   25  O   UNL     1       4.117  26.523  53.325  1.00  0.00    -0.360 OA
HETATM   26  H   UNL     1       4.353  27.047  52.530  1.00  0.00     0.217 HD
ENDBRANCH  16  25
ENDBRANCH   3  15
TORSDOF 6
ENDMDL
MODEL 10
REMARK VINA RESULT:      -8.2      4.821      7.727
REMARK  6 active torsions:
REMARK  status: ('A' for Active; 'I' for Inactive)
REMARK    1  A    between atoms: C_5  and  C_6 
REMARK    2  A    between atoms: C_6  and  O_7 
REMARK    3  A    between atoms: C_6  and  C_8 
REMARK    4  A    between atoms: C_8  and  N_9 
REMARK    5  A    between atoms: C_11  and  C_12 
REMARK    6  A    between atoms: C_13  and  O_14 
ROOT
HETATM    1  N   UNL     1       4.858  26.367  52.421  1.00  0.00    -0.395 N 
HETATM    2  H   UNL     1       4.044  26.958  52.650  1.00  0.00     0.159 HD
HETATM    3  C   UNL     1       5.401  26.559  51.270  1.00  0.00     0.098 C 
ENDROOT
BRANCH   1   4
HETATM    4  C   UNL     1       5.301  25.398  53.452  1.00  0.00     0.155 C 
BRANCH   4   5
HETATM    5  C   UNL     1       6.824  25.198  53.382  1.00  0.00     0.170 C 
BRANCH   5   6
HETATM    6  C   UNL     1       7.267  23.823  53.814  1.00  0.00    -0.011 A 
HETATM    7  C   UNL     1       7.176  23.451  55.153  1.00  0.00     0.126 A 
HETATM    8  N   UNL     1       7.587  22.264  55.640  1.00  0.00    -0.265 NA
HETATM    9  C   UNL     1       8.079  21.357  54.765  1.00  0.00     0.030 A 
HETATM   10  C   UNL     1       8.474  20.016  55.309  1.00  0.00     0.070 C 
HETATM   11  C   UNL     1       8.195  21.627  53.407  1.00  0.00     0.027 A 
HETATM   12  C   UNL     1       7.795  22.875  52.931  1.00  0.00     0.013 A 
ENDBRANCH   5   6
BRANCH   5  13
HETATM   13  O   UNL     1       7.451  26.221  54.162  1.00  0.00    -0.389 OA
HETATM   14  H   UNL     1       8.416  26.068  54.110  1.00  0.00     0.210 HD
ENDBRANCH   5  13
ENDBRANCH   4   5
ENDBRANCH   1   4
BRANCH   3  15
HETATM   15  C   UNL     1       4.900  27.541  50.276  1.00  0.00     0.023 A 
HETATM   16  C   UNL     1       5.176  28.914  50.444  1.00  0.00     0.078 A 
HETATM   17  C   UNL     1       4.670  29.858  49.559  1.00  0.00     0.038 A 
HETATM   18  C   UNL     1       3.884  29.437  48.491  1.00  0.00     0.015 A 
HETATM   19  C   UNL     1       3.603  28.080  48.283  1.00  0.00    -0.025 A 
HETATM   20  C   UNL     1       4.112  27.096  49.172  1.00  0.00    -0.012 A 
HETATM   21  C   UNL     1       2.815  27.705  47.183  1.00  0.00     0.012 A 
HETATM   22  C   UNL     1       3.799  25.741  48.875  1.00  0.00     0.013 A 
HETATM   23  C   UNL     1       3.016  25.387  47.773  1.00  0.00     0.001 A 
HETATM   24  C   UNL     1       2.521  26.369  46.929  1.00  0.00     0.001 A 
BRANCH  16  25
HETATM   25  O   UNL     1       5.954  29.339  51.495  1.00  0.00    -0.360 OA
HETATM   26  H   UNL     1       6.894  29.201  51.252  1.00  0.00     0.217 HD
ENDBRANCH  16  25
ENDBRANCH   3  15
TORSDOF 6
ENDMDL
