MODEL 1
REMARK VINA RESULT:      -9.7      0.000      0.000
REMARK  8 active torsions:
REMARK  status: ('A' for Active; 'I' for Inactive)
REMARK    1  A    between atoms: C_2  and  C_3 
REMARK    2  A    between atoms: C_3  and  C_4 
REMARK       I    between atoms: C_4  and  N_5 
REMARK    3  A    between atoms: N_8  and  C_9 
REMARK    4  A    between atoms: C_13  and  N_14 
REMARK    5  A    between atoms: N_14  and  C_15 
REMARK    6  A    between atoms: C_15  and  N_16 
REMARK       I    between atoms: N_16  and  C_17 
REMARK    7  A    between atoms: C_17  and  C_18 
REMARK    8  A    between atoms: C_21  and  O_22 
ROOT
HETATM    1  C   UNL     1       6.930  27.997  56.973  1.00  0.00     0.052 A 
HETATM    2  C   UNL     1       5.839  28.884  56.900  1.00  0.00     0.062 A 
HETATM    3 CL   UNL     1       4.332  28.516  56.125  1.00  0.00    -0.082 Cl
HETATM    4  C   UNL     1       5.876  30.138  57.540  1.00  0.00     0.055 A 
HETATM    5  C   UNL     1       6.985  30.552  58.282  1.00  0.00     0.036 A 
HETATM    6  C   UNL     1       8.058  29.680  58.395  1.00  0.00     0.032 A 
HETATM    7  C   UNL     1       8.031  28.439  57.738  1.00  0.00     0.033 A 
ENDROOT
BRANCH   5   8
HETATM    8  N   UNL     1       6.882  31.798  58.937  1.00  0.00    -0.333 N 
HETATM    9  H   UNL     1       7.543  32.495  58.609  1.00  0.00     0.168 HD
BRANCH   8  10
HETATM   10  C   UNL     1       5.918  32.335  59.710  1.00  0.00     0.179 C 
HETATM   11  S   UNL     1       4.796  33.348  58.982  1.00  0.00    -0.040 SA
BRANCH  10  12
HETATM   12  N   UNL     1       5.802  32.136  61.044  1.00  0.00    -0.299 N 
HETATM   13  C   UNL     1       6.865  32.083  61.939  1.00  0.00     0.257 C 
HETATM   14  O   UNL     1       7.944  31.530  61.787  1.00  0.00    -0.267 OA
HETATM   15  H   UNL     1       5.004  32.646  61.402  1.00  0.00     0.171 HD
BRANCH  13  16
HETATM   16  C   UNL     1       6.558  32.695  63.256  1.00  0.00     0.032 A 
HETATM   17  C   UNL     1       7.606  33.110  64.078  1.00  0.00     0.020 A 
HETATM   18  C   UNL     1       7.320  33.668  65.325  1.00  0.00     0.038 A 
HETATM   19  C   UNL     1       5.996  33.846  65.739  1.00  0.00     0.068 A 
HETATM   20  C   UNL     1       4.950  33.430  64.911  1.00  0.00     0.038 A 
HETATM   21  C   UNL     1       5.229  32.854  63.667  1.00  0.00     0.020 A 
BRANCH  19  22
HETATM   22  O   UNL     1       5.842  34.408  66.975  1.00  0.00    -0.356 OA
HETATM   23  C   UNL     1       4.604  34.142  67.626  1.00  0.00     0.210 C 
ENDBRANCH  19  22
ENDBRANCH  13  16
ENDBRANCH  10  12
ENDBRANCH   8  10
ENDBRANCH   5   8
BRANCH   1  24
HETATM   24  N   UNL     1       7.059  26.744  56.359  1.00  0.00    -0.376 N 
HETATM   25  C   UNL     1       7.821  25.656  56.994  1.00  0.00     0.143 C 
HETATM   26  C   UNL     1       7.409  24.296  56.396  1.00  0.00     0.145 C 
HETATM   27  N   UNL     1       7.464  24.273  54.925  1.00  0.00    -0.349 N 
HETATM   28  C   UNL     1       7.546  23.095  54.184  1.00  0.00     0.219 C 
HETATM   29  C   UNL     1       6.854  25.436  54.265  1.00  0.00     0.145 C 
HETATM   30  O   UNL     1       7.259  23.061  52.987  1.00  0.00    -0.273 OA
HETATM   31  C   UNL     1       7.259  26.784  54.892  1.00  0.00     0.143 C 
BRANCH  28  32
HETATM   32  C   UNL     1       8.029  21.854  54.925  1.00  0.00     0.103 C 
BRANCH  32  33
HETATM   33  C   UNL     1       7.800  20.549  54.162  1.00  0.00     0.005 C 
HETATM   34  C   UNL     1       8.803  20.335  53.037  1.00  0.00     0.005 C 
ENDBRANCH  32  33
ENDBRANCH  28  32
ENDBRANCH   1  24
TORSDOF 8
ENDMDL
MODEL 2
REMARK VINA RESULT:      -9.7      1.358      1.986
REMARK  8 active torsions:
REMARK  status: ('A' for Active; 'I' for Inactive)
REMARK    1  A    between atoms: C_2  and  C_3 
REMARK    2  A    between atoms: C_3  and  C_4 
REMARK       I    between atoms: C_4  and  N_5 
REMARK    3  A    between atoms: N_8  and  C_9 
REMARK    4  A    between atoms: C_13  and  N_14 
REMARK    5  A    between atoms: N_14  and  C_15 
REMARK    6  A    between atoms: C_15  and  N_16 
REMARK       I    between atoms: N_16  and  C_17 
REMARK    7  A    between atoms: C_17  and  C_18 
REMARK    8  A    between atoms: C_21  and  O_22 
ROOT
HETATM    1  C   UNL     1       7.273  28.105  57.044  1.00  0.00     0.052 A 
HETATM    2  C   UNL     1       8.225  29.089  57.373  1.00  0.00     0.062 A 
HETATM    3 CL   UNL     1       9.930  28.930  57.094  1.00  0.00    -0.082 Cl
HETATM    4  C   UNL     1       7.832  30.337  57.894  1.00  0.00     0.055 A 
HETATM    5  C   UNL     1       6.487  30.658  58.097  1.00  0.00     0.036 A 
HETATM    6  C   UNL     1       5.531  29.715  57.748  1.00  0.00     0.032 A 
HETATM    7  C   UNL     1       5.923  28.463  57.250  1.00  0.00     0.033 A 
ENDROOT
BRANCH   5   8
HETATM    8  N   UNL     1       6.209  31.962  58.558  1.00  0.00    -0.333 N 
HETATM    9  H   UNL     1       6.584  32.700  57.970  1.00  0.00     0.168 HD
BRANCH   8  10
HETATM   10  C   UNL     1       5.328  32.432  59.463  1.00  0.00     0.179 C 
HETATM   11  S   UNL     1       4.086  33.419  58.915  1.00  0.00    -0.040 SA
BRANCH  10  12
HETATM   12  N   UNL     1       5.385  32.184  60.793  1.00  0.00    -0.299 N 
HETATM   13  C   UNL     1       6.555  32.090  61.538  1.00  0.00     0.257 C 
HETATM   14  O   UNL     1       7.597  31.533  61.226  1.00  0.00    -0.267 OA
HETATM   15  H   UNL     1       4.648  32.688  61.271  1.00  0.00     0.171 HD
BRANCH  13  16
HETATM   16  C   UNL     1       6.431  32.655  62.904  1.00  0.00     0.032 A 
HETATM   17  C   UNL     1       5.163  32.814  63.465  1.00  0.00     0.020 A 
HETATM   18  C   UNL     1       5.042  33.363  64.743  1.00  0.00     0.038 A 
HETATM   19  C   UNL     1       6.178  33.719  65.475  1.00  0.00     0.068 A 
HETATM   20  C   UNL     1       7.445  33.556  64.910  1.00  0.00     0.038 A 
HETATM   21  C   UNL     1       7.574  33.023  63.623  1.00  0.00     0.020 A 
BRANCH  19  22
HETATM   22  O   UNL     1       5.933  34.239  66.716  1.00  0.00    -0.356 OA
HETATM   23  C   UNL     1       4.585  34.150  67.168  1.00  0.00     0.210 C 
ENDBRANCH  19  22
ENDBRANCH  13  16
ENDBRANCH  10  12
ENDBRANCH   8  10
ENDBRANCH   5   8
BRANCH   1  24
HETATM   24  N   UNL     1       7.509  26.810  56.560  1.00  0.00    -0.376 N 
HETATM   25  C   UNL     1       6.766  26.278  55.407  1.00  0.00     0.143 C 
HETATM   26  C   UNL     1       7.525  25.089  54.786  1.00  0.00     0.145 C 
HETATM   27  N   UNL     1       7.895  24.062  55.773  1.00  0.00    -0.349 N 
HETATM   28  C   UNL     1       8.201  22.746  55.427  1.00  0.00     0.219 C 
HETATM   29  C   UNL     1       8.491  24.582  57.012  1.00  0.00     0.145 C 
HETATM   30  O   UNL     1       8.819  22.002  56.189  1.00  0.00    -0.273 OA
HETATM   31  C   UNL     1       7.731  25.785  57.605  1.00  0.00     0.143 C 
BRANCH  28  32
HETATM   32  C   UNL     1       7.714  22.269  54.064  1.00  0.00     0.103 C 
BRANCH  32  33
HETATM   33  C   UNL     1       7.766  20.751  53.885  1.00  0.00     0.005 C 
HETATM   34  C   UNL     1       8.775  20.311  52.833  1.00  0.00     0.005 C 
ENDBRANCH  32  33
ENDBRANCH  28  32
ENDBRANCH   1  24
TORSDOF 8
ENDMDL
MODEL 3
REMARK VINA RESULT:      -9.5      1.726      2.065
REMARK  8 active torsions:
REMARK  status: ('A' for Active; 'I' for Inactive)
REMARK    1  A    between atoms: C_2  and  C_3 
REMARK    2  A    between atoms: C_3  and  C_4 
REMARK       I    between atoms: C_4  and  N_5 
REMARK    3  A    between atoms: N_8  and  C_9 
REMARK    4  A    between atoms: C_13  and  N_14 
REMARK    5  A    between atoms: N_14  and  C_15 
REMARK    6  A    between atoms: C_15  and  N_16 
REMARK       I    between atoms: N_16  and  C_17 
REMARK    7  A    between atoms: C_17  and  C_18 
REMARK    8  A    between atoms: C_21  and  O_22 
ROOT
HETATM    1  C   UNL     1       7.705  28.704  56.902  1.00  0.00     0.052 A 
HETATM    2  C   UNL     1       6.692  29.475  57.505  1.00  0.00     0.062 A 
HETATM    3 CL   UNL     1       4.994  29.180  57.310  1.00  0.00    -0.082 Cl
HETATM    4  C   UNL     1       7.005  30.521  58.395  1.00  0.00     0.055 A 
HETATM    5  C   UNL     1       8.326  30.831  58.728  1.00  0.00     0.036 A 
HETATM    6  C   UNL     1       9.338  30.063  58.172  1.00  0.00     0.032 A 
HETATM    7  C   UNL     1       9.028  29.035  57.266  1.00  0.00     0.033 A 
ENDROOT
BRANCH   5   8
HETATM    8  N   UNL     1       8.516  31.853  59.683  1.00  0.00    -0.333 N 
HETATM    9  H   UNL     1       8.401  32.792  59.315  1.00  0.00     0.168 HD
BRANCH   8  10
HETATM   10  C   UNL     1       8.552  31.835  61.030  1.00  0.00     0.179 C 
HETATM   11  S   UNL     1       9.369  30.576  61.780  1.00  0.00    -0.040 SA
BRANCH  10  12
HETATM   12  N   UNL     1       7.952  32.750  61.827  1.00  0.00    -0.299 N 
HETATM   13  C   UNL     1       6.591  32.790  62.113  1.00  0.00     0.257 C 
HETATM   14  O   UNL     1       5.660  32.614  61.343  1.00  0.00    -0.267 OA
HETATM   15  H   UNL     1       8.534  32.942  62.633  1.00  0.00     0.171 HD
BRANCH  13  16
HETATM   16  C   UNL     1       6.294  33.207  63.506  1.00  0.00     0.032 A 
HETATM   17  C   UNL     1       4.968  33.399  63.894  1.00  0.00     0.020 A 
HETATM   18  C   UNL     1       4.686  33.810  65.198  1.00  0.00     0.038 A 
HETATM   19  C   UNL     1       5.718  33.994  66.124  1.00  0.00     0.068 A 
HETATM   20  C   UNL     1       7.044  33.799  65.731  1.00  0.00     0.038 A 
HETATM   21  C   UNL     1       7.335  33.404  64.421  1.00  0.00     0.020 A 
BRANCH  19  22
HETATM   22  O   UNL     1       5.318  34.390  67.370  1.00  0.00    -0.356 OA
HETATM   23  C   UNL     1       6.364  34.691  68.288  1.00  0.00     0.210 C 
ENDBRANCH  19  22
ENDBRANCH  13  16
ENDBRANCH  10  12
ENDBRANCH   8  10
ENDBRANCH   5   8
BRANCH   1  24
HETATM   24  N   UNL     1       7.554  27.667  55.971  1.00  0.00    -0.376 N 
HETATM   25  C   UNL     1       7.694  26.257  56.367  1.00  0.00     0.143 C 
HETATM   26  C   UNL     1       7.017  25.341  55.328  1.00  0.00     0.145 C 
HETATM   27  N   UNL     1       7.454  25.611  53.949  1.00  0.00    -0.349 N 
HETATM   28  C   UNL     1       7.321  24.688  52.913  1.00  0.00     0.219 C 
HETATM   29  C   UNL     1       7.483  27.033  53.578  1.00  0.00     0.145 C 
HETATM   30  O   UNL     1       7.372  25.028  51.731  1.00  0.00    -0.273 OA
HETATM   31  C   UNL     1       8.142  27.935  54.638  1.00  0.00     0.143 C 
BRANCH  28  32
HETATM   32  C   UNL     1       7.128  23.231  53.317  1.00  0.00     0.103 C 
BRANCH  32  33
HETATM   33  C   UNL     1       8.392  22.380  53.183  1.00  0.00     0.005 C 
HETATM   34  C   UNL     1       8.092  20.903  52.963  1.00  0.00     0.005 C 
ENDBRANCH  32  33
ENDBRANCH  28  32
ENDBRANCH   1  24
TORSDOF 8
ENDMDL
MODEL 4
REMARK VINA RESULT:      -9.5      1.264      1.756
REMARK  8 active torsions:
REMARK  status: ('A' for Active; 'I' for Inactive)
REMARK    1  A    between atoms: C_2  and  C_3 
REMARK    2  A    between atoms: C_3  and  C_4 
REMARK       I    between atoms: C_4  and  N_5 
REMARK    3  A    between atoms: N_8  and  C_9 
REMARK    4  A    between atoms: C_13  and  N_14 
REMARK    5  A    between atoms: N_14  and  C_15 
REMARK    6  A    between atoms: C_15  and  N_16 
REMARK       I    between atoms: N_16  and  C_17 
REMARK    7  A    between atoms: C_17  and  C_18 
REMARK    8  A    between atoms: C_21  and  O_22 
ROOT
HETATM    1  C   UNL     1       6.656  28.553  56.758  1.00  0.00     0.052 A 
HETATM    2  C   UNL     1       7.564  29.376  57.453  1.00  0.00     0.062 A 
HETATM    3 CL   UNL     1       9.281  29.136  57.472  1.00  0.00    -0.082 Cl
HETATM    4  C   UNL     1       7.128  30.529  58.134  1.00  0.00     0.055 A 
HETATM    5  C   UNL     1       5.784  30.913  58.142  1.00  0.00     0.036 A 
HETATM    6  C   UNL     1       4.878  30.136  57.436  1.00  0.00     0.032 A 
HETATM    7  C   UNL     1       5.308  28.974  56.776  1.00  0.00     0.033 A 
ENDROOT
BRANCH   5   8
HETATM    8  N   UNL     1       5.475  32.124  58.799  1.00  0.00    -0.333 N 
HETATM    9  H   UNL     1       5.613  32.952  58.229  1.00  0.00     0.168 HD
BRANCH   8  10
HETATM   10  C   UNL     1       4.783  32.389  59.924  1.00  0.00     0.179 C 
HETATM   11  S   UNL     1       3.250  33.054  59.769  1.00  0.00    -0.040 SA
BRANCH  10  12
HETATM   12  N   UNL     1       5.247  32.181  61.179  1.00  0.00    -0.299 N 
HETATM   13  C   UNL     1       6.427  32.709  61.692  1.00  0.00     0.257 C 
HETATM   14  O   UNL     1       7.510  32.800  61.134  1.00  0.00    -0.267 OA
HETATM   15  H   UNL     1       4.479  32.204  61.840  1.00  0.00     0.171 HD
BRANCH  13  16
HETATM   16  C   UNL     1       6.329  33.091  63.123  1.00  0.00     0.032 A 
HETATM   17  C   UNL     1       5.069  33.259  63.700  1.00  0.00     0.020 A 
HETATM   18  C   UNL     1       4.974  33.637  65.040  1.00  0.00     0.038 A 
HETATM   19  C   UNL     1       6.125  33.810  65.815  1.00  0.00     0.068 A 
HETATM   20  C   UNL     1       7.383  33.638  65.232  1.00  0.00     0.038 A 
HETATM   21  C   UNL     1       7.488  33.277  63.885  1.00  0.00     0.020 A 
BRANCH  19  22
HETATM   22  O   UNL     1       5.904  34.173  67.114  1.00  0.00    -0.356 OA
HETATM   23  C   UNL     1       4.562  34.045  67.572  1.00  0.00     0.210 C 
ENDBRANCH  19  22
ENDBRANCH  13  16
ENDBRANCH  10  12
ENDBRANCH   8  10
ENDBRANCH   5   8
BRANCH   1  24
HETATM   24  N   UNL     1       6.929  27.361  56.074  1.00  0.00    -0.376 N 
HETATM   25  C   UNL     1       7.457  26.181  56.778  1.00  0.00     0.143 C 
HETATM   26  C   UNL     1       7.205  24.907  55.946  1.00  0.00     0.145 C 
HETATM   27  N   UNL     1       7.675  25.024  54.556  1.00  0.00    -0.349 N 
HETATM   28  C   UNL     1       7.941  23.920  53.746  1.00  0.00     0.219 C 
HETATM   29  C   UNL     1       7.301  26.274  53.880  1.00  0.00     0.145 C 
HETATM   30  O   UNL     1       8.005  24.016  52.521  1.00  0.00    -0.273 OA
HETATM   31  C   UNL     1       7.538  27.533  54.736  1.00  0.00     0.143 C 
BRANCH  28  32
HETATM   32  C   UNL     1       8.168  22.591  54.457  1.00  0.00     0.103 C 
BRANCH  32  33
HETATM   33  C   UNL     1       8.872  21.542  53.596  1.00  0.00     0.005 C 
HETATM   34  C   UNL     1       7.914  20.513  53.012  1.00  0.00     0.005 C 
ENDBRANCH  32  33
ENDBRANCH  28  32
ENDBRANCH   1  24
TORSDOF 8
ENDMDL
MODEL 5
REMARK VINA RESULT:      -9.3      1.821      2.554
REMARK  8 active torsions:
REMARK  status: ('A' for Active; 'I' for Inactive)
REMARK    1  A    between atoms: C_2  and  C_3 
REMARK    2  A    between atoms: C_3  and  C_4 
REMARK       I    between atoms: C_4  and  N_5 
REMARK    3  A    between atoms: N_8  and  C_9 
REMARK    4  A    between atoms: C_13  and  N_14 
REMARK    5  A    between atoms: N_14  and  C_15 
REMARK    6  A    between atoms: C_15  and  N_16 
REMARK       I    between atoms: N_16  and  C_17 
REMARK    7  A    between atoms: C_17  and  C_18 
REMARK    8  A    between atoms: C_21  and  O_22 
ROOT
HETATM    1  C   UNL     1       6.726  27.126  56.610  1.00  0.00     0.052 A 
HETATM    2  C   UNL     1       7.579  28.205  56.909  1.00  0.00     0.062 A 
HETATM    3 CL   UNL     1       9.310  28.099  56.948  1.00  0.00    -0.082 Cl
HETATM    4  C   UNL     1       7.068  29.499  57.127  1.00  0.00     0.055 A 
HETATM    5  C   UNL     1       5.700  29.772  57.045  1.00  0.00     0.036 A 
HETATM    6  C   UNL     1       4.845  28.730  56.718  1.00  0.00     0.032 A 
HETATM    7  C   UNL     1       5.351  27.435  56.524  1.00  0.00     0.033 A 
ENDROOT
BRANCH   5   8
HETATM    8  N   UNL     1       5.311  31.118  57.213  1.00  0.00    -0.333 N 
HETATM    9  H   UNL     1       4.894  31.536  56.387  1.00  0.00     0.168 HD
BRANCH   8  10
HETATM   10  C   UNL     1       5.130  31.876  58.313  1.00  0.00     0.179 C 
HETATM   11  S   UNL     1       4.086  33.185  58.207  1.00  0.00    -0.040 SA
BRANCH  10  12
HETATM   12  N   UNL     1       5.754  31.672  59.497  1.00  0.00    -0.299 N 
HETATM   13  C   UNL     1       6.998  32.188  59.845  1.00  0.00     0.257 C 
HETATM   14  O   UNL     1       7.998  32.260  59.147  1.00  0.00    -0.267 OA
HETATM   15  H   UNL     1       5.081  31.710  60.254  1.00  0.00     0.171 HD
BRANCH  13  16
HETATM   16  C   UNL     1       7.094  32.582  61.272  1.00  0.00     0.032 A 
HETATM   17  C   UNL     1       6.201  33.525  61.782  1.00  0.00     0.020 A 
HETATM   18  C   UNL     1       6.301  33.912  63.120  1.00  0.00     0.038 A 
HETATM   19  C   UNL     1       7.263  33.337  63.957  1.00  0.00     0.068 A 
HETATM   20  C   UNL     1       8.155  32.393  63.441  1.00  0.00     0.038 A 
HETATM   21  C   UNL     1       8.071  32.013  62.097  1.00  0.00     0.020 A 
BRANCH  19  22
HETATM   22  O   UNL     1       7.259  33.791  65.246  1.00  0.00    -0.356 OA
HETATM   23  C   UNL     1       5.976  34.046  65.808  1.00  0.00     0.210 C 
ENDBRANCH  19  22
ENDBRANCH  13  16
ENDBRANCH  10  12
ENDBRANCH   8  10
ENDBRANCH   5   8
BRANCH   1  24
HETATM   24  N   UNL     1       7.077  25.783  56.412  1.00  0.00    -0.376 N 
HETATM   25  C   UNL     1       6.277  24.904  55.546  1.00  0.00     0.143 C 
HETATM   26  C   UNL     1       7.110  23.682  55.109  1.00  0.00     0.145 C 
HETATM   27  N   UNL     1       7.740  22.981  56.240  1.00  0.00    -0.349 N 
HETATM   28  C   UNL     1       8.181  21.660  56.167  1.00  0.00     0.219 C 
HETATM   29  C   UNL     1       8.408  23.855  57.214  1.00  0.00     0.145 C 
HETATM   30  O   UNL     1       8.987  21.200  56.976  1.00  0.00    -0.273 OA
HETATM   31  C   UNL     1       7.569  25.082  57.620  1.00  0.00     0.143 C 
BRANCH  28  32
HETATM   32  C   UNL     1       7.598  20.807  55.047  1.00  0.00     0.103 C 
BRANCH  32  33
HETATM   33  C   UNL     1       8.646  20.259  54.077  1.00  0.00     0.005 C 
HETATM   34  C   UNL     1       8.302  20.528  52.618  1.00  0.00     0.005 C 
ENDBRANCH  32  33
ENDBRANCH  28  32
ENDBRANCH   1  24
TORSDOF 8
ENDMDL
MODEL 6
REMARK VINA RESULT:      -9.2      3.132     11.164
REMARK  8 active torsions:
REMARK  status: ('A' for Active; 'I' for Inactive)
REMARK    1  A    between atoms: C_2  and  C_3 
REMARK    2  A    between atoms: C_3  and  C_4 
REMARK       I    between atoms: C_4  and  N_5 
REMARK    3  A    between atoms: N_8  and  C_9 
REMARK    4  A    between atoms: C_13  and  N_14 
REMARK    5  A    between atoms: N_14  and  C_15 
REMARK    6  A    between atoms: C_15  and  N_16 
REMARK       I    between atoms: N_16  and  C_17 
REMARK    7  A    between atoms: C_17  and  C_18 
REMARK    8  A    between atoms: C_21  and  O_22 
ROOT
HETATM    1  C   UNL     1       5.257  29.483  55.966  1.00  0.00     0.052 A 
HETATM    2  C   UNL     1       4.607  29.873  54.779  1.00  0.00     0.062 A 
HETATM    3 CL   UNL     1       4.212  31.513  54.377  1.00  0.00    -0.082 Cl
HETATM    4  C   UNL     1       4.296  28.935  53.776  1.00  0.00     0.055 A 
HETATM    5  C   UNL     1       4.627  27.583  53.906  1.00  0.00     0.036 A 
HETATM    6  C   UNL     1       5.298  27.183  55.053  1.00  0.00     0.032 A 
HETATM    7  C   UNL     1       5.587  28.114  56.063  1.00  0.00     0.033 A 
ENDROOT
BRANCH   5   8
HETATM    8  N   UNL     1       4.329  26.748  52.808  1.00  0.00    -0.333 N 
HETATM    9  H   UNL     1       3.341  26.700  52.580  1.00  0.00     0.168 HD
BRANCH   8  10
HETATM   10  C   UNL     1       5.102  26.220  51.839  1.00  0.00     0.179 C 
HETATM   11  S   UNL     1       4.978  26.862  50.294  1.00  0.00    -0.040 SA
BRANCH  10  12
HETATM   12  N   UNL     1       5.957  25.186  52.016  1.00  0.00    -0.299 N 
HETATM   13  C   UNL     1       7.109  25.226  52.796  1.00  0.00     0.257 C 
HETATM   14  O   UNL     1       7.929  26.127  52.872  1.00  0.00    -0.267 OA
HETATM   15  H   UNL     1       5.440  24.321  52.114  1.00  0.00     0.171 HD
BRANCH  13  16
HETATM   16  C   UNL     1       7.377  23.956  53.515  1.00  0.00     0.032 A 
HETATM   17  C   UNL     1       7.698  22.811  52.783  1.00  0.00     0.020 A 
HETATM   18  C   UNL     1       7.933  21.611  53.456  1.00  0.00     0.038 A 
HETATM   19  C   UNL     1       7.885  21.556  54.852  1.00  0.00     0.068 A 
HETATM   20  C   UNL     1       7.564  22.705  55.580  1.00  0.00     0.038 A 
HETATM   21  C   UNL     1       7.311  23.907  54.912  1.00  0.00     0.020 A 
BRANCH  19  22
HETATM   22  O   UNL     1       8.139  20.328  55.396  1.00  0.00    -0.356 OA
HETATM   23  C   UNL     1       9.366  20.209  56.109  1.00  0.00     0.210 C 
ENDBRANCH  19  22
ENDBRANCH  13  16
ENDBRANCH  10  12
ENDBRANCH   8  10
ENDBRANCH   5   8
BRANCH   1  24
HETATM   24  N   UNL     1       5.591  30.286  57.065  1.00  0.00    -0.376 N 
HETATM   25  C   UNL     1       6.807  30.032  57.855  1.00  0.00     0.143 C 
HETATM   26  C   UNL     1       7.198  31.293  58.652  1.00  0.00     0.145 C 
HETATM   27  N   UNL     1       6.085  31.843  59.443  1.00  0.00    -0.349 N 
HETATM   28  C   UNL     1       6.271  32.692  60.533  1.00  0.00     0.219 C 
HETATM   29  C   UNL     1       4.809  31.952  58.722  1.00  0.00     0.145 C 
HETATM   30  O   UNL     1       5.362  33.398  60.968  1.00  0.00    -0.273 OA
HETATM   31  C   UNL     1       4.447  30.691  57.913  1.00  0.00     0.143 C 
BRANCH  28  32
HETATM   32  C   UNL     1       7.655  32.687  61.173  1.00  0.00     0.103 C 
BRANCH  32  33
HETATM   33  C   UNL     1       7.736  31.874  62.466  1.00  0.00     0.005 C 
HETATM   34  C   UNL     1       7.886  32.745  63.706  1.00  0.00     0.005 C 
ENDBRANCH  32  33
ENDBRANCH  28  32
ENDBRANCH   1  24
TORSDOF 8
ENDMDL
MODEL 7
REMARK VINA RESULT:      -9.1      2.791     11.806
REMARK  8 active torsions:
REMARK  status: ('A' for Active; 'I' for Inactive)
REMARK    1  A    between atoms: C_2  and  C_3 
REMARK    2  A    between atoms: C_3  and  C_4 
REMARK       I    between atoms: C_4  and  N_5 
REMARK    3  A    between atoms: N_8  and  C_9 
REMARK    4  A    between atoms: C_13  and  N_14 
REMARK    5  A    between atoms: N_14  and  C_15 
REMARK    6  A    between atoms: C_15  and  N_16 
REMARK       I    between atoms: N_16  and  C_17 
REMARK    7  A    between atoms: C_17  and  C_18 
REMARK    8  A    between atoms: C_21  and  O_22 
ROOT
HETATM    1  C   UNL     1       6.620  32.081  60.729  1.00  0.00     0.052 A 
HETATM    2  C   UNL     1       7.801  31.314  60.721  1.00  0.00     0.062 A 
HETATM    3 CL   UNL     1       8.761  30.986  62.128  1.00  0.00    -0.082 Cl
HETATM    4  C   UNL     1       8.251  30.681  59.547  1.00  0.00     0.055 A 
HETATM    5  C   UNL     1       7.542  30.773  58.345  1.00  0.00     0.036 A 
HETATM    6  C   UNL     1       6.359  31.495  58.338  1.00  0.00     0.032 A 
HETATM    7  C   UNL     1       5.923  32.147  59.503  1.00  0.00     0.033 A 
ENDROOT
BRANCH   5   8
HETATM    8  N   UNL     1       8.051  30.039  57.252  1.00  0.00    -0.333 N 
HETATM    9  H   UNL     1       7.838  30.444  56.345  1.00  0.00     0.168 HD
BRANCH   8  10
HETATM   10  C   UNL     1       8.981  29.068  57.170  1.00  0.00     0.179 C 
HETATM   11  S   UNL     1      10.556  29.514  56.798  1.00  0.00    -0.040 SA
BRANCH  10  12
HETATM   12  N   UNL     1       8.733  27.748  57.342  1.00  0.00    -0.299 N 
HETATM   13  C   UNL     1       7.511  27.128  57.107  1.00  0.00     0.257 C 
HETATM   14  O   UNL     1       6.397  27.539  57.394  1.00  0.00    -0.267 OA
HETATM   15  H   UNL     1       9.525  27.203  57.023  1.00  0.00     0.171 HD
BRANCH  13  16
HETATM   16  C   UNL     1       7.642  25.764  56.539  1.00  0.00     0.032 A 
HETATM   17  C   UNL     1       7.017  25.465  55.328  1.00  0.00     0.020 A 
HETATM   18  C   UNL     1       7.122  24.177  54.800  1.00  0.00     0.038 A 
HETATM   19  C   UNL     1       7.877  23.199  55.455  1.00  0.00     0.068 A 
HETATM   20  C   UNL     1       8.502  23.504  56.667  1.00  0.00     0.038 A 
HETATM   21  C   UNL     1       8.386  24.787  57.211  1.00  0.00     0.020 A 
BRANCH  19  22
HETATM   22  O   UNL     1       7.912  21.980  54.839  1.00  0.00    -0.356 OA
HETATM   23  C   UNL     1       8.482  21.963  53.534  1.00  0.00     0.210 C 
ENDBRANCH  19  22
ENDBRANCH  13  16
ENDBRANCH  10  12
ENDBRANCH   8  10
ENDBRANCH   5   8
BRANCH   1  24
HETATM   24  N   UNL     1       6.072  32.802  61.798  1.00  0.00    -0.376 N 
HETATM   25  C   UNL     1       5.567  32.120  63.001  1.00  0.00     0.143 C 
HETATM   26  C   UNL     1       5.488  33.107  64.182  1.00  0.00     0.145 C 
HETATM   27  N   UNL     1       4.755  34.341  63.853  1.00  0.00    -0.349 N 
HETATM   28  C   UNL     1       4.199  35.177  64.820  1.00  0.00     0.219 C 
HETATM   29  C   UNL     1       5.125  34.956  62.570  1.00  0.00     0.145 C 
HETATM   30  O   UNL     1       3.892  36.343  64.570  1.00  0.00    -0.273 OA
HETATM   31  C   UNL     1       5.222  33.950  61.408  1.00  0.00     0.143 C 
BRANCH  28  32
HETATM   32  C   UNL     1       3.969  34.569  66.198  1.00  0.00     0.103 C 
BRANCH  32  33
HETATM   33  C   UNL     1       4.799  35.218  67.307  1.00  0.00     0.005 C 
HETATM   34  C   UNL     1       5.300  34.216  68.338  1.00  0.00     0.005 C 
ENDBRANCH  32  33
ENDBRANCH  28  32
ENDBRANCH   1  24
TORSDOF 8
ENDMDL
MODEL 8
REMARK VINA RESULT:      -8.8      3.646      4.495
REMARK  8 active torsions:
REMARK  status: ('A' for Active; 'I' for Inactive)
REMARK    1  A    between atoms: C_2  and  C_3 
REMARK    2  A    between atoms: C_3  and  C_4 
REMARK       I    between atoms: C_4  and  N_5 
REMARK    3  A    between atoms: N_8  and  C_9 
REMARK    4  A    between atoms: C_13  and  N_14 
REMARK    5  A    between atoms: N_14  and  C_15 
REMARK    6  A    between atoms: C_15  and  N_16 
REMARK       I    between atoms: N_16  and  C_17 
REMARK    7  A    between atoms: C_17  and  C_18 
REMARK    8  A    between atoms: C_21  and  O_22 
ROOT
HETATM    1  C   UNL     1       6.132  28.458  54.982  1.00  0.00     0.052 A 
HETATM    2  C   UNL     1       5.432  28.907  56.119  1.00  0.00     0.062 A 
HETATM    3 CL   UNL     1       3.707  29.061  56.206  1.00  0.00    -0.082 Cl
HETATM    4  C   UNL     1       6.105  29.194  57.322  1.00  0.00     0.055 A 
HETATM    5  C   UNL     1       7.489  29.036  57.446  1.00  0.00     0.036 A 
HETATM    6  C   UNL     1       8.192  28.564  56.348  1.00  0.00     0.032 A 
HETATM    7  C   UNL     1       7.525  28.300  55.142  1.00  0.00     0.033 A 
ENDROOT
BRANCH   5   8
HETATM    8  N   UNL     1       8.044  29.287  58.719  1.00  0.00    -0.333 N 
HETATM    9  H   UNL     1       8.532  28.494  59.123  1.00  0.00     0.168 HD
BRANCH   8  10
HETATM   10  C   UNL     1       8.294  30.431  59.386  1.00  0.00     0.179 C 
HETATM   11  S   UNL     1       9.550  31.402  58.844  1.00  0.00    -0.040 SA
BRANCH  10  12
HETATM   12  N   UNL     1       7.617  30.845  60.483  1.00  0.00    -0.299 N 
HETATM   13  C   UNL     1       8.189  31.104  61.724  1.00  0.00     0.257 C 
HETATM   14  O   UNL     1       9.049  30.455  62.301  1.00  0.00    -0.267 OA
HETATM   15  H   UNL     1       6.911  31.522  60.220  1.00  0.00     0.171 HD
BRANCH  13  16
HETATM   16  C   UNL     1       7.568  32.251  62.431  1.00  0.00     0.032 A 
HETATM   17  C   UNL     1       6.632  33.040  61.762  1.00  0.00     0.020 A 
HETATM   18  C   UNL     1       6.060  34.131  62.418  1.00  0.00     0.038 A 
HETATM   19  C   UNL     1       6.390  34.416  63.747  1.00  0.00     0.068 A 
HETATM   20  C   UNL     1       7.327  33.622  64.412  1.00  0.00     0.038 A 
HETATM   21  C   UNL     1       7.918  32.537  63.756  1.00  0.00     0.020 A 
BRANCH  19  22
HETATM   22  O   UNL     1       5.761  35.504  64.284  1.00  0.00    -0.356 OA
HETATM   23  C   UNL     1       4.792  36.132  63.449  1.00  0.00     0.210 C 
ENDBRANCH  19  22
ENDBRANCH  13  16
ENDBRANCH  10  12
ENDBRANCH   8  10
ENDBRANCH   5   8
BRANCH   1  24
HETATM   24  N   UNL     1       5.612  28.175  53.712  1.00  0.00    -0.376 N 
HETATM   25  C   UNL     1       6.338  27.316  52.763  1.00  0.00     0.143 C 
HETATM   26  C   UNL     1       5.375  26.773  51.689  1.00  0.00     0.145 C 
HETATM   27  N   UNL     1       4.581  27.829  51.039  1.00  0.00    -0.349 N 
HETATM   28  C   UNL     1       3.968  27.667  49.798  1.00  0.00     0.219 C 
HETATM   29  C   UNL     1       3.978  28.803  51.960  1.00  0.00     0.145 C 
HETATM   30  O   UNL     1       3.055  28.403  49.424  1.00  0.00    -0.273 OA
HETATM   31  C   UNL     1       4.950  29.317  53.039  1.00  0.00     0.143 C 
BRANCH  28  32
HETATM   32  C   UNL     1       4.500  26.543  48.916  1.00  0.00     0.103 C 
BRANCH  32  33
HETATM   33  C   UNL     1       3.424  25.563  48.447  1.00  0.00     0.005 C 
HETATM   34  C   UNL     1       2.904  25.875  47.050  1.00  0.00     0.005 C 
ENDBRANCH  32  33
ENDBRANCH  28  32
ENDBRANCH   1  24
TORSDOF 8
ENDMDL
MODEL 9
REMARK VINA RESULT:      -8.4      2.196     11.689
REMARK  8 active torsions:
REMARK  status: ('A' for Active; 'I' for Inactive)
REMARK    1  A    between atoms: C_2  and  C_3 
REMARK    2  A    between atoms: C_3  and  C_4 
REMARK       I    between atoms: C_4  and  N_5 
REMARK    3  A    between atoms: N_8  and  C_9 
REMARK    4  A    between atoms: C_13  and  N_14 
REMARK    5  A    between atoms: N_14  and  C_15 
REMARK    6  A    between atoms: C_15  and  N_16 
REMARK       I    between atoms: N_16  and  C_17 
REMARK    7  A    between atoms: C_17  and  C_18 
REMARK    8  A    between atoms: C_21  and  O_22 
ROOT
HETATM    1  C   UNL     1       6.500  31.181  58.891  1.00  0.00     0.052 A 
HETATM    2  C   UNL     1       5.480  31.170  57.920  1.00  0.00     0.062 A 
HETATM    3 CL   UNL     1       3.965  31.997  58.087  1.00  0.00    -0.082 Cl
HETATM    4  C   UNL     1       5.662  30.529  56.679  1.00  0.00     0.055 A 
HETATM    5  C   UNL     1       6.861  29.889  56.352  1.00  0.00     0.036 A 
HETATM    6  C   UNL     1       7.891  29.917  57.281  1.00  0.00     0.032 A 
HETATM    7  C   UNL     1       7.701  30.535  58.527  1.00  0.00     0.033 A 
ENDROOT
BRANCH   5   8
HETATM    8  N   UNL     1       6.954  29.342  55.054  1.00  0.00    -0.333 N 
HETATM    9  H   UNL     1       7.630  29.806  54.456  1.00  0.00     0.168 HD
BRANCH   8  10
HETATM   10  C   UNL     1       6.532  28.173  54.534  1.00  0.00     0.179 C 
HETATM   11  S   UNL     1       4.928  28.055  54.058  1.00  0.00    -0.040 SA
BRANCH  10  12
HETATM   12  N   UNL     1       7.306  27.072  54.391  1.00  0.00    -0.299 N 
HETATM   13  C   UNL     1       7.425  26.051  55.328  1.00  0.00     0.257 C 
HETATM   14  O   UNL     1       7.521  26.157  56.541  1.00  0.00    -0.267 OA
HETATM   15  H   UNL     1       7.254  26.733  53.437  1.00  0.00     0.171 HD
BRANCH  13  16
HETATM   16  C   UNL     1       7.553  24.704  54.718  1.00  0.00     0.032 A 
HETATM   17  C   UNL     1       7.485  23.575  55.536  1.00  0.00     0.020 A 
HETATM   18  C   UNL     1       7.623  22.307  54.968  1.00  0.00     0.038 A 
HETATM   19  C   UNL     1       7.793  22.160  53.588  1.00  0.00     0.068 A 
HETATM   20  C   UNL     1       7.859  23.294  52.774  1.00  0.00     0.038 A 
HETATM   21  C   UNL     1       7.738  24.568  53.338  1.00  0.00     0.020 A 
BRANCH  19  22
HETATM   22  O   UNL     1       7.910  20.871  53.149  1.00  0.00    -0.356 OA
HETATM   23  C   UNL     1       8.756  20.028  53.926  1.00  0.00     0.210 C 
ENDBRANCH  19  22
ENDBRANCH  13  16
ENDBRANCH  10  12
ENDBRANCH   8  10
ENDBRANCH   5   8
BRANCH   1  24
HETATM   24  N   UNL     1       6.453  31.734  60.178  1.00  0.00    -0.376 N 
HETATM   25  C   UNL     1       5.701  32.969  60.452  1.00  0.00     0.143 C 
HETATM   26  C   UNL     1       5.399  33.086  61.959  1.00  0.00     0.145 C 
HETATM   27  N   UNL     1       6.596  32.926  62.801  1.00  0.00    -0.349 N 
HETATM   28  C   UNL     1       6.670  33.386  64.115  1.00  0.00     0.219 C 
HETATM   29  C   UNL     1       7.457  31.791  62.441  1.00  0.00     0.145 C 
HETATM   30  O   UNL     1       7.518  32.966  64.902  1.00  0.00    -0.273 OA
HETATM   31  C   UNL     1       7.728  31.677  60.929  1.00  0.00     0.143 C 
BRANCH  28  32
HETATM   32  C   UNL     1       5.660  34.453  64.523  1.00  0.00     0.103 C 
BRANCH  32  33
HETATM   33  C   UNL     1       4.563  33.941  65.457  1.00  0.00     0.005 C 
HETATM   34  C   UNL     1       4.855  34.221  66.925  1.00  0.00     0.005 C 
ENDBRANCH  32  33
ENDBRANCH  28  32
ENDBRANCH   1  24
TORSDOF 8
ENDMDL
MODEL 10
REMARK VINA RESULT:      -8.4      2.696     11.568
REMARK  8 active torsions:
REMARK  status: ('A' for Active; 'I' for Inactive)
REMARK    1  A    between atoms: C_2  and  C_3 
REMARK    2  A    between atoms: C_3  and  C_4 
REMARK       I    between atoms: C_4  and  N_5 
REMARK    3  A    between atoms: N_8  and  C_9 
REMARK    4  A    between atoms: C_13  and  N_14 
REMARK    5  A    between atoms: N_14  and  C_15 
REMARK    6  A    between atoms: C_15  and  N_16 
REMARK       I    between atoms: N_16  and  C_17 
REMARK    7  A    between atoms: C_17  and  C_18 
REMARK    8  A    between atoms: C_21  and  O_22 
ROOT
HETATM    1  C   UNL     1       4.967  31.551  58.004  1.00  0.00     0.052 A 
HETATM    2  C   UNL     1       4.439  31.941  56.757  1.00  0.00     0.062 A 
HETATM    3 CL   UNL     1       3.521  33.389  56.496  1.00  0.00    -0.082 Cl
HETATM    4  C   UNL     1       4.697  31.194  55.591  1.00  0.00     0.055 A 
HETATM    5  C   UNL     1       5.495  30.047  55.615  1.00  0.00     0.036 A 
HETATM    6  C   UNL     1       6.052  29.664  56.826  1.00  0.00     0.032 A 
HETATM    7  C   UNL     1       5.776  30.394  57.993  1.00  0.00     0.033 A 
ENDROOT
BRANCH   5   8
HETATM    8  N   UNL     1       5.741  29.420  54.375  1.00  0.00    -0.333 N 
HETATM    9  H   UNL     1       6.231  30.004  53.705  1.00  0.00     0.168 HD
BRANCH   8  10
HETATM   10  C   UNL     1       5.701  28.129  53.991  1.00  0.00     0.179 C 
HETATM   11  S   UNL     1       4.441  27.640  52.998  1.00  0.00    -0.040 SA
BRANCH  10  12
HETATM   12  N   UNL     1       6.595  27.186  54.372  1.00  0.00    -0.299 N 
HETATM   13  C   UNL     1       6.300  26.076  55.156  1.00  0.00     0.257 C 
HETATM   14  O   UNL     1       5.586  26.028  56.146  1.00  0.00    -0.267 OA
HETATM   15  H   UNL     1       7.226  26.978  53.607  1.00  0.00     0.171 HD
BRANCH  13  16
HETATM   16  C   UNL     1       7.054  24.859  54.762  1.00  0.00     0.032 A 
HETATM   17  C   UNL     1       6.926  24.368  53.463  1.00  0.00     0.020 A 
HETATM   18  C   UNL     1       7.618  23.213  53.095  1.00  0.00     0.038 A 
HETATM   19  C   UNL     1       8.464  22.569  54.004  1.00  0.00     0.068 A 
HETATM   20  C   UNL     1       8.589  23.067  55.304  1.00  0.00     0.038 A 
HETATM   21  C   UNL     1       7.885  24.214  55.685  1.00  0.00     0.020 A 
BRANCH  19  22
HETATM   22  O   UNL     1       9.093  21.454  53.527  1.00  0.00    -0.356 OA
HETATM   23  C   UNL     1       8.257  20.508  52.867  1.00  0.00     0.210 C 
ENDBRANCH  19  22
ENDBRANCH  13  16
ENDBRANCH  10  12
ENDBRANCH   8  10
ENDBRANCH   5   8
BRANCH   1  24
HETATM   24  N   UNL     1       4.765  32.161  59.249  1.00  0.00    -0.376 N 
HETATM   25  C   UNL     1       5.890  32.432  60.159  1.00  0.00     0.143 C 
HETATM   26  C   UNL     1       5.497  33.510  61.187  1.00  0.00     0.145 C 
HETATM   27  N   UNL     1       4.235  33.210  61.884  1.00  0.00    -0.349 N 
HETATM   28  C   UNL     1       3.885  33.781  63.107  1.00  0.00     0.219 C 
HETATM   29  C   UNL     1       3.136  32.774  61.011  1.00  0.00     0.145 C 
HETATM   30  O   UNL     1       2.721  33.790  63.508  1.00  0.00    -0.273 OA
HETATM   31  C   UNL     1       3.555  31.713  59.975  1.00  0.00     0.143 C 
BRANCH  28  32
HETATM   32  C   UNL     1       5.019  34.377  63.931  1.00  0.00     0.103 C 
BRANCH  32  33
HETATM   33  C   UNL     1       5.708  33.371  64.855  1.00  0.00     0.005 C 
HETATM   34  C   UNL     1       7.155  33.737  65.158  1.00  0.00     0.005 C 
ENDBRANCH  32  33
ENDBRANCH  28  32
ENDBRANCH   1  24
TORSDOF 8
ENDMDL
