MODEL 1
REMARK VINA RESULT:     -11.8      0.000      0.000
REMARK  4 active torsions:
REMARK  status: ('A' for Active; 'I' for Inactive)
REMARK    1  A    between atoms: C_8  and  C_9 
REMARK    2  A    between atoms: C_12  and  N_13 
REMARK       I    between atoms: N_13  and  C_14 
REMARK    3  A    between atoms: C_14  and  C_15 
REMARK    4  A    between atoms: C_18  and  N_19 
ROOT
HETATM    1  C   UNL     1       7.438  27.321  56.496  1.00  0.00     0.010 A 
HETATM    2  C   UNL     1       8.573  27.914  57.062  1.00  0.00     0.017 A 
HETATM    3  C   UNL     1       8.463  29.055  57.871  1.00  0.00     0.030 A 
HETATM    4  C   UNL     1       7.216  29.623  58.135  1.00  0.00     0.035 A 
HETATM    5  C   UNL     1       6.086  29.067  57.530  1.00  0.00     0.030 A 
HETATM    6  C   UNL     1       6.197  27.931  56.719  1.00  0.00     0.017 A 
ENDROOT
BRANCH   4   7
HETATM    7  N   UNL     1       7.007  30.699  59.024  1.00  0.00    -0.323 N 
HETATM    8  C   UNL     1       7.759  31.017  60.143  1.00  0.00     0.256 C 
HETATM    9  O   UNL     1       8.810  30.492  60.491  1.00  0.00    -0.267 OA
HETATM   10  H   UNL     1       6.142  31.203  58.887  1.00  0.00     0.169 HD
BRANCH   8  11
HETATM   11  C   UNL     1       7.163  32.057  61.031  1.00  0.00     0.032 A 
HETATM   12  C   UNL     1       6.015  32.774  60.699  1.00  0.00     0.019 A 
HETATM   13  C   UNL     1       5.465  33.688  61.614  1.00  0.00     0.031 A 
HETATM   14  C   UNL     1       6.043  33.920  62.876  1.00  0.00     0.045 A 
HETATM   15  C   UNL     1       7.223  33.216  63.167  1.00  0.00     0.031 A 
HETATM   16  C   UNL     1       7.777  32.302  62.260  1.00  0.00     0.019 A 
BRANCH  14  17
HETATM   17  N   UNL     1       5.451  34.819  63.823  1.00  0.00    -0.252 N 
HETATM   18  C   UNL     1       5.527  36.194  63.750  1.00  0.00     0.231 C 
HETATM   19  O   UNL     1       6.019  36.903  62.883  1.00  0.00    -0.273 OA
HETATM   20  C   UNL     1       4.886  36.788  64.967  1.00  0.00     0.113 C 
HETATM   21  C   UNL     1       4.113  35.644  65.565  1.00  0.00     0.113 C 
HETATM   22  C   UNL     1       4.703  34.430  64.915  1.00  0.00     0.231 C 
HETATM   23  O   UNL     1       4.483  33.308  65.352  1.00  0.00    -0.273 OA
ENDBRANCH  14  17
ENDBRANCH   8  11
ENDBRANCH   4   7
BRANCH   1  24
HETATM   24  C   UNL     1       7.490  26.073  55.727  1.00  0.00     0.139 A 
HETATM   25  N   UNL     1       7.494  26.003  54.350  1.00  0.00    -0.338 N 
HETATM   26  C   UNL     1       7.672  24.699  53.969  1.00  0.00     0.063 A 
HETATM   27  H   UNL     1       7.434  26.789  53.722  1.00  0.00     0.167 HD
HETATM   28  C   UNL     1       7.735  24.002  55.167  1.00  0.00     0.086 A 
HETATM   29  C   UNL     1       7.793  24.089  52.721  1.00  0.00     0.032 A 
HETATM   30  C   UNL     1       7.925  22.614  55.146  1.00  0.00     0.040 A 
HETATM   31  N   UNL     1       7.609  24.857  56.234  1.00  0.00    -0.228 NA
HETATM   32  C   UNL     1       8.052  21.960  53.907  1.00  0.00    -0.060 A 
HETATM   33  C   UNL     1       8.300  20.480  53.853  1.00  0.00     0.048 C 
HETATM   34  C   UNL     1       7.991  22.702  52.717  1.00  0.00     0.009 A 
ENDBRANCH   1  24
TORSDOF 4
ENDMDL
MODEL 2
REMARK VINA RESULT:     -11.3      1.037      2.053
REMARK  4 active torsions:
REMARK  status: ('A' for Active; 'I' for Inactive)
REMARK    1  A    between atoms: C_8  and  C_9 
REMARK    2  A    between atoms: C_12  and  N_13 
REMARK       I    between atoms: N_13  and  C_14 
REMARK    3  A    between atoms: C_14  and  C_15 
REMARK    4  A    between atoms: C_18  and  N_19 
ROOT
HETATM    1  C   UNL     1       7.457  26.599  56.616  1.00  0.00     0.010 A 
HETATM    2  C   UNL     1       8.490  27.436  57.056  1.00  0.00     0.017 A 
HETATM    3  C   UNL     1       8.209  28.667  57.669  1.00  0.00     0.030 A 
HETATM    4  C   UNL     1       6.891  29.083  57.858  1.00  0.00     0.035 A 
HETATM    5  C   UNL     1       5.858  28.277  57.373  1.00  0.00     0.030 A 
HETATM    6  C   UNL     1       6.139  27.051  56.758  1.00  0.00     0.017 A 
ENDROOT
BRANCH   4   7
HETATM    7  N   UNL     1       6.522  30.250  58.562  1.00  0.00    -0.323 N 
HETATM    8  C   UNL     1       7.336  31.319  58.892  1.00  0.00     0.256 C 
HETATM    9  O   UNL     1       8.492  31.499  58.527  1.00  0.00    -0.267 OA
HETATM   10  H   UNL     1       5.597  30.226  58.968  1.00  0.00     0.169 HD
BRANCH   8  11
HETATM   11  C   UNL     1       6.739  32.297  59.848  1.00  0.00     0.032 A 
HETATM   12  C   UNL     1       5.483  32.872  59.664  1.00  0.00     0.019 A 
HETATM   13  C   UNL     1       4.950  33.729  60.641  1.00  0.00     0.031 A 
HETATM   14  C   UNL     1       5.650  34.045  61.820  1.00  0.00     0.045 A 
HETATM   15  C   UNL     1       6.932  33.487  61.960  1.00  0.00     0.031 A 
HETATM   16  C   UNL     1       7.470  32.629  60.989  1.00  0.00     0.019 A 
BRANCH  14  17
HETATM   17  N   UNL     1       5.082  34.883  62.834  1.00  0.00    -0.252 N 
HETATM   18  C   UNL     1       4.351  34.423  63.911  1.00  0.00     0.231 C 
HETATM   19  O   UNL     1       4.107  33.275  64.254  1.00  0.00    -0.273 OA
HETATM   20  C   UNL     1       3.833  35.595  64.689  1.00  0.00     0.113 C 
HETATM   21  C   UNL     1       4.634  36.758  64.173  1.00  0.00     0.113 C 
HETATM   22  C   UNL     1       5.213  36.255  62.886  1.00  0.00     0.231 C 
HETATM   23  O   UNL     1       5.716  37.023  62.076  1.00  0.00    -0.273 OA
ENDBRANCH  14  17
ENDBRANCH   8  11
ENDBRANCH   4   7
BRANCH   1  24
HETATM   24  C   UNL     1       7.696  25.262  56.062  1.00  0.00     0.139 A 
HETATM   25  N   UNL     1       7.767  24.107  56.810  1.00  0.00    -0.338 N 
HETATM   26  C   UNL     1       7.877  23.033  55.966  1.00  0.00     0.063 A 
HETATM   27  H   UNL     1       7.692  24.051  57.814  1.00  0.00     0.167 HD
HETATM   28  C   UNL     1       7.907  23.600  54.701  1.00  0.00     0.086 A 
HETATM   29  C   UNL     1       7.938  21.658  56.192  1.00  0.00     0.032 A 
HETATM   30  C   UNL     1       8.006  22.767  53.577  1.00  0.00     0.040 A 
HETATM   31  N   UNL     1       7.808  24.967  54.777  1.00  0.00    -0.228 NA
HETATM   32  C   UNL     1       8.070  21.374  53.762  1.00  0.00    -0.060 A 
HETATM   33  C   UNL     1       8.134  20.455  52.576  1.00  0.00     0.048 C 
HETATM   34  C   UNL     1       8.029  20.839  55.059  1.00  0.00     0.009 A 
ENDBRANCH   1  24
TORSDOF 4
ENDMDL
MODEL 3
REMARK VINA RESULT:     -11.3      1.096      1.617
REMARK  4 active torsions:
REMARK  status: ('A' for Active; 'I' for Inactive)
REMARK    1  A    between atoms: C_8  and  C_9 
REMARK    2  A    between atoms: C_12  and  N_13 
REMARK       I    between atoms: N_13  and  C_14 
REMARK    3  A    between atoms: C_14  and  C_15 
REMARK    4  A    between atoms: C_18  and  N_19 
ROOT
HETATM    1  C   UNL     1       7.618  26.505  56.585  1.00  0.00     0.010 A 
HETATM    2  C   UNL     1       8.636  27.363  57.016  1.00  0.00     0.017 A 
HETATM    3  C   UNL     1       8.334  28.592  57.621  1.00  0.00     0.030 A 
HETATM    4  C   UNL     1       7.010  28.986  57.811  1.00  0.00     0.035 A 
HETATM    5  C   UNL     1       5.990  28.158  57.334  1.00  0.00     0.030 A 
HETATM    6  C   UNL     1       6.292  26.933  56.727  1.00  0.00     0.017 A 
ENDROOT
BRANCH   4   7
HETATM    7  N   UNL     1       6.621  30.151  58.508  1.00  0.00    -0.323 N 
HETATM    8  C   UNL     1       7.420  31.231  58.841  1.00  0.00     0.256 C 
HETATM    9  O   UNL     1       8.576  31.423  58.485  1.00  0.00    -0.267 OA
HETATM   10  H   UNL     1       5.693  30.118  58.907  1.00  0.00     0.169 HD
BRANCH   8  11
HETATM   11  C   UNL     1       6.804  32.205  59.789  1.00  0.00     0.032 A 
HETATM   12  C   UNL     1       5.535  32.750  59.602  1.00  0.00     0.019 A 
HETATM   13  C   UNL     1       4.985  33.605  60.572  1.00  0.00     0.031 A 
HETATM   14  C   UNL     1       5.681  33.948  61.746  1.00  0.00     0.045 A 
HETATM   15  C   UNL     1       6.975  33.419  61.888  1.00  0.00     0.031 A 
HETATM   16  C   UNL     1       7.530  32.564  60.925  1.00  0.00     0.019 A 
BRANCH  14  17
HETATM   17  N   UNL     1       5.096  34.783  62.753  1.00  0.00    -0.252 N 
HETATM   18  C   UNL     1       5.110  36.163  62.731  1.00  0.00     0.231 C 
HETATM   19  O   UNL     1       5.532  36.924  61.872  1.00  0.00    -0.273 OA
HETATM   20  C   UNL     1       4.502  36.681  63.999  1.00  0.00     0.113 C 
HETATM   21  C   UNL     1       3.807  35.483  64.585  1.00  0.00     0.113 C 
HETATM   22  C   UNL     1       4.417  34.321  63.861  1.00  0.00     0.231 C 
HETATM   23  O   UNL     1       4.265  33.175  64.263  1.00  0.00    -0.273 OA
ENDBRANCH  14  17
ENDBRANCH   8  11
ENDBRANCH   4   7
BRANCH   1  24
HETATM   24  C   UNL     1       7.880  25.168  56.039  1.00  0.00     0.139 A 
HETATM   25  N   UNL     1       8.074  24.036  56.802  1.00  0.00    -0.338 N 
HETATM   26  C   UNL     1       8.170  22.949  55.973  1.00  0.00     0.063 A 
HETATM   27  H   UNL     1       8.087  24.002  57.809  1.00  0.00     0.167 HD
HETATM   28  C   UNL     1       8.063  23.486  54.699  1.00  0.00     0.086 A 
HETATM   29  C   UNL     1       8.322  21.585  56.220  1.00  0.00     0.032 A 
HETATM   30  C   UNL     1       8.112  22.633  53.587  1.00  0.00     0.040 A 
HETATM   31  N   UNL     1       7.899  24.848  54.755  1.00  0.00    -0.228 NA
HETATM   32  C   UNL     1       8.264  21.250  53.794  1.00  0.00    -0.060 A 
HETATM   33  C   UNL     1       8.277  20.306  52.626  1.00  0.00     0.048 C 
HETATM   34  C   UNL     1       8.361  20.745  55.100  1.00  0.00     0.009 A 
ENDBRANCH   1  24
TORSDOF 4
ENDMDL
MODEL 4
REMARK VINA RESULT:      -9.4      2.798      3.629
REMARK  4 active torsions:
REMARK  status: ('A' for Active; 'I' for Inactive)
REMARK    1  A    between atoms: C_8  and  C_9 
REMARK    2  A    between atoms: C_12  and  N_13 
REMARK       I    between atoms: N_13  and  C_14 
REMARK    3  A    between atoms: C_14  and  C_15 
REMARK    4  A    between atoms: C_18  and  N_19 
ROOT
HETATM    1  C   UNL     1       6.821  26.916  55.621  1.00  0.00     0.010 A 
HETATM    2  C   UNL     1       7.615  28.018  55.283  1.00  0.00     0.017 A 
HETATM    3  C   UNL     1       7.250  29.316  55.673  1.00  0.00     0.030 A 
HETATM    4  C   UNL     1       6.088  29.537  56.413  1.00  0.00     0.035 A 
HETATM    5  C   UNL     1       5.265  28.448  56.707  1.00  0.00     0.030 A 
HETATM    6  C   UNL     1       5.626  27.153  56.314  1.00  0.00     0.017 A 
ENDROOT
BRANCH   4   7
HETATM    7  N   UNL     1       5.710  30.791  56.938  1.00  0.00    -0.323 N 
HETATM    8  C   UNL     1       6.084  31.335  58.155  1.00  0.00     0.256 C 
HETATM    9  O   UNL     1       6.907  30.878  58.939  1.00  0.00    -0.267 OA
HETATM   10  H   UNL     1       4.991  31.272  56.415  1.00  0.00     0.169 HD
BRANCH   8  11
HETATM   11  C   UNL     1       5.338  32.564  58.555  1.00  0.00     0.032 A 
HETATM   12  C   UNL     1       4.975  32.839  59.872  1.00  0.00     0.019 A 
HETATM   13  C   UNL     1       4.338  34.051  60.190  1.00  0.00     0.031 A 
HETATM   14  C   UNL     1       4.039  35.016  59.211  1.00  0.00     0.045 A 
HETATM   15  C   UNL     1       4.377  34.695  57.886  1.00  0.00     0.031 A 
HETATM   16  C   UNL     1       5.013  33.488  57.561  1.00  0.00     0.019 A 
BRANCH  14  17
HETATM   17  N   UNL     1       3.431  36.269  59.548  1.00  0.00    -0.252 N 
HETATM   18  C   UNL     1       2.202  36.693  59.086  1.00  0.00     0.231 C 
HETATM   19  O   UNL     1       1.384  36.104  58.394  1.00  0.00    -0.273 OA
HETATM   20  C   UNL     1       1.953  38.092  59.564  1.00  0.00     0.113 C 
HETATM   21  C   UNL     1       2.982  38.297  60.641  1.00  0.00     0.113 C 
HETATM   22  C   UNL     1       3.979  37.205  60.402  1.00  0.00     0.231 C 
HETATM   23  O   UNL     1       5.079  37.223  60.939  1.00  0.00    -0.273 OA
ENDBRANCH  14  17
ENDBRANCH   8  11
ENDBRANCH   4   7
BRANCH   1  24
HETATM   24  C   UNL     1       7.209  25.532  55.324  1.00  0.00     0.139 A 
HETATM   25  N   UNL     1       7.211  24.506  56.244  1.00  0.00    -0.338 N 
HETATM   26  C   UNL     1       7.507  23.332  55.603  1.00  0.00     0.063 A 
HETATM   27  H   UNL     1       6.976  24.592  57.221  1.00  0.00     0.167 HD
HETATM   28  C   UNL     1       7.715  23.709  54.285  1.00  0.00     0.086 A 
HETATM   29  C   UNL     1       7.594  22.012  56.046  1.00  0.00     0.032 A 
HETATM   30  C   UNL     1       8.035  22.732  53.332  1.00  0.00     0.040 A 
HETATM   31  N   UNL     1       7.541  25.062  54.132  1.00  0.00    -0.228 NA
HETATM   32  C   UNL     1       8.132  21.388  53.738  1.00  0.00    -0.060 A 
HETATM   33  C   UNL     1       8.431  20.314  52.733  1.00  0.00     0.048 C 
HETATM   34  C   UNL     1       7.906  21.046  55.080  1.00  0.00     0.009 A 
ENDBRANCH   1  24
TORSDOF 4
ENDMDL
MODEL 5
REMARK VINA RESULT:      -9.3      9.438     13.396
REMARK  4 active torsions:
REMARK  status: ('A' for Active; 'I' for Inactive)
REMARK    1  A    between atoms: C_8  and  C_9 
REMARK    2  A    between atoms: C_12  and  N_13 
REMARK       I    between atoms: N_13  and  C_14 
REMARK    3  A    between atoms: C_14  and  C_15 
REMARK    4  A    between atoms: C_18  and  N_19 
ROOT
HETATM    1  C   UNL     1       3.793  29.199  47.571  1.00  0.00     0.010 A 
HETATM    2  C   UNL     1       3.179  29.268  48.827  1.00  0.00     0.017 A 
HETATM    3  C   UNL     1       3.496  28.346  49.836  1.00  0.00     0.030 A 
HETATM    4  C   UNL     1       4.436  27.340  49.611  1.00  0.00     0.035 A 
HETATM    5  C   UNL     1       5.012  27.233  48.343  1.00  0.00     0.030 A 
HETATM    6  C   UNL     1       4.692  28.151  47.335  1.00  0.00     0.017 A 
ENDROOT
BRANCH   4   7
HETATM    7  N   UNL     1       4.892  26.446  50.603  1.00  0.00    -0.323 N 
HETATM    8  C   UNL     1       5.712  26.739  51.680  1.00  0.00     0.256 C 
HETATM    9  O   UNL     1       6.089  27.850  52.032  1.00  0.00    -0.267 OA
HETATM   10  H   UNL     1       4.694  25.472  50.422  1.00  0.00     0.169 HD
BRANCH   8  11
HETATM   11  C   UNL     1       6.229  25.552  52.423  1.00  0.00     0.032 A 
HETATM   12  C   UNL     1       7.374  24.855  52.040  1.00  0.00     0.019 A 
HETATM   13  C   UNL     1       7.848  23.791  52.827  1.00  0.00     0.031 A 
HETATM   14  C   UNL     1       7.196  23.388  54.006  1.00  0.00     0.045 A 
HETATM   15  C   UNL     1       6.021  24.079  54.345  1.00  0.00     0.031 A 
HETATM   16  C   UNL     1       5.542  25.142  53.566  1.00  0.00     0.019 A 
BRANCH  14  17
HETATM   17  N   UNL     1       7.710  22.333  54.829  1.00  0.00    -0.252 N 
HETATM   18  C   UNL     1       7.862  21.024  54.420  1.00  0.00     0.231 C 
HETATM   19  O   UNL     1       7.673  20.524  53.320  1.00  0.00    -0.273 OA
HETATM   20  C   UNL     1       8.321  20.195  55.581  1.00  0.00     0.113 C 
HETATM   21  C   UNL     1       8.771  21.210  56.596  1.00  0.00     0.113 C 
HETATM   22  C   UNL     1       8.149  22.490  56.128  1.00  0.00     0.231 C 
HETATM   23  O   UNL     1       8.100  23.473  56.855  1.00  0.00    -0.273 OA
ENDBRANCH  14  17
ENDBRANCH   8  11
ENDBRANCH   4   7
BRANCH   1  24
HETATM   24  C   UNL     1       3.570  30.196  46.518  1.00  0.00     0.139 A 
HETATM   25  N   UNL     1       2.343  30.482  45.959  1.00  0.00    -0.338 N 
HETATM   26  C   UNL     1       2.478  31.541  45.101  1.00  0.00     0.063 A 
HETATM   27  H   UNL     1       1.473  30.025  46.186  1.00  0.00     0.167 HD
HETATM   28  C   UNL     1       3.831  31.843  45.147  1.00  0.00     0.086 A 
HETATM   29  C   UNL     1       1.561  32.249  44.323  1.00  0.00     0.032 A 
HETATM   30  C   UNL     1       4.325  32.906  44.378  1.00  0.00     0.040 A 
HETATM   31  N   UNL     1       4.488  31.001  46.010  1.00  0.00    -0.228 NA
HETATM   32  C   UNL     1       3.433  33.645  43.580  1.00  0.00    -0.060 A 
HETATM   33  C   UNL     1       3.924  34.815  42.778  1.00  0.00     0.048 C 
HETATM   34  C   UNL     1       2.069  33.313  43.567  1.00  0.00     0.009 A 
ENDBRANCH   1  24
TORSDOF 4
ENDMDL
MODEL 6
REMARK VINA RESULT:      -9.2      3.823     12.615
REMARK  4 active torsions:
REMARK  status: ('A' for Active; 'I' for Inactive)
REMARK    1  A    between atoms: C_8  and  C_9 
REMARK    2  A    between atoms: C_12  and  N_13 
REMARK       I    between atoms: N_13  and  C_14 
REMARK    3  A    between atoms: C_14  and  C_15 
REMARK    4  A    between atoms: C_18  and  N_19 
ROOT
HETATM    1  C   UNL     1       5.115  31.945  58.748  1.00  0.00     0.010 A 
HETATM    2  C   UNL     1       4.168  31.095  58.165  1.00  0.00     0.017 A 
HETATM    3  C   UNL     1       4.559  29.901  57.541  1.00  0.00     0.030 A 
HETATM    4  C   UNL     1       5.903  29.530  57.491  1.00  0.00     0.035 A 
HETATM    5  C   UNL     1       6.857  30.400  58.024  1.00  0.00     0.030 A 
HETATM    6  C   UNL     1       6.467  31.595  58.643  1.00  0.00     0.017 A 
ENDROOT
BRANCH   4   7
HETATM    7  N   UNL     1       6.367  28.298  56.983  1.00  0.00    -0.323 N 
HETATM    8  C   UNL     1       6.124  27.767  55.727  1.00  0.00     0.256 C 
HETATM    9  O   UNL     1       5.565  28.327  54.792  1.00  0.00    -0.267 OA
HETATM   10  H   UNL     1       6.814  27.698  57.663  1.00  0.00     0.169 HD
BRANCH   8  11
HETATM   11  C   UNL     1       6.534  26.343  55.552  1.00  0.00     0.032 A 
HETATM   12  C   UNL     1       5.927  25.484  54.638  1.00  0.00     0.019 A 
HETATM   13  C   UNL     1       6.410  24.175  54.472  1.00  0.00     0.031 A 
HETATM   14  C   UNL     1       7.501  23.683  55.212  1.00  0.00     0.045 A 
HETATM   15  C   UNL     1       8.066  24.555  56.157  1.00  0.00     0.031 A 
HETATM   16  C   UNL     1       7.589  25.863  56.328  1.00  0.00     0.019 A 
BRANCH  14  17
HETATM   17  N   UNL     1       8.019  22.362  55.005  1.00  0.00    -0.252 N 
HETATM   18  C   UNL     1       8.385  21.497  56.016  1.00  0.00     0.231 C 
HETATM   19  O   UNL     1       8.287  21.629  57.228  1.00  0.00    -0.273 OA
HETATM   20  C   UNL     1       8.979  20.261  55.413  1.00  0.00     0.113 C 
HETATM   21  C   UNL     1       8.587  20.338  53.963  1.00  0.00     0.113 C 
HETATM   22  C   UNL     1       8.193  21.770  53.771  1.00  0.00     0.231 C 
HETATM   23  O   UNL     1       8.057  22.245  52.651  1.00  0.00    -0.273 OA
ENDBRANCH  14  17
ENDBRANCH   8  11
ENDBRANCH   4   7
BRANCH   1  24
HETATM   24  C   UNL     1       4.749  33.153  59.498  1.00  0.00     0.139 A 
HETATM   25  N   UNL     1       4.850  33.283  60.866  1.00  0.00    -0.338 N 
HETATM   26  C   UNL     1       4.542  34.571  61.216  1.00  0.00     0.063 A 
HETATM   27  H   UNL     1       5.156  32.565  61.504  1.00  0.00     0.167 HD
HETATM   28  C   UNL     1       4.222  35.181  60.013  1.00  0.00     0.086 A 
HETATM   29  C   UNL     1       4.531  35.239  62.441  1.00  0.00     0.032 A 
HETATM   30  C   UNL     1       3.861  36.536  60.003  1.00  0.00     0.040 A 
HETATM   31  N   UNL     1       4.341  34.295  58.971  1.00  0.00    -0.228 NA
HETATM   32  C   UNL     1       3.837  37.245  61.217  1.00  0.00    -0.060 A 
HETATM   33  C   UNL     1       3.496  38.707  61.234  1.00  0.00     0.048 C 
HETATM   34  C   UNL     1       4.176  36.594  62.414  1.00  0.00     0.009 A 
ENDBRANCH   1  24
TORSDOF 4
ENDMDL
MODEL 7
REMARK VINA RESULT:      -9.1      3.580      4.374
REMARK  4 active torsions:
REMARK  status: ('A' for Active; 'I' for Inactive)
REMARK    1  A    between atoms: C_8  and  C_9 
REMARK    2  A    between atoms: C_12  and  N_13 
REMARK       I    between atoms: N_13  and  C_14 
REMARK    3  A    between atoms: C_14  and  C_15 
REMARK    4  A    between atoms: C_18  and  N_19 
ROOT
HETATM    1  C   UNL     1       6.001  26.829  55.956  1.00  0.00     0.010 A 
HETATM    2  C   UNL     1       4.850  27.461  55.472  1.00  0.00     0.017 A 
HETATM    3  C   UNL     1       4.503  28.753  55.898  1.00  0.00     0.030 A 
HETATM    4  C   UNL     1       5.303  29.440  56.811  1.00  0.00     0.035 A 
HETATM    5  C   UNL     1       6.424  28.793  57.339  1.00  0.00     0.030 A 
HETATM    6  C   UNL     1       6.767  27.503  56.917  1.00  0.00     0.017 A 
ENDROOT
BRANCH   4   7
HETATM    7  N   UNL     1       5.087  30.778  57.205  1.00  0.00    -0.323 N 
HETATM    8  C   UNL     1       4.100  31.251  58.053  1.00  0.00     0.256 C 
HETATM    9  O   UNL     1       3.314  30.578  58.708  1.00  0.00    -0.267 OA
HETATM   10  H   UNL     1       5.640  31.462  56.707  1.00  0.00     0.169 HD
BRANCH   8  11
HETATM   11  C   UNL     1       3.960  32.736  58.094  1.00  0.00     0.032 A 
HETATM   12  C   UNL     1       3.463  33.483  57.028  1.00  0.00     0.019 A 
HETATM   13  C   UNL     1       3.288  34.871  57.160  1.00  0.00     0.031 A 
HETATM   14  C   UNL     1       3.607  35.554  58.348  1.00  0.00     0.045 A 
HETATM   15  C   UNL     1       4.146  34.783  59.392  1.00  0.00     0.031 A 
HETATM   16  C   UNL     1       4.323  33.397  59.268  1.00  0.00     0.019 A 
BRANCH  14  17
HETATM   17  N   UNL     1       3.383  36.962  58.493  1.00  0.00    -0.252 N 
HETATM   18  C   UNL     1       2.245  37.521  59.039  1.00  0.00     0.231 C 
HETATM   19  O   UNL     1       1.277  36.976  59.550  1.00  0.00    -0.273 OA
HETATM   20  C   UNL     1       2.326  39.013  58.921  1.00  0.00     0.113 C 
HETATM   21  C   UNL     1       3.770  39.274  58.593  1.00  0.00     0.113 C 
HETATM   22  C   UNL     1       4.284  37.943  58.135  1.00  0.00     0.231 C 
HETATM   23  O   UNL     1       5.356  37.845  57.553  1.00  0.00    -0.273 OA
ENDBRANCH  14  17
ENDBRANCH   8  11
ENDBRANCH   4   7
BRANCH   1  24
HETATM   24  C   UNL     1       6.459  25.523  55.468  1.00  0.00     0.139 A 
HETATM   25  N   UNL     1       6.790  25.251  54.158  1.00  0.00    -0.338 N 
HETATM   26  C   UNL     1       7.290  23.978  54.079  1.00  0.00     0.063 A 
HETATM   27  H   UNL     1       6.731  25.901  53.390  1.00  0.00     0.167 HD
HETATM   28  C   UNL     1       7.205  23.500  55.378  1.00  0.00     0.086 A 
HETATM   29  C   UNL     1       7.805  23.231  53.020  1.00  0.00     0.032 A 
HETATM   30  C   UNL     1       7.649  22.201  55.664  1.00  0.00     0.040 A 
HETATM   31  N   UNL     1       6.681  24.454  56.215  1.00  0.00    -0.228 NA
HETATM   32  C   UNL     1       8.176  21.415  54.624  1.00  0.00    -0.060 A 
HETATM   33  C   UNL     1       8.700  20.037  54.906  1.00  0.00     0.048 C 
HETATM   34  C   UNL     1       8.253  21.938  53.323  1.00  0.00     0.009 A 
ENDBRANCH   1  24
TORSDOF 4
ENDMDL
MODEL 8
REMARK VINA RESULT:      -9.0      2.971      3.722
REMARK  4 active torsions:
REMARK  status: ('A' for Active; 'I' for Inactive)
REMARK    1  A    between atoms: C_8  and  C_9 
REMARK    2  A    between atoms: C_12  and  N_13 
REMARK       I    between atoms: N_13  and  C_14 
REMARK    3  A    between atoms: C_14  and  C_15 
REMARK    4  A    between atoms: C_18  and  N_19 
ROOT
HETATM    1  C   UNL     1       5.895  28.188  55.884  1.00  0.00     0.010 A 
HETATM    2  C   UNL     1       4.776  28.961  55.553  1.00  0.00     0.017 A 
HETATM    3  C   UNL     1       4.484  30.143  56.252  1.00  0.00     0.030 A 
HETATM    4  C   UNL     1       5.307  30.577  57.291  1.00  0.00     0.035 A 
HETATM    5  C   UNL     1       6.394  29.781  57.661  1.00  0.00     0.030 A 
HETATM    6  C   UNL     1       6.683  28.600  56.966  1.00  0.00     0.017 A 
ENDROOT
BRANCH   4   7
HETATM    7  N   UNL     1       5.147  31.805  57.969  1.00  0.00    -0.323 N 
HETATM    8  C   UNL     1       4.131  32.151  58.842  1.00  0.00     0.256 C 
HETATM    9  O   UNL     1       3.255  31.412  59.277  1.00  0.00    -0.267 OA
HETATM   10  H   UNL     1       5.779  32.537  57.676  1.00  0.00     0.169 HD
BRANCH   8  11
HETATM   11  C   UNL     1       4.082  33.595  59.216  1.00  0.00     0.032 A 
HETATM   12  C   UNL     1       4.266  34.626  58.296  1.00  0.00     0.019 A 
HETATM   13  C   UNL     1       4.134  35.965  58.701  1.00  0.00     0.031 A 
HETATM   14  C   UNL     1       3.826  36.316  60.029  1.00  0.00     0.045 A 
HETATM   15  C   UNL     1       3.689  35.259  60.944  1.00  0.00     0.031 A 
HETATM   16  C   UNL     1       3.818  33.920  60.547  1.00  0.00     0.019 A 
BRANCH  14  17
HETATM   17  N   UNL     1       3.647  37.682  60.425  1.00  0.00    -0.252 N 
HETATM   18  C   UNL     1       4.530  38.390  61.215  1.00  0.00     0.231 C 
HETATM   19  O   UNL     1       5.620  38.055  61.658  1.00  0.00    -0.273 OA
HETATM   20  C   UNL     1       3.954  39.743  61.505  1.00  0.00     0.113 C 
HETATM   21  C   UNL     1       2.833  39.881  60.512  1.00  0.00     0.113 C 
HETATM   22  C   UNL     1       2.586  38.478  60.048  1.00  0.00     0.231 C 
HETATM   23  O   UNL     1       1.573  38.187  59.424  1.00  0.00    -0.273 OA
ENDBRANCH  14  17
ENDBRANCH   8  11
ENDBRANCH   4   7
BRANCH   1  24
HETATM   24  C   UNL     1       6.298  27.001  55.120  1.00  0.00     0.139 A 
HETATM   25  N   UNL     1       6.884  27.036  53.873  1.00  0.00    -0.338 N 
HETATM   26  C   UNL     1       7.239  25.764  53.510  1.00  0.00     0.063 A 
HETATM   27  H   UNL     1       7.075  27.868  53.337  1.00  0.00     0.167 HD
HETATM   28  C   UNL     1       6.808  24.978  54.569  1.00  0.00     0.086 A 
HETATM   29  C   UNL     1       7.891  25.250  52.390  1.00  0.00     0.032 A 
HETATM   30  C   UNL     1       7.024  23.593  54.530  1.00  0.00     0.040 A 
HETATM   31  N   UNL     1       6.222  25.749  55.541  1.00  0.00    -0.228 NA
HETATM   32  C   UNL     1       7.679  23.035  53.417  1.00  0.00    -0.060 A 
HETATM   33  C   UNL     1       7.963  21.562  53.366  1.00  0.00     0.048 C 
HETATM   34  C   UNL     1       8.108  23.866  52.370  1.00  0.00     0.009 A 
ENDBRANCH   1  24
TORSDOF 4
ENDMDL
MODEL 9
REMARK VINA RESULT:      -9.0      9.417     13.533
REMARK  4 active torsions:
REMARK  status: ('A' for Active; 'I' for Inactive)
REMARK    1  A    between atoms: C_8  and  C_9 
REMARK    2  A    between atoms: C_12  and  N_13 
REMARK       I    between atoms: N_13  and  C_14 
REMARK    3  A    between atoms: C_14  and  C_15 
REMARK    4  A    between atoms: C_18  and  N_19 
ROOT
HETATM    1  C   UNL     1       3.436  29.321  47.525  1.00  0.00     0.010 A 
HETATM    2  C   UNL     1       2.501  28.714  48.370  1.00  0.00     0.017 A 
HETATM    3  C   UNL     1       2.907  27.800  49.356  1.00  0.00     0.030 A 
HETATM    4  C   UNL     1       4.255  27.481  49.518  1.00  0.00     0.035 A 
HETATM    5  C   UNL     1       5.187  28.043  48.643  1.00  0.00     0.030 A 
HETATM    6  C   UNL     1       4.781  28.951  47.657  1.00  0.00     0.017 A 
ENDROOT
BRANCH   4   7
HETATM    7  N   UNL     1       4.756  26.661  50.552  1.00  0.00    -0.323 N 
HETATM    8  C   UNL     1       5.570  27.046  51.604  1.00  0.00     0.256 C 
HETATM    9  O   UNL     1       5.901  28.189  51.892  1.00  0.00    -0.267 OA
HETATM   10  H   UNL     1       4.598  25.671  50.425  1.00  0.00     0.169 HD
BRANCH   8  11
HETATM   11  C   UNL     1       6.143  25.924  52.404  1.00  0.00     0.032 A 
HETATM   12  C   UNL     1       5.477  25.339  53.480  1.00  0.00     0.019 A 
HETATM   13  C   UNL     1       6.043  24.238  54.145  1.00  0.00     0.031 A 
HETATM   14  C   UNL     1       7.283  23.693  53.765  1.00  0.00     0.045 A 
HETATM   15  C   UNL     1       7.952  24.329  52.706  1.00  0.00     0.031 A 
HETATM   16  C   UNL     1       7.394  25.428  52.037  1.00  0.00     0.019 A 
BRANCH  14  17
HETATM   17  N   UNL     1       7.833  22.541  54.416  1.00  0.00    -0.252 N 
HETATM   18  C   UNL     1       8.375  22.542  55.685  1.00  0.00     0.231 C 
HETATM   19  O   UNL     1       8.436  23.448  56.505  1.00  0.00    -0.273 OA
HETATM   20  C   UNL     1       8.942  21.187  55.979  1.00  0.00     0.113 C 
HETATM   21  C   UNL     1       8.353  20.307  54.912  1.00  0.00     0.113 C 
HETATM   22  C   UNL     1       7.866  21.272  53.875  1.00  0.00     0.231 C 
HETATM   23  O   UNL     1       7.556  20.893  52.753  1.00  0.00    -0.273 OA
ENDBRANCH  14  17
ENDBRANCH   8  11
ENDBRANCH   4   7
BRANCH   1  24
HETATM   24  C   UNL     1       3.075  30.355  46.548  1.00  0.00     0.139 A 
HETATM   25  N   UNL     1       3.983  31.091  45.817  1.00  0.00    -0.338 N 
HETATM   26  C   UNL     1       3.305  31.873  44.920  1.00  0.00     0.063 A 
HETATM   27  H   UNL     1       4.986  31.024  45.888  1.00  0.00     0.167 HD
HETATM   28  C   UNL     1       1.969  31.600  45.175  1.00  0.00     0.086 A 
HETATM   29  C   UNL     1       3.731  32.758  43.929  1.00  0.00     0.032 A 
HETATM   30  C   UNL     1       0.979  32.237  44.413  1.00  0.00     0.040 A 
HETATM   31  N   UNL     1       1.845  30.678  46.184  1.00  0.00    -0.228 NA
HETATM   32  C   UNL     1       1.367  33.136  43.403  1.00  0.00    -0.060 A 
HETATM   33  C   UNL     1       0.332  33.801  42.543  1.00  0.00     0.048 C 
HETATM   34  C   UNL     1       2.730  33.380  43.171  1.00  0.00     0.009 A 
ENDBRANCH   1  24
TORSDOF 4
ENDMDL
