MODEL 1
REMARK VINA RESULT:      -9.6      0.000      0.000
REMARK  11 active torsions:
REMARK  status: ('A' for Active; 'I' for Inactive)
REMARK    1  A    between atoms: C_2  and  N_3 
REMARK    2  A    between atoms: N_3  and  C_4 
REMARK    3  A    between atoms: C_6  and  N_7 
REMARK    4  A    between atoms: N_10  and  C_12 
REMARK    5  A    between atoms: C_25  and  N_26 
REMARK    6  A    between atoms: N_26  and  C_27 
REMARK    7  A    between atoms: C_27  and  C_28 
REMARK    8  A    between atoms: C_28  and  C_29 
REMARK    9  A    between atoms: C_29  and  O_30 
REMARK   10  A    between atoms: C_34  and  O_35 
REMARK   11  A    between atoms: O_35  and  C_36 
ROOT
HETATM    1  C   UNL     1       5.887  27.474  55.245  1.00  0.00     0.758 C 
HETATM    2  N   UNL     1       5.034  28.490  55.151  1.00  0.00     0.131 NA
HETATM    3  C   UNL     1       5.367  29.600  55.789  1.00  0.00     0.756 C 
HETATM    4  N   UNL     1       6.531  29.770  56.394  1.00  0.00     0.131 NA
HETATM    5  C   UNL     1       7.312  28.702  56.473  1.00  0.00     0.754 C 
HETATM    6  N   UNL     1       7.020  27.526  55.931  1.00  0.00     0.131 NA
ENDROOT
BRANCH   3   7
HETATM    7  N   UNL     1       4.452  30.654  55.826  1.00  0.00    -0.210 N 
HETATM    8  C   UNL     1       5.028  31.999  55.912  1.00  0.00     0.169 C 
HETATM    9  C   UNL     1       5.365  32.397  57.363  1.00  0.00     0.256 C 
HETATM   10  N   UNL     1       4.128  32.222  58.279  1.00  0.00    -0.059 N 
HETATM   11  H   UNL     1       3.391  32.797  57.852  1.00  0.00     0.281 HD
HETATM   12  C   UNL     1       3.628  30.761  58.167  1.00  0.00     0.256 C 
HETATM   13  C   UNL     1       3.304  30.401  56.696  1.00  0.00     0.169 C 
BRANCH  10  14
HETATM   14  C   UNL     1       4.299  32.763  59.715  1.00  0.00     0.129 C 
HETATM   15  C   UNL     1       3.438  31.916  60.691  1.00  0.00     0.043 C 
HETATM   16  C   UNL     1       3.619  32.406  62.139  1.00  0.00    -0.012 C 
HETATM   17  C   UNL     1       3.198  33.883  62.222  1.00  0.00     0.009 C 
HETATM   18  C   UNL     1       5.093  32.268  62.541  1.00  0.00     0.009 C 
HETATM   19  C   UNL     1       4.067  34.734  61.279  1.00  0.00    -0.012 C 
HETATM   20  C   UNL     1       3.880  34.244  59.828  1.00  0.00     0.043 C 
HETATM   21  C   UNL     1       5.541  34.585  61.688  1.00  0.00     0.009 C 
HETATM   22  C   UNL     1       5.967  33.109  61.601  1.00  0.00    -0.012 C 
HETATM   23  C   UNL     1       5.781  32.619  60.154  1.00  0.00     0.043 C 
ENDBRANCH  10  14
ENDBRANCH   3   7
BRANCH   1  24
HETATM   24  N   UNL     1       5.579  26.259  54.634  1.00  0.00    -0.187 N 
HETATM   25  H   UNL     1       4.589  26.052  54.696  1.00  0.00     0.184 HD
BRANCH  24  26
HETATM   26  C   UNL     1       6.398  25.142  54.411  1.00  0.00     0.049 A 
HETATM   27  C   UNL     1       6.700  24.214  55.412  1.00  0.00     0.033 A 
HETATM   28  C   UNL     1       7.551  23.129  55.167  1.00  0.00     0.039 A 
HETATM   29  C   UNL     1       8.139  22.966  53.916  1.00  0.00     0.076 A 
HETATM   30  C   UNL     1       7.837  23.883  52.908  1.00  0.00     0.039 A 
HETATM   31  C   UNL     1       6.973  24.957  53.151  1.00  0.00     0.033 A 
BRANCH  29  32
HETATM   32  O   UNL     1       9.004  21.977  53.550  1.00  0.00    -0.270 OA
BRANCH  32  33
HETATM   33  C   UNL     1       8.516  20.641  53.490  1.00  0.00     0.447 C 
HETATM   34 CL   UNL     1       8.606  19.895  55.082  1.00  0.00    -0.014 Cl
HETATM   35  F   UNL     1       7.227  20.644  53.053  1.00  0.00    -0.159 F 
HETATM   36  F   UNL     1       9.246  19.927  52.597  1.00  0.00    -0.159 F 
ENDBRANCH  32  33
ENDBRANCH  29  32
ENDBRANCH  24  26
ENDBRANCH   1  24
BRANCH   5  37
HETATM   37  N   UNL     1       8.469  28.856  57.211  1.00  0.00    -0.221 N 
HETATM   38  H   UNL     1       8.769  27.955  57.565  1.00  0.00     0.177 HD
BRANCH  37  39
HETATM   39  C   UNL     1       8.573  29.973  58.133  1.00  0.00     0.140 C 
BRANCH  39  40
HETATM   40  C   UNL     1       9.988  30.553  58.138  1.00  0.00     0.046 C 
BRANCH  40  41
HETATM   41  C   UNL     1      10.925  29.954  57.096  1.00  0.00     0.165 C 
BRANCH  41  42
HETATM   42  O   UNL     1      10.499  30.269  55.777  1.00  0.00    -0.401 OA
HETATM   43  H   UNL     1      11.307  30.232  55.229  1.00  0.00     0.209 HD
ENDBRANCH  41  42
ENDBRANCH  40  41
ENDBRANCH  39  40
ENDBRANCH  37  39
ENDBRANCH   5  37
TORSDOF 11
ENDMDL
MODEL 2
REMARK VINA RESULT:      -9.6      2.506      3.650
REMARK  11 active torsions:
REMARK  status: ('A' for Active; 'I' for Inactive)
REMARK    1  A    between atoms: C_2  and  N_3 
REMARK    2  A    between atoms: N_3  and  C_4 
REMARK    3  A    between atoms: C_6  and  N_7 
REMARK    4  A    between atoms: N_10  and  C_12 
REMARK    5  A    between atoms: C_25  and  N_26 
REMARK    6  A    between atoms: N_26  and  C_27 
REMARK    7  A    between atoms: C_27  and  C_28 
REMARK    8  A    between atoms: C_28  and  C_29 
REMARK    9  A    between atoms: C_29  and  O_30 
REMARK   10  A    between atoms: C_34  and  O_35 
REMARK   11  A    between atoms: O_35  and  C_36 
ROOT
HETATM    1  C   UNL     1       6.375  30.350  56.675  1.00  0.00     0.758 C 
HETATM    2  N   UNL     1       5.291  31.050  56.998  1.00  0.00     0.131 NA
HETATM    3  C   UNL     1       5.273  31.586  58.207  1.00  0.00     0.756 C 
HETATM    4  N   UNL     1       6.308  31.553  59.032  1.00  0.00     0.131 NA
HETATM    5  C   UNL     1       7.336  30.810  58.652  1.00  0.00     0.754 C 
HETATM    6  N   UNL     1       7.404  30.173  57.490  1.00  0.00     0.131 NA
ENDROOT
BRANCH   3   7
HETATM    7  N   UNL     1       4.112  32.225  58.643  1.00  0.00    -0.210 N 
HETATM    8  C   UNL     1       4.178  33.686  58.730  1.00  0.00     0.169 C 
HETATM    9  C   UNL     1       4.797  34.163  60.059  1.00  0.00     0.256 C 
HETATM   10  N   UNL     1       4.056  33.530  61.264  1.00  0.00    -0.059 N 
HETATM   11  H   UNL     1       3.070  33.797  61.146  1.00  0.00     0.281 HD
HETATM   12  C   UNL     1       4.088  31.989  61.115  1.00  0.00     0.256 C 
HETATM   13  C   UNL     1       3.461  31.554  59.768  1.00  0.00     0.169 C 
BRANCH  10  14
HETATM   14  C   UNL     1       4.473  34.078  62.646  1.00  0.00     0.129 C 
HETATM   15  C   UNL     1       3.210  34.556  63.414  1.00  0.00     0.043 C 
HETATM   16  C   UNL     1       3.589  35.072  64.814  1.00  0.00    -0.012 C 
HETATM   17  C   UNL     1       4.580  36.239  64.665  1.00  0.00     0.009 C 
HETATM   18  C   UNL     1       4.247  33.938  65.611  1.00  0.00     0.009 C 
HETATM   19  C   UNL     1       5.847  35.766  63.930  1.00  0.00    -0.012 C 
HETATM   20  C   UNL     1       5.465  35.254  62.526  1.00  0.00     0.043 C 
HETATM   21  C   UNL     1       6.495  34.628  64.735  1.00  0.00     0.009 C 
HETATM   22  C   UNL     1       5.508  33.456  64.883  1.00  0.00    -0.012 C 
HETATM   23  C   UNL     1       5.126  32.945  63.482  1.00  0.00     0.043 C 
ENDBRANCH  10  14
ENDBRANCH   3   7
BRANCH   1  24
HETATM   24  N   UNL     1       6.443  29.722  55.432  1.00  0.00    -0.187 N 
HETATM   25  H   UNL     1       6.059  30.307  54.699  1.00  0.00     0.184 HD
BRANCH  24  26
HETATM   26  C   UNL     1       6.485  28.354  55.127  1.00  0.00     0.049 A 
HETATM   27  C   UNL     1       7.231  27.838  54.063  1.00  0.00     0.033 A 
HETATM   28  C   UNL     1       7.222  26.471  53.762  1.00  0.00     0.039 A 
HETATM   29  C   UNL     1       6.441  25.592  54.509  1.00  0.00     0.076 A 
HETATM   30  C   UNL     1       5.700  26.096  55.579  1.00  0.00     0.039 A 
HETATM   31  C   UNL     1       5.723  27.461  55.887  1.00  0.00     0.033 A 
BRANCH  29  32
HETATM   32  O   UNL     1       6.318  24.248  54.309  1.00  0.00    -0.270 OA
BRANCH  32  33
HETATM   33  C   UNL     1       7.481  23.438  54.432  1.00  0.00     0.447 C 
HETATM   34 CL   UNL     1       8.159  23.110  52.841  1.00  0.00    -0.014 Cl
HETATM   35  F   UNL     1       8.403  24.074  55.205  1.00  0.00    -0.159 F 
HETATM   36  F   UNL     1       7.163  22.274  55.054  1.00  0.00    -0.159 F 
ENDBRANCH  32  33
ENDBRANCH  29  32
ENDBRANCH  24  26
ENDBRANCH   1  24
BRANCH   5  37
HETATM   37  N   UNL     1       8.359  30.683  59.572  1.00  0.00    -0.221 N 
HETATM   38  H   UNL     1       8.078  30.045  60.308  1.00  0.00     0.177 HD
BRANCH  37  39
HETATM   39  C   UNL     1       9.077  31.873  59.995  1.00  0.00     0.140 C 
BRANCH  39  40
HETATM   40  C   UNL     1       9.386  31.827  61.492  1.00  0.00     0.046 C 
BRANCH  40  41
HETATM   41  C   UNL     1       8.527  30.851  62.289  1.00  0.00     0.165 C 
BRANCH  41  42
HETATM   42  O   UNL     1       9.127  29.563  62.345  1.00  0.00    -0.401 OA
HETATM   43  H   UNL     1      10.046  29.720  62.639  1.00  0.00     0.209 HD
ENDBRANCH  41  42
ENDBRANCH  40  41
ENDBRANCH  39  40
ENDBRANCH  37  39
ENDBRANCH   5  37
TORSDOF 11
ENDMDL
MODEL 3
REMARK VINA RESULT:      -9.5      1.484      2.255
REMARK  11 active torsions:
REMARK  status: ('A' for Active; 'I' for Inactive)
REMARK    1  A    between atoms: C_2  and  N_3 
REMARK    2  A    between atoms: N_3  and  C_4 
REMARK    3  A    between atoms: C_6  and  N_7 
REMARK    4  A    between atoms: N_10  and  C_12 
REMARK    5  A    between atoms: C_25  and  N_26 
REMARK    6  A    between atoms: N_26  and  C_27 
REMARK    7  A    between atoms: C_27  and  C_28 
REMARK    8  A    between atoms: C_28  and  C_29 
REMARK    9  A    between atoms: C_29  and  O_30 
REMARK   10  A    between atoms: C_34  and  O_35 
REMARK   11  A    between atoms: O_35  and  C_36 
ROOT
HETATM    1  C   UNL     1       6.028  27.795  57.203  1.00  0.00     0.758 C 
HETATM    2  N   UNL     1       5.145  28.749  56.918  1.00  0.00     0.131 NA
HETATM    3  C   UNL     1       5.486  29.985  57.245  1.00  0.00     0.756 C 
HETATM    4  N   UNL     1       6.679  30.309  57.717  1.00  0.00     0.131 NA
HETATM    5  C   UNL     1       7.489  29.302  58.005  1.00  0.00     0.754 C 
HETATM    6  N   UNL     1       7.197  28.026  57.784  1.00  0.00     0.131 NA
ENDROOT
BRANCH   3   7
HETATM    7  N   UNL     1       4.549  31.005  57.081  1.00  0.00    -0.210 N 
HETATM    8  C   UNL     1       5.092  32.360  56.952  1.00  0.00     0.169 C 
HETATM    9  C   UNL     1       5.380  33.005  58.323  1.00  0.00     0.256 C 
HETATM   10  N   UNL     1       4.121  32.955  59.225  1.00  0.00    -0.059 N 
HETATM   11  H   UNL     1       3.385  33.431  58.690  1.00  0.00     0.281 HD
HETATM   12  C   UNL     1       3.657  31.483  59.349  1.00  0.00     0.256 C 
HETATM   13  C   UNL     1       3.381  30.873  57.953  1.00  0.00     0.169 C 
BRANCH  10  14
HETATM   14  C   UNL     1       4.240  33.734  60.552  1.00  0.00     0.129 C 
HETATM   15  C   UNL     1       4.088  35.255  60.274  1.00  0.00     0.043 C 
HETATM   16  C   UNL     1       4.161  36.057  61.585  1.00  0.00    -0.012 C 
HETATM   17  C   UNL     1       5.516  35.785  62.261  1.00  0.00     0.009 C 
HETATM   18  C   UNL     1       3.025  35.614  62.516  1.00  0.00     0.009 C 
HETATM   19  C   UNL     1       5.663  34.284  62.568  1.00  0.00    -0.012 C 
HETATM   20  C   UNL     1       5.593  33.483  61.251  1.00  0.00     0.043 C 
HETATM   21  C   UNL     1       4.517  33.851  63.497  1.00  0.00     0.009 C 
HETATM   22  C   UNL     1       3.160  34.117  62.822  1.00  0.00    -0.012 C 
HETATM   23  C   UNL     1       3.090  33.317  61.508  1.00  0.00     0.043 C 
ENDBRANCH  10  14
ENDBRANCH   3   7
BRANCH   1  24
HETATM   24  N   UNL     1       5.718  26.465  56.925  1.00  0.00    -0.187 N 
HETATM   25  H   UNL     1       4.996  26.116  57.545  1.00  0.00     0.184 HD
BRANCH  24  26
HETATM   26  C   UNL     1       6.508  25.472  56.328  1.00  0.00     0.049 A 
HETATM   27  C   UNL     1       6.304  25.030  55.017  1.00  0.00     0.033 A 
HETATM   28  C   UNL     1       7.088  24.011  54.462  1.00  0.00     0.039 A 
HETATM   29  C   UNL     1       8.078  23.393  55.222  1.00  0.00     0.076 A 
HETATM   30  C   UNL     1       8.294  23.833  56.529  1.00  0.00     0.039 A 
HETATM   31  C   UNL     1       7.520  24.864  57.075  1.00  0.00     0.033 A 
BRANCH  29  32
HETATM   32  O   UNL     1       8.890  22.374  54.819  1.00  0.00    -0.270 OA
BRANCH  32  33
HETATM   33  C   UNL     1       8.345  21.060  54.757  1.00  0.00     0.447 C 
HETATM   34 CL   UNL     1       7.844  20.693  53.110  1.00  0.00    -0.014 Cl
HETATM   35  F   UNL     1       9.277  20.158  55.169  1.00  0.00    -0.159 F 
HETATM   36  F   UNL     1       7.286  20.964  55.601  1.00  0.00    -0.159 F 
ENDBRANCH  32  33
ENDBRANCH  29  32
ENDBRANCH  24  26
ENDBRANCH   1  24
BRANCH   5  37
HETATM   37  N   UNL     1       8.683  29.644  58.610  1.00  0.00    -0.221 N 
HETATM   38  H   UNL     1       8.746  29.194  59.516  1.00  0.00     0.177 HD
BRANCH  37  39
HETATM   39  C   UNL     1       9.135  31.022  58.547  1.00  0.00     0.140 C 
BRANCH  39  40
HETATM   40  C   UNL     1      10.491  31.126  57.847  1.00  0.00     0.046 C 
BRANCH  40  41
HETATM   41  C   UNL     1      10.915  29.871  57.093  1.00  0.00     0.165 C 
BRANCH  41  42
HETATM   42  O   UNL     1      12.325  29.694  57.140  1.00  0.00    -0.401 OA
HETATM   43  H   UNL     1      12.459  28.752  57.365  1.00  0.00     0.209 HD
ENDBRANCH  41  42
ENDBRANCH  40  41
ENDBRANCH  39  40
ENDBRANCH  37  39
ENDBRANCH   5  37
TORSDOF 11
ENDMDL
MODEL 4
REMARK VINA RESULT:      -9.5      3.948      7.518
REMARK  11 active torsions:
REMARK  status: ('A' for Active; 'I' for Inactive)
REMARK    1  A    between atoms: C_2  and  N_3 
REMARK    2  A    between atoms: N_3  and  C_4 
REMARK    3  A    between atoms: C_6  and  N_7 
REMARK    4  A    between atoms: N_10  and  C_12 
REMARK    5  A    between atoms: C_25  and  N_26 
REMARK    6  A    between atoms: N_26  and  C_27 
REMARK    7  A    between atoms: C_27  and  C_28 
REMARK    8  A    between atoms: C_28  and  C_29 
REMARK    9  A    between atoms: C_29  and  O_30 
REMARK   10  A    between atoms: C_34  and  O_35 
REMARK   11  A    between atoms: O_35  and  C_36 
ROOT
HETATM    1  C   UNL     1       7.167  28.183  54.478  1.00  0.00     0.758 C 
HETATM    2  N   UNL     1       6.028  28.556  53.900  1.00  0.00     0.131 NA
HETATM    3  C   UNL     1       5.294  29.438  54.559  1.00  0.00     0.756 C 
HETATM    4  N   UNL     1       5.694  30.031  55.672  1.00  0.00     0.131 NA
HETATM    5  C   UNL     1       6.822  29.582  56.202  1.00  0.00     0.754 C 
HETATM    6  N   UNL     1       7.581  28.643  55.649  1.00  0.00     0.131 NA
ENDROOT
BRANCH   3   7
HETATM    7  N   UNL     1       4.034  29.771  54.059  1.00  0.00    -0.210 N 
HETATM    8  C   UNL     1       3.187  28.644  53.657  1.00  0.00     0.169 C 
HETATM    9  C   UNL     1       3.497  28.163  52.226  1.00  0.00     0.256 C 
HETATM   10  N   UNL     1       3.427  29.344  51.225  1.00  0.00    -0.059 N 
HETATM   11  H   UNL     1       2.484  29.737  51.334  1.00  0.00     0.281 HD
HETATM   12  C   UNL     1       4.395  30.456  51.699  1.00  0.00     0.256 C 
HETATM   13  C   UNL     1       4.051  30.908  53.139  1.00  0.00     0.169 C 
BRANCH  10  14
HETATM   14  C   UNL     1       3.542  28.946  49.738  1.00  0.00     0.129 C 
HETATM   15  C   UNL     1       4.424  29.984  48.992  1.00  0.00     0.043 C 
HETATM   16  C   UNL     1       4.591  29.591  47.513  1.00  0.00    -0.012 C 
HETATM   17  C   UNL     1       3.202  29.521  46.855  1.00  0.00     0.009 C 
HETATM   18  C   UNL     1       5.271  28.219  47.426  1.00  0.00     0.009 C 
HETATM   19  C   UNL     1       2.331  28.473  47.570  1.00  0.00    -0.012 C 
HETATM   20  C   UNL     1       2.162  28.871  49.051  1.00  0.00     0.043 C 
HETATM   21  C   UNL     1       3.024  27.103  47.481  1.00  0.00     0.009 C 
HETATM   22  C   UNL     1       4.412  27.168  48.142  1.00  0.00    -0.012 C 
HETATM   23  C   UNL     1       4.243  27.566  49.619  1.00  0.00     0.043 C 
ENDBRANCH  10  14
ENDBRANCH   3   7
BRANCH   1  24
HETATM   24  N   UNL     1       7.969  27.226  53.860  1.00  0.00    -0.187 N 
HETATM   25  H   UNL     1       8.542  27.635  53.131  1.00  0.00     0.184 HD
BRANCH  24  26
HETATM   26  C   UNL     1       7.774  25.842  53.743  1.00  0.00     0.049 A 
HETATM   27  C   UNL     1       7.489  25.022  54.839  1.00  0.00     0.033 A 
HETATM   28  C   UNL     1       7.336  23.638  54.694  1.00  0.00     0.039 A 
HETATM   29  C   UNL     1       7.493  23.041  53.445  1.00  0.00     0.076 A 
HETATM   30  C   UNL     1       7.770  23.852  52.344  1.00  0.00     0.039 A 
HETATM   31  C   UNL     1       7.906  25.238  52.489  1.00  0.00     0.033 A 
BRANCH  29  32
HETATM   32  O   UNL     1       7.401  21.709  53.167  1.00  0.00    -0.270 OA
BRANCH  32  33
HETATM   33  C   UNL     1       8.526  20.882  53.442  1.00  0.00     0.447 C 
HETATM   34 CL   UNL     1       8.307  20.059  54.983  1.00  0.00    -0.014 Cl
HETATM   35  F   UNL     1       8.676  19.966  52.448  1.00  0.00    -0.159 F 
HETATM   36  F   UNL     1       9.652  21.638  53.472  1.00  0.00    -0.159 F 
ENDBRANCH  32  33
ENDBRANCH  29  32
ENDBRANCH  24  26
ENDBRANCH   1  24
BRANCH   5  37
HETATM   37  N   UNL     1       7.168  30.121  57.426  1.00  0.00    -0.221 N 
HETATM   38  H   UNL     1       7.131  31.132  57.375  1.00  0.00     0.177 HD
BRANCH  37  39
HETATM   39  C   UNL     1       8.293  29.557  58.151  1.00  0.00     0.140 C 
BRANCH  39  40
HETATM   40  C   UNL     1       9.526  30.454  58.039  1.00  0.00     0.046 C 
BRANCH  40  41
HETATM   41  C   UNL     1      10.627  29.913  57.134  1.00  0.00     0.165 C 
BRANCH  41  42
HETATM   42  O   UNL     1      10.270  30.029  55.762  1.00  0.00    -0.401 OA
HETATM   43  H   UNL     1      10.173  30.988  55.602  1.00  0.00     0.209 HD
ENDBRANCH  41  42
ENDBRANCH  40  41
ENDBRANCH  39  40
ENDBRANCH  37  39
ENDBRANCH   5  37
TORSDOF 11
ENDMDL
MODEL 5
REMARK VINA RESULT:      -9.4      1.703      2.361
REMARK  11 active torsions:
REMARK  status: ('A' for Active; 'I' for Inactive)
REMARK    1  A    between atoms: C_2  and  N_3 
REMARK    2  A    between atoms: N_3  and  C_4 
REMARK    3  A    between atoms: C_6  and  N_7 
REMARK    4  A    between atoms: N_10  and  C_12 
REMARK    5  A    between atoms: C_25  and  N_26 
REMARK    6  A    between atoms: N_26  and  C_27 
REMARK    7  A    between atoms: C_27  and  C_28 
REMARK    8  A    between atoms: C_28  and  C_29 
REMARK    9  A    between atoms: C_29  and  O_30 
REMARK   10  A    between atoms: C_34  and  O_35 
REMARK   11  A    between atoms: O_35  and  C_36 
ROOT
HETATM    1  C   UNL     1       6.198  27.850  57.258  1.00  0.00     0.758 C 
HETATM    2  N   UNL     1       5.279  28.769  56.973  1.00  0.00     0.131 NA
HETATM    3  C   UNL     1       5.574  30.018  57.296  1.00  0.00     0.756 C 
HETATM    4  N   UNL     1       6.755  30.388  57.765  1.00  0.00     0.131 NA
HETATM    5  C   UNL     1       7.604  29.413  58.053  1.00  0.00     0.754 C 
HETATM    6  N   UNL     1       7.359  28.126  57.835  1.00  0.00     0.131 NA
ENDROOT
BRANCH   3   7
HETATM    7  N   UNL     1       4.599  31.002  57.133  1.00  0.00    -0.210 N 
HETATM    8  C   UNL     1       5.090  32.377  57.008  1.00  0.00     0.169 C 
HETATM    9  C   UNL     1       5.351  33.030  58.380  1.00  0.00     0.256 C 
HETATM   10  N   UNL     1       4.093  32.930  59.280  1.00  0.00    -0.059 N 
HETATM   11  H   UNL     1       3.340  33.378  58.744  1.00  0.00     0.281 HD
HETATM   12  C   UNL     1       3.685  31.441  59.400  1.00  0.00     0.256 C 
HETATM   13  C   UNL     1       3.436  30.824  58.002  1.00  0.00     0.169 C 
BRANCH  10  14
HETATM   14  C   UNL     1       4.180  33.710  60.609  1.00  0.00     0.129 C 
HETATM   15  C   UNL     1       5.559  33.448  61.273  1.00  0.00     0.043 C 
HETATM   16  C   UNL     1       5.692  34.246  62.582  1.00  0.00    -0.012 C 
HETATM   17  C   UNL     1       4.565  33.824  63.541  1.00  0.00     0.009 C 
HETATM   18  C   UNL     1       5.573  35.745  62.278  1.00  0.00     0.009 C 
HETATM   19  C   UNL     1       3.194  34.108  62.902  1.00  0.00    -0.012 C 
HETATM   20  C   UNL     1       3.062  33.304  61.592  1.00  0.00     0.043 C 
HETATM   21  C   UNL     1       3.088  35.611  62.597  1.00  0.00     0.009 C 
HETATM   22  C   UNL     1       4.210  36.036  61.635  1.00  0.00    -0.012 C 
HETATM   23  C   UNL     1       4.079  35.234  60.328  1.00  0.00     0.043 C 
ENDBRANCH  10  14
ENDBRANCH   3   7
BRANCH   1  24
HETATM   24  N   UNL     1       5.937  26.509  56.985  1.00  0.00    -0.187 N 
HETATM   25  H   UNL     1       5.367  26.086  57.708  1.00  0.00     0.184 HD
BRANCH  24  26
HETATM   26  C   UNL     1       6.673  25.598  56.213  1.00  0.00     0.049 A 
HETATM   27  C   UNL     1       6.383  25.336  54.870  1.00  0.00     0.033 A 
HETATM   28  C   UNL     1       7.114  24.393  54.137  1.00  0.00     0.039 A 
HETATM   29  C   UNL     1       8.138  23.671  54.745  1.00  0.00     0.076 A 
HETATM   30  C   UNL     1       8.440  23.931  56.083  1.00  0.00     0.039 A 
HETATM   31  C   UNL     1       7.718  24.886  56.808  1.00  0.00     0.033 A 
BRANCH  29  32
HETATM   32  O   UNL     1       8.907  22.708  54.161  1.00  0.00    -0.270 OA
BRANCH  32  33
HETATM   33  C   UNL     1       8.299  21.463  53.836  1.00  0.00     0.447 C 
HETATM   34 CL   UNL     1       7.637  20.719  55.288  1.00  0.00    -0.014 Cl
HETATM   35  F   UNL     1       7.306  21.661  52.926  1.00  0.00    -0.159 F 
HETATM   36  F   UNL     1       9.215  20.641  53.265  1.00  0.00    -0.159 F 
ENDBRANCH  32  33
ENDBRANCH  29  32
ENDBRANCH  24  26
ENDBRANCH   1  24
BRANCH   5  37
HETATM   37  N   UNL     1       8.785  29.801  58.654  1.00  0.00    -0.221 N 
HETATM   38  H   UNL     1       8.911  29.288  59.519  1.00  0.00     0.177 HD
BRANCH  37  39
HETATM   39  C   UNL     1       9.127  31.212  58.690  1.00  0.00     0.140 C 
BRANCH  39  40
HETATM   40  C   UNL     1       9.336  31.691  60.127  1.00  0.00     0.046 C 
BRANCH  40  41
HETATM   41  C   UNL     1       8.433  31.023  61.158  1.00  0.00     0.165 C 
BRANCH  41  42
HETATM   42  O   UNL     1       9.060  29.882  61.729  1.00  0.00    -0.401 OA
HETATM   43  H   UNL     1       9.119  30.072  62.686  1.00  0.00     0.209 HD
ENDBRANCH  41  42
ENDBRANCH  40  41
ENDBRANCH  39  40
ENDBRANCH  37  39
ENDBRANCH   5  37
TORSDOF 11
ENDMDL
MODEL 6
REMARK VINA RESULT:      -9.4      3.295      6.356
REMARK  11 active torsions:
REMARK  status: ('A' for Active; 'I' for Inactive)
REMARK    1  A    between atoms: C_2  and  N_3 
REMARK    2  A    between atoms: N_3  and  C_4 
REMARK    3  A    between atoms: C_6  and  N_7 
REMARK    4  A    between atoms: N_10  and  C_12 
REMARK    5  A    between atoms: C_25  and  N_26 
REMARK    6  A    between atoms: N_26  and  C_27 
REMARK    7  A    between atoms: C_27  and  C_28 
REMARK    8  A    between atoms: C_28  and  C_29 
REMARK    9  A    between atoms: C_29  and  O_30 
REMARK   10  A    between atoms: C_34  and  O_35 
REMARK   11  A    between atoms: O_35  and  C_36 
ROOT
HETATM    1  C   UNL     1       7.613  28.345  57.541  1.00  0.00     0.758 C 
HETATM    2  N   UNL     1       6.408  28.407  56.983  1.00  0.00     0.131 NA
HETATM    3  C   UNL     1       5.730  29.528  57.167  1.00  0.00     0.756 C 
HETATM    4  N   UNL     1       6.236  30.595  57.764  1.00  0.00     0.131 NA
HETATM    5  C   UNL     1       7.428  30.443  58.322  1.00  0.00     0.754 C 
HETATM    6  N   UNL     1       8.144  29.328  58.254  1.00  0.00     0.131 NA
ENDROOT
BRANCH   3   7
HETATM    7  N   UNL     1       4.414  29.599  56.708  1.00  0.00    -0.210 N 
HETATM    8  C   UNL     1       3.905  28.404  56.031  1.00  0.00     0.169 C 
HETATM    9  C   UNL     1       4.298  28.367  54.540  1.00  0.00     0.256 C 
HETATM   10  N   UNL     1       3.871  29.677  53.831  1.00  0.00    -0.059 N 
HETATM   11  H   UNL     1       2.859  29.755  53.991  1.00  0.00     0.281 HD
HETATM   12  C   UNL     1       4.501  30.877  54.580  1.00  0.00     0.256 C 
HETATM   13  C   UNL     1       4.084  30.875  56.072  1.00  0.00     0.169 C 
BRANCH  10  14
HETATM   14  C   UNL     1       4.051  29.676  52.298  1.00  0.00     0.129 C 
HETATM   15  C   UNL     1       5.195  28.698  51.913  1.00  0.00     0.043 C 
HETATM   16  C   UNL     1       5.372  28.643  50.385  1.00  0.00    -0.012 C 
HETATM   17  C   UNL     1       5.700  30.055  49.870  1.00  0.00     0.009 C 
HETATM   18  C   UNL     1       4.070  28.151  49.741  1.00  0.00     0.009 C 
HETATM   19  C   UNL     1       4.557  31.025  50.221  1.00  0.00    -0.012 C 
HETATM   20  C   UNL     1       4.385  31.081  51.753  1.00  0.00     0.043 C 
HETATM   21  C   UNL     1       3.257  30.519  49.574  1.00  0.00     0.009 C 
HETATM   22  C   UNL     1       2.923  29.109  50.091  1.00  0.00    -0.012 C 
HETATM   23  C   UNL     1       2.751  29.164  51.620  1.00  0.00     0.043 C 
ENDBRANCH  10  14
ENDBRANCH   3   7
BRANCH   1  24
HETATM   24  N   UNL     1       8.367  27.178  57.423  1.00  0.00    -0.187 N 
HETATM   25  H   UNL     1       9.358  27.365  57.524  1.00  0.00     0.184 HD
BRANCH  24  26
HETATM   26  C   UNL     1       8.061  25.984  56.753  1.00  0.00     0.049 A 
HETATM   27  C   UNL     1       8.332  24.723  57.293  1.00  0.00     0.033 A 
HETATM   28  C   UNL     1       8.048  23.550  56.583  1.00  0.00     0.039 A 
HETATM   29  C   UNL     1       7.508  23.619  55.301  1.00  0.00     0.076 A 
HETATM   30  C   UNL     1       7.226  24.873  54.757  1.00  0.00     0.039 A 
HETATM   31  C   UNL     1       7.496  26.043  55.477  1.00  0.00     0.033 A 
BRANCH  29  32
HETATM   32  O   UNL     1       7.210  22.563  54.490  1.00  0.00    -0.270 OA
BRANCH  32  33
HETATM   33  C   UNL     1       8.146  22.202  53.481  1.00  0.00     0.447 C 
HETATM   34 CL   UNL     1       7.934  20.510  53.041  1.00  0.00    -0.014 Cl
HETATM   35  F   UNL     1       7.967  22.989  52.386  1.00  0.00    -0.159 F 
HETATM   36  F   UNL     1       9.409  22.413  53.932  1.00  0.00    -0.159 F 
ENDBRANCH  32  33
ENDBRANCH  29  32
ENDBRANCH  24  26
ENDBRANCH   1  24
BRANCH   5  37
HETATM   37  N   UNL     1       7.895  31.523  59.046  1.00  0.00    -0.221 N 
HETATM   38  H   UNL     1       7.455  32.373  58.711  1.00  0.00     0.177 HD
BRANCH  37  39
HETATM   39  C   UNL     1       9.313  31.611  59.345  1.00  0.00     0.140 C 
BRANCH  39  40
HETATM   40  C   UNL     1       9.545  32.074  60.783  1.00  0.00     0.046 C 
BRANCH  40  41
HETATM   41  C   UNL     1       9.517  30.960  61.824  1.00  0.00     0.165 C 
BRANCH  41  42
HETATM   42  O   UNL     1       8.795  29.830  61.349  1.00  0.00    -0.401 OA
HETATM   43  H   UNL     1       9.278  29.053  61.693  1.00  0.00     0.209 HD
ENDBRANCH  41  42
ENDBRANCH  40  41
ENDBRANCH  39  40
ENDBRANCH  37  39
ENDBRANCH   5  37
TORSDOF 11
ENDMDL
MODEL 7
REMARK VINA RESULT:      -9.0      5.191     10.688
REMARK  11 active torsions:
REMARK  status: ('A' for Active; 'I' for Inactive)
REMARK    1  A    between atoms: C_2  and  N_3 
REMARK    2  A    between atoms: N_3  and  C_4 
REMARK    3  A    between atoms: C_6  and  N_7 
REMARK    4  A    between atoms: N_10  and  C_12 
REMARK    5  A    between atoms: C_25  and  N_26 
REMARK    6  A    between atoms: N_26  and  C_27 
REMARK    7  A    between atoms: C_27  and  C_28 
REMARK    8  A    between atoms: C_28  and  C_29 
REMARK    9  A    between atoms: C_29  and  O_30 
REMARK   10  A    between atoms: C_34  and  O_35 
REMARK   11  A    between atoms: O_35  and  C_36 
ROOT
HETATM    1  C   UNL     1       7.370  29.542  56.900  1.00  0.00     0.758 C 
HETATM    2  N   UNL     1       7.229  28.350  57.473  1.00  0.00     0.131 NA
HETATM    3  C   UNL     1       6.353  27.529  56.918  1.00  0.00     0.756 C 
HETATM    4  N   UNL     1       5.722  27.796  55.786  1.00  0.00     0.131 NA
HETATM    5  C   UNL     1       5.890  29.015  55.295  1.00  0.00     0.754 C 
HETATM    6  N   UNL     1       6.688  29.929  55.832  1.00  0.00     0.131 NA
ENDROOT
BRANCH   3   7
HETATM    7  N   UNL     1       6.076  26.316  57.549  1.00  0.00    -0.210 N 
HETATM    8  C   UNL     1       7.228  25.617  58.126  1.00  0.00     0.169 C 
HETATM    9  C   UNL     1       7.978  24.767  57.081  1.00  0.00     0.256 C 
HETATM   10  N   UNL     1       7.002  23.804  56.358  1.00  0.00    -0.059 N 
HETATM   11  H   UNL     1       6.564  23.251  57.105  1.00  0.00     0.281 HD
HETATM   12  C   UNL     1       5.855  24.636  55.733  1.00  0.00     0.256 C 
HETATM   13  C   UNL     1       5.131  25.475  56.814  1.00  0.00     0.169 C 
BRANCH  10  14
HETATM   14  C   UNL     1       7.674  22.779  55.420  1.00  0.00     0.129 C 
HETATM   15  C   UNL     1       9.216  22.952  55.487  1.00  0.00     0.043 C 
HETATM   16  C   UNL     1       9.918  21.915  54.592  1.00  0.00    -0.012 C 
HETATM   17  C   UNL     1       9.436  22.099  53.142  1.00  0.00     0.009 C 
HETATM   18  C   UNL     1       9.563  20.504  55.076  1.00  0.00     0.009 C 
HETATM   19  C   UNL     1       7.913  21.900  53.062  1.00  0.00    -0.012 C 
HETATM   20  C   UNL     1       7.211  22.943  53.957  1.00  0.00     0.043 C 
HETATM   21  C   UNL     1       7.568  20.485  53.554  1.00  0.00     0.009 C 
HETATM   22  C   UNL     1       8.044  20.298  55.005  1.00  0.00    -0.012 C 
HETATM   23  C   UNL     1       7.345  21.339  55.898  1.00  0.00     0.043 C 
ENDBRANCH  10  14
ENDBRANCH   3   7
BRANCH   1  24
HETATM   24  N   UNL     1       8.245  30.474  57.457  1.00  0.00    -0.187 N 
HETATM   25  H   UNL     1       9.202  30.300  57.174  1.00  0.00     0.184 HD
BRANCH  24  26
HETATM   26  C   UNL     1       8.110  31.232  58.629  1.00  0.00     0.049 A 
HETATM   27  C   UNL     1       9.207  31.649  59.391  1.00  0.00     0.033 A 
HETATM   28  C   UNL     1       9.036  32.374  60.577  1.00  0.00     0.039 A 
HETATM   29  C   UNL     1       7.757  32.675  61.039  1.00  0.00     0.076 A 
HETATM   30  C   UNL     1       6.657  32.271  60.281  1.00  0.00     0.039 A 
HETATM   31  C   UNL     1       6.831  31.560  59.087  1.00  0.00     0.033 A 
BRANCH  29  32
HETATM   32  O   UNL     1       7.448  33.346  62.186  1.00  0.00    -0.270 OA
BRANCH  32  33
HETATM   33  C   UNL     1       7.307  32.597  63.388  1.00  0.00     0.447 C 
HETATM   34 CL   UNL     1       7.494  33.657  64.782  1.00  0.00    -0.014 Cl
HETATM   35  F   UNL     1       6.082  32.006  63.419  1.00  0.00    -0.159 F 
HETATM   36  F   UNL     1       8.236  31.609  63.424  1.00  0.00    -0.159 F 
ENDBRANCH  32  33
ENDBRANCH  29  32
ENDBRANCH  24  26
ENDBRANCH   1  24
BRANCH   5  37
HETATM   37  N   UNL     1       5.134  29.324  54.181  1.00  0.00    -0.221 N 
HETATM   38  H   UNL     1       4.375  29.942  54.446  1.00  0.00     0.177 HD
BRANCH  37  39
HETATM   39  C   UNL     1       4.802  28.269  53.240  1.00  0.00     0.140 C 
BRANCH  39  40
HETATM   40  C   UNL     1       5.764  28.267  52.052  1.00  0.00     0.046 C 
BRANCH  40  41
HETATM   41  C   UNL     1       5.436  27.246  50.968  1.00  0.00     0.165 C 
BRANCH  41  42
HETATM   42  O   UNL     1       6.273  26.102  51.068  1.00  0.00    -0.401 OA
HETATM   43  H   UNL     1       6.031  25.679  51.915  1.00  0.00     0.209 HD
ENDBRANCH  41  42
ENDBRANCH  40  41
ENDBRANCH  39  40
ENDBRANCH  37  39
ENDBRANCH   5  37
TORSDOF 11
ENDMDL
MODEL 8
REMARK VINA RESULT:      -8.9      2.228      3.819
REMARK  11 active torsions:
REMARK  status: ('A' for Active; 'I' for Inactive)
REMARK    1  A    between atoms: C_2  and  N_3 
REMARK    2  A    between atoms: N_3  and  C_4 
REMARK    3  A    between atoms: C_6  and  N_7 
REMARK    4  A    between atoms: N_10  and  C_12 
REMARK    5  A    between atoms: C_25  and  N_26 
REMARK    6  A    between atoms: N_26  and  C_27 
REMARK    7  A    between atoms: C_27  and  C_28 
REMARK    8  A    between atoms: C_28  and  C_29 
REMARK    9  A    between atoms: C_29  and  O_30 
REMARK   10  A    between atoms: C_34  and  O_35 
REMARK   11  A    between atoms: O_35  and  C_36 
ROOT
HETATM    1  C   UNL     1       7.280  27.913  57.831  1.00  0.00     0.758 C 
HETATM    2  N   UNL     1       8.025  28.591  58.699  1.00  0.00     0.131 NA
HETATM    3  C   UNL     1       8.079  29.903  58.531  1.00  0.00     0.756 C 
HETATM    4  N   UNL     1       7.350  30.552  57.638  1.00  0.00     0.131 NA
HETATM    5  C   UNL     1       6.660  29.805  56.790  1.00  0.00     0.754 C 
HETATM    6  N   UNL     1       6.612  28.479  56.836  1.00  0.00     0.131 NA
ENDROOT
BRANCH   3   7
HETATM    7  N   UNL     1       8.942  30.648  59.336  1.00  0.00    -0.210 N 
HETATM    8  C   UNL     1       9.033  30.228  60.737  1.00  0.00     0.169 C 
HETATM    9  C   UNL     1       7.903  30.826  61.599  1.00  0.00     0.256 C 
HETATM   10  N   UNL     1       7.855  32.368  61.444  1.00  0.00    -0.059 N 
HETATM   11  H   UNL     1       8.793  32.696  61.704  1.00  0.00     0.281 HD
HETATM   12  C   UNL     1       7.699  32.711  59.942  1.00  0.00     0.256 C 
HETATM   13  C   UNL     1       8.851  32.091  59.113  1.00  0.00     0.169 C 
BRANCH  10  14
HETATM   14  C   UNL     1       6.881  33.088  62.400  1.00  0.00     0.129 C 
HETATM   15  C   UNL     1       5.667  32.165  62.693  1.00  0.00     0.043 C 
HETATM   16  C   UNL     1       4.696  32.840  63.678  1.00  0.00    -0.012 C 
HETATM   17  C   UNL     1       4.207  34.165  63.067  1.00  0.00     0.009 C 
HETATM   18  C   UNL     1       5.425  33.122  64.997  1.00  0.00     0.009 C 
HETATM   19  C   UNL     1       5.402  35.098  62.802  1.00  0.00    -0.012 C 
HETATM   20  C   UNL     1       6.371  34.420  61.811  1.00  0.00     0.043 C 
HETATM   21  C   UNL     1       6.128  35.369  64.129  1.00  0.00     0.009 C 
HETATM   22  C   UNL     1       6.623  34.046  64.741  1.00  0.00    -0.012 C 
HETATM   23  C   UNL     1       7.590  33.370  63.753  1.00  0.00     0.043 C 
ENDBRANCH  10  14
ENDBRANCH   3   7
BRANCH   1  24
HETATM   24  N   UNL     1       7.211  26.524  57.922  1.00  0.00    -0.187 N 
HETATM   25  H   UNL     1       7.176  26.216  58.887  1.00  0.00     0.184 HD
BRANCH  24  26
HETATM   26  C   UNL     1       7.647  25.549  57.013  1.00  0.00     0.049 A 
HETATM   27  C   UNL     1       8.673  24.645  57.306  1.00  0.00     0.033 A 
HETATM   28  C   UNL     1       9.110  23.707  56.362  1.00  0.00     0.039 A 
HETATM   29  C   UNL     1       8.544  23.674  55.090  1.00  0.00     0.076 A 
HETATM   30  C   UNL     1       7.513  24.567  54.791  1.00  0.00     0.039 A 
HETATM   31  C   UNL     1       7.067  25.492  55.742  1.00  0.00     0.033 A 
BRANCH  29  32
HETATM   32  O   UNL     1       8.891  22.838  54.071  1.00  0.00    -0.270 OA
BRANCH  32  33
HETATM   33  C   UNL     1       7.990  21.794  53.717  1.00  0.00     0.447 C 
HETATM   34 CL   UNL     1       8.878  20.442  53.022  1.00  0.00    -0.014 Cl
HETATM   35  F   UNL     1       7.311  21.381  54.821  1.00  0.00    -0.159 F 
HETATM   36  F   UNL     1       7.077  22.260  52.829  1.00  0.00    -0.159 F 
ENDBRANCH  32  33
ENDBRANCH  29  32
ENDBRANCH  24  26
ENDBRANCH   1  24
BRANCH   5  37
HETATM   37  N   UNL     1       6.000  30.487  55.786  1.00  0.00    -0.221 N 
HETATM   38  H   UNL     1       6.426  31.397  55.656  1.00  0.00     0.177 HD
BRANCH  37  39
HETATM   39  C   UNL     1       4.548  30.447  55.745  1.00  0.00     0.140 C 
BRANCH  39  40
HETATM   40  C   UNL     1       4.047  30.103  54.342  1.00  0.00     0.046 C 
BRANCH  40  41
HETATM   41  C   UNL     1       4.051  28.614  54.013  1.00  0.00     0.165 C 
BRANCH  41  42
HETATM   42  O   UNL     1       5.367  28.078  54.068  1.00  0.00    -0.401 OA
HETATM   43  H   UNL     1       5.946  28.837  54.275  1.00  0.00     0.209 HD
ENDBRANCH  41  42
ENDBRANCH  40  41
ENDBRANCH  39  40
ENDBRANCH  37  39
ENDBRANCH   5  37
TORSDOF 11
ENDMDL
MODEL 9
REMARK VINA RESULT:      -8.5      2.484      4.261
REMARK  11 active torsions:
REMARK  status: ('A' for Active; 'I' for Inactive)
REMARK    1  A    between atoms: C_2  and  N_3 
REMARK    2  A    between atoms: N_3  and  C_4 
REMARK    3  A    between atoms: C_6  and  N_7 
REMARK    4  A    between atoms: N_10  and  C_12 
REMARK    5  A    between atoms: C_25  and  N_26 
REMARK    6  A    between atoms: N_26  and  C_27 
REMARK    7  A    between atoms: C_27  and  C_28 
REMARK    8  A    between atoms: C_28  and  C_29 
REMARK    9  A    between atoms: C_29  and  O_30 
REMARK   10  A    between atoms: C_34  and  O_35 
REMARK   11  A    between atoms: O_35  and  C_36 
ROOT
HETATM    1  C   UNL     1       7.530  28.204  57.884  1.00  0.00     0.758 C 
HETATM    2  N   UNL     1       8.232  28.870  58.797  1.00  0.00     0.131 NA
HETATM    3  C   UNL     1       8.139  30.189  58.765  1.00  0.00     0.756 C 
HETATM    4  N   UNL     1       7.310  30.841  57.965  1.00  0.00     0.131 NA
HETATM    5  C   UNL     1       6.671  30.110  57.063  1.00  0.00     0.754 C 
HETATM    6  N   UNL     1       6.767  28.790  56.972  1.00  0.00     0.131 NA
ENDROOT
BRANCH   3   7
HETATM    7  N   UNL     1       8.948  30.941  59.618  1.00  0.00    -0.210 N 
HETATM    8  C   UNL     1       9.013  30.482  61.008  1.00  0.00     0.169 C 
HETATM    9  C   UNL     1       7.836  31.010  61.852  1.00  0.00     0.256 C 
HETATM   10  N   UNL     1       7.734  32.553  61.741  1.00  0.00    -0.059 N 
HETATM   11  H   UNL     1       8.651  32.908  62.040  1.00  0.00     0.281 HD
HETATM   12  C   UNL     1       7.611  32.937  60.246  1.00  0.00     0.256 C 
HETATM   13  C   UNL     1       8.809  32.385  59.435  1.00  0.00     0.169 C 
BRANCH  10  14
HETATM   14  C   UNL     1       6.706  33.207  62.688  1.00  0.00     0.129 C 
HETATM   15  C   UNL     1       7.403  33.592  64.021  1.00  0.00     0.043 C 
HETATM   16  C   UNL     1       6.411  34.285  64.973  1.00  0.00    -0.012 C 
HETATM   17  C   UNL     1       5.240  33.328  65.255  1.00  0.00     0.009 C 
HETATM   18  C   UNL     1       5.882  35.563  64.311  1.00  0.00     0.009 C 
HETATM   19  C   UNL     1       4.525  32.965  63.942  1.00  0.00    -0.012 C 
HETATM   20  C   UNL     1       5.520  32.267  62.992  1.00  0.00     0.043 C 
HETATM   21  C   UNL     1       4.003  34.254  63.286  1.00  0.00     0.009 C 
HETATM   22  C   UNL     1       5.172  35.211  62.997  1.00  0.00    -0.012 C 
HETATM   23  C   UNL     1       6.166  34.515  62.049  1.00  0.00     0.043 C 
ENDBRANCH  10  14
ENDBRANCH   3   7
BRANCH   1  24
HETATM   24  N   UNL     1       7.614  26.813  57.832  1.00  0.00    -0.187 N 
HETATM   25  H   UNL     1       8.193  26.448  58.579  1.00  0.00     0.184 HD
BRANCH  24  26
HETATM   26  C   UNL     1       7.461  25.952  56.735  1.00  0.00     0.049 A 
HETATM   27  C   UNL     1       7.488  26.402  55.411  1.00  0.00     0.033 A 
HETATM   28  C   UNL     1       7.296  25.521  54.339  1.00  0.00     0.039 A 
HETATM   29  C   UNL     1       7.046  24.172  54.575  1.00  0.00     0.076 A 
HETATM   30  C   UNL     1       7.026  23.712  55.892  1.00  0.00     0.039 A 
HETATM   31  C   UNL     1       7.235  24.592  56.962  1.00  0.00     0.033 A 
BRANCH  29  32
HETATM   32  O   UNL     1       6.814  23.215  53.631  1.00  0.00    -0.270 OA
BRANCH  32  33
HETATM   33  C   UNL     1       7.931  22.532  53.073  1.00  0.00     0.447 C 
HETATM   34 CL   UNL     1       7.653  20.794  53.108  1.00  0.00    -0.014 Cl
HETATM   35  F   UNL     1       8.125  22.942  51.790  1.00  0.00    -0.159 F 
HETATM   36  F   UNL     1       9.052  22.841  53.773  1.00  0.00    -0.159 F 
ENDBRANCH  32  33
ENDBRANCH  29  32
ENDBRANCH  24  26
ENDBRANCH   1  24
BRANCH   5  37
HETATM   37  N   UNL     1       5.902  30.813  56.155  1.00  0.00    -0.221 N 
HETATM   38  H   UNL     1       5.752  31.756  56.494  1.00  0.00     0.177 HD
BRANCH  37  39
HETATM   39  C   UNL     1       4.755  30.160  55.549  1.00  0.00     0.140 C 
BRANCH  39  40
HETATM   40  C   UNL     1       3.906  31.157  54.762  1.00  0.00     0.046 C 
BRANCH  40  41
HETATM   41  C   UNL     1       2.777  31.801  55.558  1.00  0.00     0.165 C 
BRANCH  41  42
HETATM   42  O   UNL     1       2.800  31.381  56.916  1.00  0.00    -0.401 OA
HETATM   43  H   UNL     1       2.629  32.189  57.439  1.00  0.00     0.209 HD
ENDBRANCH  41  42
ENDBRANCH  40  41
ENDBRANCH  39  40
ENDBRANCH  37  39
ENDBRANCH   5  37
TORSDOF 11
ENDMDL
MODEL 10
REMARK VINA RESULT:      -8.5      4.992      7.857
REMARK  11 active torsions:
REMARK  status: ('A' for Active; 'I' for Inactive)
REMARK    1  A    between atoms: C_2  and  N_3 
REMARK    2  A    between atoms: N_3  and  C_4 
REMARK    3  A    between atoms: C_6  and  N_7 
REMARK    4  A    between atoms: N_10  and  C_12 
REMARK    5  A    between atoms: C_25  and  N_26 
REMARK    6  A    between atoms: N_26  and  C_27 
REMARK    7  A    between atoms: C_27  and  C_28 
REMARK    8  A    between atoms: C_28  and  C_29 
REMARK    9  A    between atoms: C_29  and  O_30 
REMARK   10  A    between atoms: C_34  and  O_35 
REMARK   11  A    between atoms: O_35  and  C_36 
ROOT
HETATM    1  C   UNL     1       4.783  27.061  53.667  1.00  0.00     0.758 C 
HETATM    2  N   UNL     1       4.576  27.027  52.353  1.00  0.00     0.131 NA
HETATM    3  C   UNL     1       4.414  28.195  51.752  1.00  0.00     0.756 C 
HETATM    4  N   UNL     1       4.564  29.357  52.367  1.00  0.00     0.131 NA
HETATM    5  C   UNL     1       4.736  29.307  53.680  1.00  0.00     0.754 C 
HETATM    6  N   UNL     1       4.830  28.180  54.375  1.00  0.00     0.131 NA
ENDROOT
BRANCH   3   7
HETATM    7  N   UNL     1       4.072  28.211  50.399  1.00  0.00    -0.210 N 
HETATM    8  C   UNL     1       5.193  28.234  49.455  1.00  0.00     0.169 C 
HETATM    9  C   UNL     1       5.726  29.661  49.217  1.00  0.00     0.256 C 
HETATM   10  N   UNL     1       4.575  30.610  48.794  1.00  0.00    -0.059 N 
HETATM   11  H   UNL     1       4.160  30.177  47.959  1.00  0.00     0.281 HD
HETATM   12  C   UNL     1       3.469  30.563  49.876  1.00  0.00     0.256 C 
HETATM   13  C   UNL     1       2.965  29.114  50.086  1.00  0.00     0.169 C 
BRANCH  10  14
HETATM   14  C   UNL     1       5.023  32.020  48.353  1.00  0.00     0.129 C 
HETATM   15  C   UNL     1       5.087  32.079  46.802  1.00  0.00     0.043 C 
HETATM   16  C   UNL     1       5.492  33.487  46.330  1.00  0.00    -0.012 C 
HETATM   17  C   UNL     1       6.869  33.836  46.921  1.00  0.00     0.009 C 
HETATM   18  C   UNL     1       4.452  34.505  46.816  1.00  0.00     0.009 C 
HETATM   19  C   UNL     1       6.806  33.807  48.458  1.00  0.00    -0.012 C 
HETATM   20  C   UNL     1       6.404  32.394  48.930  1.00  0.00     0.043 C 
HETATM   21  C   UNL     1       5.758  34.827  48.934  1.00  0.00     0.009 C 
HETATM   22  C   UNL     1       4.378  34.479  48.349  1.00  0.00    -0.012 C 
HETATM   23  C   UNL     1       3.977  33.069  48.818  1.00  0.00     0.043 C 
ENDBRANCH  10  14
ENDBRANCH   3   7
BRANCH   1  24
HETATM   24  N   UNL     1       4.920  25.867  54.372  1.00  0.00    -0.187 N 
HETATM   25  H   UNL     1       4.479  25.921  55.283  1.00  0.00     0.184 HD
BRANCH  24  26
HETATM   26  C   UNL     1       5.901  24.871  54.255  1.00  0.00     0.049 A 
HETATM   27  C   UNL     1       6.579  24.343  55.359  1.00  0.00     0.033 A 
HETATM   28  C   UNL     1       7.580  23.375  55.205  1.00  0.00     0.039 A 
HETATM   29  C   UNL     1       7.941  22.935  53.934  1.00  0.00     0.076 A 
HETATM   30  C   UNL     1       7.264  23.449  52.827  1.00  0.00     0.039 A 
HETATM   31  C   UNL     1       6.253  24.405  52.986  1.00  0.00     0.033 A 
BRANCH  29  32
HETATM   32  O   UNL     1       8.912  22.023  53.639  1.00  0.00    -0.270 OA
BRANCH  32  33
HETATM   33  C   UNL     1       8.573  20.641  53.671  1.00  0.00     0.447 C 
HETATM   34 CL   UNL     1       8.688  20.031  55.318  1.00  0.00    -0.014 Cl
HETATM   35  F   UNL     1       7.307  20.469  53.203  1.00  0.00    -0.159 F 
HETATM   36  F   UNL     1       9.406  19.947  52.856  1.00  0.00    -0.159 F 
ENDBRANCH  32  33
ENDBRANCH  29  32
ENDBRANCH  24  26
ENDBRANCH   1  24
BRANCH   5  37
HETATM   37  N   UNL     1       4.770  30.526  54.328  1.00  0.00    -0.221 N 
HETATM   38  H   UNL     1       5.608  31.031  54.061  1.00  0.00     0.177 HD
BRANCH  37  39
HETATM   39  C   UNL     1       4.406  30.587  55.733  1.00  0.00     0.140 C 
BRANCH  39  40
HETATM   40  C   UNL     1       5.572  31.092  56.583  1.00  0.00     0.046 C 
BRANCH  40  41
HETATM   41  C   UNL     1       6.623  30.038  56.914  1.00  0.00     0.165 C 
BRANCH  41  42
HETATM   42  O   UNL     1       7.330  29.632  55.750  1.00  0.00    -0.401 OA
HETATM   43  H   UNL     1       7.816  28.826  56.012  1.00  0.00     0.209 HD
ENDBRANCH  41  42
ENDBRANCH  40  41
ENDBRANCH  39  40
ENDBRANCH  37  39
ENDBRANCH   5  37
TORSDOF 11
ENDMDL
