MODEL 1
REMARK VINA RESULT:      -9.0      0.000      0.000
REMARK  5 active torsions:
REMARK  status: ('A' for Active; 'I' for Inactive)
REMARK    1  A    between atoms: C_6  and  O_7 
REMARK    2  A    between atoms: O_7  and  C_8 
REMARK    3  A    between atoms: C_12  and  C_13 
REMARK       I    between atoms: C_13  and  N_14 
REMARK    4  A    between atoms: N_14  and  C_15 
REMARK    5  A    between atoms: C_15  and  C_16 
ROOT
HETATM    1  C   UNL     1       7.977  22.920  52.620  1.00  0.00     0.002 A 
HETATM    2  C   UNL     1       8.244  22.157  53.757  1.00  0.00     0.025 A 
HETATM    3  C   UNL     1       7.739  22.550  55.004  1.00  0.00     0.078 A 
HETATM    4  C   UNL     1       8.036  21.752  56.159  1.00  0.00     0.102 C 
HETATM    5  N   UNL     1       8.299  21.093  57.077  1.00  0.00    -0.191 NA
HETATM    6  C   UNL     1       6.956  23.710  55.107  1.00  0.00     0.096 A 
HETATM    7  C   UNL     1       6.712  24.484  53.964  1.00  0.00     0.039 A 
HETATM    8  C   UNL     1       7.216  24.083  52.725  1.00  0.00     0.003 A 
ENDROOT
BRANCH   6   9
HETATM    9  O   UNL     1       6.503  24.051  56.367  1.00  0.00    -0.308 OA
BRANCH   9  10
HETATM   10  C   UNL     1       6.679  25.342  56.802  1.00  0.00     0.098 A 
HETATM   11  C   UNL     1       7.903  25.836  57.275  1.00  0.00     0.068 A 
HETATM   12 CL   UNL     1       9.309  24.841  57.391  1.00  0.00    -0.081 Cl
HETATM   13  C   UNL     1       8.022  27.181  57.637  1.00  0.00     0.044 A 
HETATM   14  C   UNL     1       6.924  28.039  57.500  1.00  0.00     0.033 A 
HETATM   15  C   UNL     1       5.714  27.552  56.989  1.00  0.00     0.020 A 
HETATM   16  C   UNL     1       5.593  26.206  56.641  1.00  0.00     0.040 A 
BRANCH  14  17
HETATM   17  C   UNL     1       7.027  29.486  57.817  1.00  0.00     0.251 C 
HETATM   18  N   UNL     1       8.190  29.891  58.434  1.00  0.00    -0.353 N 
HETATM   19  H   UNL     1       8.816  29.198  58.819  1.00  0.00     0.163 HD
HETATM   20  O   UNL     1       6.095  30.234  57.549  1.00  0.00    -0.268 OA
BRANCH  18  21
HETATM   21  C   UNL     1       8.383  31.265  58.845  1.00  0.00     0.161 C 
BRANCH  21  22
HETATM   22  C   UNL     1       7.926  31.489  60.261  1.00  0.00    -0.038 A 
HETATM   23  C   UNL     1       8.647  30.984  61.345  1.00  0.00     0.028 A 
HETATM   24  C   UNL     1       8.171  31.220  62.626  1.00  0.00     0.116 A 
HETATM   25  N   UNL     1       7.041  31.906  62.896  1.00  0.00    -0.273 NA
HETATM   26  C   UNL     1       6.355  32.380  61.835  1.00  0.00     0.116 A 
HETATM   27  C   UNL     1       6.749  32.199  60.520  1.00  0.00     0.028 A 
ENDBRANCH  21  22
ENDBRANCH  18  21
ENDBRANCH  14  17
ENDBRANCH   9  10
ENDBRANCH   6   9
TORSDOF 5
ENDMDL
MODEL 2
REMARK VINA RESULT:      -8.9      2.768      3.998
REMARK  5 active torsions:
REMARK  status: ('A' for Active; 'I' for Inactive)
REMARK    1  A    between atoms: C_6  and  O_7 
REMARK    2  A    between atoms: O_7  and  C_8 
REMARK    3  A    between atoms: C_12  and  C_13 
REMARK       I    between atoms: C_13  and  N_14 
REMARK    4  A    between atoms: N_14  and  C_15 
REMARK    5  A    between atoms: C_15  and  C_16 
ROOT
HETATM    1  C   UNL     1       7.451  23.915  56.592  1.00  0.00     0.002 A 
HETATM    2  C   UNL     1       6.736  24.442  55.515  1.00  0.00     0.025 A 
HETATM    3  C   UNL     1       6.834  25.804  55.204  1.00  0.00     0.078 A 
HETATM    4  C   UNL     1       6.082  26.322  54.097  1.00  0.00     0.102 C 
HETATM    5  N   UNL     1       5.456  26.715  53.202  1.00  0.00    -0.191 NA
HETATM    6  C   UNL     1       7.660  26.640  55.972  1.00  0.00     0.096 A 
HETATM    7  C   UNL     1       8.356  26.107  57.066  1.00  0.00     0.039 A 
HETATM    8  C   UNL     1       8.255  24.747  57.367  1.00  0.00     0.003 A 
ENDROOT
BRANCH   6   9
HETATM    9  O   UNL     1       7.699  27.975  55.622  1.00  0.00    -0.308 OA
BRANCH   9  10
HETATM   10  C   UNL     1       7.899  28.908  56.611  1.00  0.00     0.098 A 
HETATM   11  C   UNL     1       6.880  29.361  57.461  1.00  0.00     0.068 A 
HETATM   12 CL   UNL     1       5.251  28.808  57.314  1.00  0.00    -0.081 Cl
HETATM   13  C   UNL     1       7.174  30.261  58.489  1.00  0.00     0.044 A 
HETATM   14  C   UNL     1       8.494  30.689  58.684  1.00  0.00     0.033 A 
HETATM   15  C   UNL     1       9.516  30.202  57.859  1.00  0.00     0.020 A 
HETATM   16  C   UNL     1       9.219  29.314  56.825  1.00  0.00     0.040 A 
BRANCH  14  17
HETATM   17  C   UNL     1       8.857  31.597  59.800  1.00  0.00     0.251 C 
HETATM   18  N   UNL     1       8.613  31.126  61.071  1.00  0.00    -0.353 N 
HETATM   19  H   UNL     1       8.035  30.306  61.195  1.00  0.00     0.163 HD
HETATM   20  O   UNL     1       9.321  32.704  59.556  1.00  0.00    -0.268 OA
BRANCH  18  21
HETATM   21  C   UNL     1       8.870  31.942  62.238  1.00  0.00     0.161 C 
BRANCH  21  22
HETATM   22  C   UNL     1       7.601  32.259  62.982  1.00  0.00    -0.038 A 
HETATM   23  C   UNL     1       7.613  33.062  64.125  1.00  0.00     0.028 A 
HETATM   24  C   UNL     1       6.411  33.315  64.771  1.00  0.00     0.116 A 
HETATM   25  N   UNL     1       5.221  32.824  64.366  1.00  0.00    -0.273 NA
HETATM   26  C   UNL     1       5.231  32.046  63.263  1.00  0.00     0.116 A 
HETATM   27  C   UNL     1       6.377  31.738  62.550  1.00  0.00     0.028 A 
ENDBRANCH  21  22
ENDBRANCH  18  21
ENDBRANCH  14  17
ENDBRANCH   9  10
ENDBRANCH   6   9
TORSDOF 5
ENDMDL
MODEL 3
REMARK VINA RESULT:      -8.8      1.959      9.040
REMARK  5 active torsions:
REMARK  status: ('A' for Active; 'I' for Inactive)
REMARK    1  A    between atoms: C_6  and  O_7 
REMARK    2  A    between atoms: O_7  and  C_8 
REMARK    3  A    between atoms: C_12  and  C_13 
REMARK       I    between atoms: C_13  and  N_14 
REMARK    4  A    between atoms: N_14  and  C_15 
REMARK    5  A    between atoms: C_15  and  C_16 
ROOT
HETATM    1  C   UNL     1       8.302  31.272  62.568  1.00  0.00     0.002 A 
HETATM    2  C   UNL     1       7.244  31.923  61.934  1.00  0.00     0.025 A 
HETATM    3  C   UNL     1       7.131  31.890  60.537  1.00  0.00     0.078 A 
HETATM    4  C   UNL     1       6.038  32.575  59.911  1.00  0.00     0.102 C 
HETATM    5  N   UNL     1       5.148  33.146  59.429  1.00  0.00    -0.191 NA
HETATM    6  C   UNL     1       8.082  31.194  59.776  1.00  0.00     0.096 A 
HETATM    7  C   UNL     1       9.155  30.561  60.419  1.00  0.00     0.039 A 
HETATM    8  C   UNL     1       9.257  30.597  61.811  1.00  0.00     0.003 A 
ENDROOT
BRANCH   6   9
HETATM    9  O   UNL     1       7.922  31.214  58.404  1.00  0.00    -0.308 OA
BRANCH   9  10
HETATM   10  C   UNL     1       7.555  30.053  57.768  1.00  0.00     0.098 A 
HETATM   11  C   UNL     1       8.477  29.153  57.215  1.00  0.00     0.068 A 
HETATM   12 CL   UNL     1      10.179  29.445  57.251  1.00  0.00    -0.081 Cl
HETATM   13  C   UNL     1       8.032  27.957  56.643  1.00  0.00     0.044 A 
HETATM   14  C   UNL     1       6.665  27.650  56.647  1.00  0.00     0.033 A 
HETATM   15  C   UNL     1       5.751  28.533  57.237  1.00  0.00     0.020 A 
HETATM   16  C   UNL     1       6.196  29.732  57.795  1.00  0.00     0.040 A 
BRANCH  14  17
HETATM   17  C   UNL     1       6.159  26.365  56.103  1.00  0.00     0.251 C 
HETATM   18  N   UNL     1       6.851  25.842  55.033  1.00  0.00    -0.353 N 
HETATM   19  H   UNL     1       7.521  26.420  54.545  1.00  0.00     0.163 HD
HETATM   20  O   UNL     1       5.163  25.848  56.594  1.00  0.00    -0.268 OA
BRANCH  18  21
HETATM   21  C   UNL     1       6.420  24.626  54.380  1.00  0.00     0.161 C 
BRANCH  21  22
HETATM   22  C   UNL     1       7.410  23.511  54.576  1.00  0.00    -0.038 A 
HETATM   23  C   UNL     1       8.038  22.898  53.489  1.00  0.00     0.028 A 
HETATM   24  C   UNL     1       8.938  21.871  53.734  1.00  0.00     0.116 A 
HETATM   25  N   UNL     1       9.243  21.416  54.967  1.00  0.00    -0.273 NA
HETATM   26  C   UNL     1       8.622  22.016  56.004  1.00  0.00     0.116 A 
HETATM   27  C   UNL     1       7.711  23.050  55.862  1.00  0.00     0.028 A 
ENDBRANCH  21  22
ENDBRANCH  18  21
ENDBRANCH  14  17
ENDBRANCH   9  10
ENDBRANCH   6   9
TORSDOF 5
ENDMDL
MODEL 4
REMARK VINA RESULT:      -8.6      5.924      9.404
REMARK  5 active torsions:
REMARK  status: ('A' for Active; 'I' for Inactive)
REMARK    1  A    between atoms: C_6  and  O_7 
REMARK    2  A    between atoms: O_7  and  C_8 
REMARK    3  A    between atoms: C_12  and  C_13 
REMARK       I    between atoms: C_13  and  N_14 
REMARK    4  A    between atoms: N_14  and  C_15 
REMARK    5  A    between atoms: C_15  and  C_16 
ROOT
HETATM    1  C   UNL     1       1.998  26.066  47.240  1.00  0.00     0.002 A 
HETATM    2  C   UNL     1       1.493  27.189  47.896  1.00  0.00     0.025 A 
HETATM    3  C   UNL     1       2.288  27.881  48.820  1.00  0.00     0.078 A 
HETATM    4  C   UNL     1       1.742  29.028  49.487  1.00  0.00     0.102 C 
HETATM    5  N   UNL     1       1.272  29.947  50.018  1.00  0.00    -0.191 NA
HETATM    6  C   UNL     1       3.597  27.447  49.080  1.00  0.00     0.096 A 
HETATM    7  C   UNL     1       4.088  26.304  48.434  1.00  0.00     0.039 A 
HETATM    8  C   UNL     1       3.290  25.623  47.512  1.00  0.00     0.003 A 
ENDROOT
BRANCH   6   9
HETATM    9  O   UNL     1       4.321  28.163  50.014  1.00  0.00    -0.308 OA
BRANCH   9  10
HETATM   10  C   UNL     1       4.725  27.526  51.162  1.00  0.00     0.098 A 
HETATM   11  C   UNL     1       4.318  27.918  52.445  1.00  0.00     0.068 A 
HETATM   12 CL   UNL     1       3.287  29.279  52.703  1.00  0.00    -0.081 Cl
HETATM   13  C   UNL     1       4.716  27.179  53.562  1.00  0.00     0.044 A 
HETATM   14  C   UNL     1       5.501  26.031  53.394  1.00  0.00     0.033 A 
HETATM   15  C   UNL     1       5.872  25.619  52.107  1.00  0.00     0.020 A 
HETATM   16  C   UNL     1       5.485  26.366  50.994  1.00  0.00     0.040 A 
BRANCH  14  17
HETATM   17  C   UNL     1       5.895  25.186  54.549  1.00  0.00     0.251 C 
HETATM   18  N   UNL     1       6.964  24.341  54.348  1.00  0.00    -0.353 N 
HETATM   19  H   UNL     1       7.300  24.179  53.408  1.00  0.00     0.163 HD
HETATM   20  O   UNL     1       5.260  25.252  55.595  1.00  0.00    -0.268 OA
BRANCH  18  21
HETATM   21  C   UNL     1       7.405  23.427  55.379  1.00  0.00     0.161 C 
BRANCH  21  22
HETATM   22  C   UNL     1       7.893  22.129  54.796  1.00  0.00    -0.038 A 
HETATM   23  C   UNL     1       8.394  21.111  55.612  1.00  0.00     0.028 A 
HETATM   24  C   UNL     1       8.834  19.939  55.015  1.00  0.00     0.116 A 
HETATM   25  N   UNL     1       8.816  19.718  53.684  1.00  0.00    -0.273 NA
HETATM   26  C   UNL     1       8.334  20.715  52.912  1.00  0.00     0.116 A 
HETATM   27  C   UNL     1       7.870  21.920  53.413  1.00  0.00     0.028 A 
ENDBRANCH  21  22
ENDBRANCH  18  21
ENDBRANCH  14  17
ENDBRANCH   9  10
ENDBRANCH   6   9
TORSDOF 5
ENDMDL
MODEL 5
REMARK VINA RESULT:      -8.6      5.839      9.118
REMARK  5 active torsions:
REMARK  status: ('A' for Active; 'I' for Inactive)
REMARK    1  A    between atoms: C_6  and  O_7 
REMARK    2  A    between atoms: O_7  and  C_8 
REMARK    3  A    between atoms: C_12  and  C_13 
REMARK       I    between atoms: C_13  and  N_14 
REMARK    4  A    between atoms: N_14  and  C_15 
REMARK    5  A    between atoms: C_15  and  C_16 
ROOT
HETATM    1  C   UNL     1       9.247  21.700  54.312  1.00  0.00     0.002 A 
HETATM    2  C   UNL     1       9.177  22.567  55.404  1.00  0.00     0.025 A 
HETATM    3  C   UNL     1       8.140  23.504  55.494  1.00  0.00     0.078 A 
HETATM    4  C   UNL     1       8.096  24.389  56.623  1.00  0.00     0.102 C 
HETATM    5  N   UNL     1       8.089  25.097  57.542  1.00  0.00    -0.191 NA
HETATM    6  C   UNL     1       7.165  23.567  54.486  1.00  0.00     0.096 A 
HETATM    7  C   UNL     1       7.255  22.709  53.381  1.00  0.00     0.039 A 
HETATM    8  C   UNL     1       8.291  21.775  53.302  1.00  0.00     0.003 A 
ENDROOT
BRANCH   6   9
HETATM    9  O   UNL     1       6.179  24.524  54.627  1.00  0.00    -0.308 OA
BRANCH   9  10
HETATM   10  C   UNL     1       5.925  25.366  53.571  1.00  0.00     0.098 A 
HETATM   11  C   UNL     1       6.446  26.664  53.478  1.00  0.00     0.068 A 
HETATM   12 CL   UNL     1       7.437  27.345  54.717  1.00  0.00    -0.081 Cl
HETATM   13  C   UNL     1       6.199  27.437  52.340  1.00  0.00     0.044 A 
HETATM   14  C   UNL     1       5.452  26.902  51.283  1.00  0.00     0.033 A 
HETATM   15  C   UNL     1       4.967  25.590  51.361  1.00  0.00     0.020 A 
HETATM   16  C   UNL     1       5.204  24.824  52.504  1.00  0.00     0.040 A 
BRANCH  14  17
HETATM   17  C   UNL     1       5.218  27.669  50.033  1.00  0.00     0.251 C 
HETATM   18  N   UNL     1       5.110  26.929  48.877  1.00  0.00    -0.353 N 
HETATM   19  H   UNL     1       5.384  25.956  48.881  1.00  0.00     0.163 HD
HETATM   20  O   UNL     1       5.157  28.892  50.074  1.00  0.00    -0.268 OA
BRANCH  18  21
HETATM   21  C   UNL     1       4.940  27.566  47.589  1.00  0.00     0.161 C 
BRANCH  21  22
HETATM   22  C   UNL     1       3.487  27.798  47.274  1.00  0.00    -0.038 A 
HETATM   23  C   UNL     1       2.602  26.730  47.106  1.00  0.00     0.028 A 
HETATM   24  C   UNL     1       1.275  27.009  46.811  1.00  0.00     0.116 A 
HETATM   25  N   UNL     1       0.781  28.256  46.666  1.00  0.00    -0.273 NA
HETATM   26  C   UNL     1       1.653  29.274  46.825  1.00  0.00     0.116 A 
HETATM   27  C   UNL     1       2.994  29.098  47.123  1.00  0.00     0.028 A 
ENDBRANCH  21  22
ENDBRANCH  18  21
ENDBRANCH  14  17
ENDBRANCH   9  10
ENDBRANCH   6   9
TORSDOF 5
ENDMDL
MODEL 6
REMARK VINA RESULT:      -8.5      2.246      9.000
REMARK  5 active torsions:
REMARK  status: ('A' for Active; 'I' for Inactive)
REMARK    1  A    between atoms: C_6  and  O_7 
REMARK    2  A    between atoms: O_7  and  C_8 
REMARK    3  A    between atoms: C_12  and  C_13 
REMARK       I    between atoms: C_13  and  N_14 
REMARK    4  A    between atoms: N_14  and  C_15 
REMARK    5  A    between atoms: C_15  and  C_16 
ROOT
HETATM    1  C   UNL     1       5.945  32.691  60.489  1.00  0.00     0.002 A 
HETATM    2  C   UNL     1       6.957  32.054  61.208  1.00  0.00     0.025 A 
HETATM    3  C   UNL     1       7.830  31.168  60.561  1.00  0.00     0.078 A 
HETATM    4  C   UNL     1       8.857  30.521  61.326  1.00  0.00     0.102 C 
HETATM    5  N   UNL     1       9.673  30.005  61.970  1.00  0.00    -0.191 NA
HETATM    6  C   UNL     1       7.691  30.928  59.186  1.00  0.00     0.096 A 
HETATM    7  C   UNL     1       6.656  31.553  58.476  1.00  0.00     0.039 A 
HETATM    8  C   UNL     1       5.793  32.436  59.127  1.00  0.00     0.003 A 
ENDROOT
BRANCH   6   9
HETATM    9  O   UNL     1       8.573  30.032  58.614  1.00  0.00    -0.308 OA
BRANCH   9  10
HETATM   10  C   UNL     1       8.138  29.261  57.563  1.00  0.00     0.098 A 
HETATM   11  C   UNL     1       8.839  29.138  56.355  1.00  0.00     0.068 A 
HETATM   12 CL   UNL     1      10.315  29.985  56.062  1.00  0.00    -0.081 Cl
HETATM   13  C   UNL     1       8.368  28.281  55.357  1.00  0.00     0.044 A 
HETATM   14  C   UNL     1       7.208  27.526  55.577  1.00  0.00     0.033 A 
HETATM   15  C   UNL     1       6.532  27.621  56.800  1.00  0.00     0.020 A 
HETATM   16  C   UNL     1       6.997  28.487  57.791  1.00  0.00     0.040 A 
BRANCH  14  17
HETATM   17  C   UNL     1       6.709  26.561  54.565  1.00  0.00     0.251 C 
HETATM   18  N   UNL     1       7.314  25.324  54.554  1.00  0.00    -0.353 N 
HETATM   19  H   UNL     1       8.174  25.186  55.068  1.00  0.00     0.163 HD
HETATM   20  O   UNL     1       5.824  26.898  53.789  1.00  0.00    -0.268 OA
BRANCH  18  21
HETATM   21  C   UNL     1       6.955  24.319  53.578  1.00  0.00     0.161 C 
BRANCH  21  22
HETATM   22  C   UNL     1       7.435  22.953  53.986  1.00  0.00    -0.038 A 
HETATM   23  C   UNL     1       7.464  22.565  55.328  1.00  0.00     0.028 A 
HETATM   24  C   UNL     1       7.923  21.294  55.641  1.00  0.00     0.116 A 
HETATM   25  N   UNL     1       8.354  20.402  54.726  1.00  0.00    -0.273 NA
HETATM   26  C   UNL     1       8.325  20.797  53.436  1.00  0.00     0.116 A 
HETATM   27  C   UNL     1       7.883  22.043  53.023  1.00  0.00     0.028 A 
ENDBRANCH  21  22
ENDBRANCH  18  21
ENDBRANCH  14  17
ENDBRANCH   9  10
ENDBRANCH   6   9
TORSDOF 5
ENDMDL
MODEL 7
REMARK VINA RESULT:      -8.4      4.051     10.761
REMARK  5 active torsions:
REMARK  status: ('A' for Active; 'I' for Inactive)
REMARK    1  A    between atoms: C_6  and  O_7 
REMARK    2  A    between atoms: O_7  and  C_8 
REMARK    3  A    between atoms: C_12  and  C_13 
REMARK       I    between atoms: C_13  and  N_14 
REMARK    4  A    between atoms: N_14  and  C_15 
REMARK    5  A    between atoms: C_15  and  C_16 
ROOT
HETATM    1  C   UNL     1       5.259  37.668  63.752  1.00  0.00     0.002 A 
HETATM    2  C   UNL     1       4.998  36.650  64.670  1.00  0.00     0.025 A 
HETATM    3  C   UNL     1       5.010  35.310  64.258  1.00  0.00     0.078 A 
HETATM    4  C   UNL     1       4.730  34.284  65.220  1.00  0.00     0.102 C 
HETATM    5  N   UNL     1       4.491  33.474  66.017  1.00  0.00    -0.191 NA
HETATM    6  C   UNL     1       5.294  34.992  62.921  1.00  0.00     0.096 A 
HETATM    7  C   UNL     1       5.533  36.022  62.000  1.00  0.00     0.039 A 
HETATM    8  C   UNL     1       5.522  37.354  62.420  1.00  0.00     0.003 A 
ENDROOT
BRANCH   6   9
HETATM    9  O   UNL     1       5.274  33.654  62.577  1.00  0.00    -0.308 OA
BRANCH   9  10
HETATM   10  C   UNL     1       6.252  33.177  61.739  1.00  0.00     0.098 A 
HETATM   11  C   UNL     1       7.534  32.816  62.177  1.00  0.00     0.068 A 
HETATM   12 CL   UNL     1       8.018  32.977  63.827  1.00  0.00    -0.081 Cl
HETATM   13  C   UNL     1       8.455  32.273  61.276  1.00  0.00     0.044 A 
HETATM   14  C   UNL     1       8.084  32.067  59.941  1.00  0.00     0.033 A 
HETATM   15  C   UNL     1       6.789  32.391  59.516  1.00  0.00     0.020 A 
HETATM   16  C   UNL     1       5.876  32.945  60.413  1.00  0.00     0.040 A 
BRANCH  14  17
HETATM   17  C   UNL     1       9.013  31.439  58.968  1.00  0.00     0.251 C 
HETATM   18  N   UNL     1       8.675  30.176  58.534  1.00  0.00    -0.353 N 
HETATM   19  H   UNL     1       7.956  29.659  59.021  1.00  0.00     0.163 HD
HETATM   20  O   UNL     1      10.022  32.038  58.618  1.00  0.00    -0.268 OA
BRANCH  18  21
HETATM   21  C   UNL     1       9.531  29.438  57.631  1.00  0.00     0.161 C 
BRANCH  21  22
HETATM   22  C   UNL     1       8.735  28.532  56.730  1.00  0.00    -0.038 A 
HETATM   23  C   UNL     1       8.270  27.293  57.176  1.00  0.00     0.028 A 
HETATM   24  C   UNL     1       7.547  26.500  56.297  1.00  0.00     0.116 A 
HETATM   25  N   UNL     1       7.266  26.850  55.024  1.00  0.00    -0.273 NA
HETATM   26  C   UNL     1       7.729  28.048  54.610  1.00  0.00     0.116 A 
HETATM   27  C   UNL     1       8.458  28.910  55.412  1.00  0.00     0.028 A 
ENDBRANCH  21  22
ENDBRANCH  18  21
ENDBRANCH  14  17
ENDBRANCH   9  10
ENDBRANCH   6   9
TORSDOF 5
ENDMDL
MODEL 8
REMARK VINA RESULT:      -8.3      2.090      2.559
REMARK  5 active torsions:
REMARK  status: ('A' for Active; 'I' for Inactive)
REMARK    1  A    between atoms: C_6  and  O_7 
REMARK    2  A    between atoms: O_7  and  C_8 
REMARK    3  A    between atoms: C_12  and  C_13 
REMARK       I    between atoms: C_13  and  N_14 
REMARK    4  A    between atoms: N_14  and  C_15 
REMARK    5  A    between atoms: C_15  and  C_16 
ROOT
HETATM    1  C   UNL     1       8.181  22.669  52.639  1.00  0.00     0.002 A 
HETATM    2  C   UNL     1       8.372  21.961  53.827  1.00  0.00     0.025 A 
HETATM    3  C   UNL     1       7.827  22.439  55.026  1.00  0.00     0.078 A 
HETATM    4  C   UNL     1       8.045  21.697  56.235  1.00  0.00     0.102 C 
HETATM    5  N   UNL     1       8.244  21.081  57.198  1.00  0.00    -0.191 NA
HETATM    6  C   UNL     1       7.082  23.628  55.031  1.00  0.00     0.096 A 
HETATM    7  C   UNL     1       6.915  24.345  53.838  1.00  0.00     0.039 A 
HETATM    8  C   UNL     1       7.458  23.860  52.647  1.00  0.00     0.003 A 
ENDROOT
BRANCH   6   9
HETATM    9  O   UNL     1       6.587  24.053  56.249  1.00  0.00    -0.308 OA
BRANCH   9  10
HETATM   10  C   UNL     1       6.891  25.323  56.675  1.00  0.00     0.098 A 
HETATM   11  C   UNL     1       8.162  25.698  57.132  1.00  0.00     0.068 A 
HETATM   12 CL   UNL     1       9.468  24.574  57.236  1.00  0.00    -0.081 Cl
HETATM   13  C   UNL     1       8.415  27.027  57.486  1.00  0.00     0.044 A 
HETATM   14  C   UNL     1       7.402  27.986  57.358  1.00  0.00     0.033 A 
HETATM   15  C   UNL     1       6.145  27.615  56.862  1.00  0.00     0.020 A 
HETATM   16  C   UNL     1       5.891  26.286  56.523  1.00  0.00     0.040 A 
BRANCH  14  17
HETATM   17  C   UNL     1       7.647  29.418  57.666  1.00  0.00     0.251 C 
HETATM   18  N   UNL     1       6.632  30.081  58.319  1.00  0.00    -0.353 N 
HETATM   19  H   UNL     1       5.718  29.654  58.381  1.00  0.00     0.163 HD
HETATM   20  O   UNL     1       8.698  29.943  57.318  1.00  0.00    -0.268 OA
BRANCH  18  21
HETATM   21  C   UNL     1       6.729  31.493  58.622  1.00  0.00     0.161 C 
BRANCH  21  22
HETATM   22  C   UNL     1       5.392  32.174  58.521  1.00  0.00    -0.038 A 
HETATM   23  C   UNL     1       4.846  32.520  57.282  1.00  0.00     0.028 A 
HETATM   24  C   UNL     1       3.611  33.152  57.254  1.00  0.00     0.116 A 
HETATM   25  N   UNL     1       2.900  33.463  58.358  1.00  0.00    -0.273 NA
HETATM   26  C   UNL     1       3.446  33.127  59.545  1.00  0.00     0.116 A 
HETATM   27  C   UNL     1       4.671  32.493  59.676  1.00  0.00     0.028 A 
ENDBRANCH  21  22
ENDBRANCH  18  21
ENDBRANCH  14  17
ENDBRANCH   9  10
ENDBRANCH   6   9
TORSDOF 5
ENDMDL
MODEL 9
REMARK VINA RESULT:      -8.2      1.156      1.599
REMARK  5 active torsions:
REMARK  status: ('A' for Active; 'I' for Inactive)
REMARK    1  A    between atoms: C_6  and  O_7 
REMARK    2  A    between atoms: O_7  and  C_8 
REMARK    3  A    between atoms: C_12  and  C_13 
REMARK       I    between atoms: C_13  and  N_14 
REMARK    4  A    between atoms: N_14  and  C_15 
REMARK    5  A    between atoms: C_15  and  C_16 
ROOT
HETATM    1  C   UNL     1       7.944  24.468  52.239  1.00  0.00     0.002 A 
HETATM    2  C   UNL     1       8.172  23.645  53.343  1.00  0.00     0.025 A 
HETATM    3  C   UNL     1       7.513  23.892  54.555  1.00  0.00     0.078 A 
HETATM    4  C   UNL     1       7.772  23.035  55.676  1.00  0.00     0.102 C 
HETATM    5  N   UNL     1       8.007  22.332  56.569  1.00  0.00    -0.191 NA
HETATM    6  C   UNL     1       6.615  24.966  54.656  1.00  0.00     0.096 A 
HETATM    7  C   UNL     1       6.409  25.802  53.550  1.00  0.00     0.039 A 
HETATM    8  C   UNL     1       7.067  25.546  52.345  1.00  0.00     0.003 A 
ENDROOT
BRANCH   6   9
HETATM    9  O   UNL     1       6.011  25.164  55.882  1.00  0.00    -0.308 OA
BRANCH   9  10
HETATM   10  C   UNL     1       6.037  26.424  56.431  1.00  0.00     0.098 A 
HETATM   11  C   UNL     1       7.144  26.942  57.118  1.00  0.00     0.068 A 
HETATM   12 CL   UNL     1       8.581  26.018  57.371  1.00  0.00    -0.081 Cl
HETATM   13  C   UNL     1       7.121  28.258  57.590  1.00  0.00     0.044 A 
HETATM   14  C   UNL     1       6.001  29.063  57.353  1.00  0.00     0.033 A 
HETATM   15  C   UNL     1       4.913  28.555  56.631  1.00  0.00     0.020 A 
HETATM   16  C   UNL     1       4.932  27.238  56.172  1.00  0.00     0.040 A 
BRANCH  14  17
HETATM   17  C   UNL     1       5.962  30.483  57.786  1.00  0.00     0.251 C 
HETATM   18  N   UNL     1       6.901  30.860  58.720  1.00  0.00    -0.353 N 
HETATM   19  H   UNL     1       7.427  30.149  59.211  1.00  0.00     0.163 HD
HETATM   20  O   UNL     1       5.109  31.235  57.329  1.00  0.00    -0.268 OA
BRANCH  18  21
HETATM   21  C   UNL     1       6.927  32.200  59.263  1.00  0.00     0.161 C 
BRANCH  21  22
HETATM   22  C   UNL     1       7.026  32.189  60.764  1.00  0.00    -0.038 A 
HETATM   23  C   UNL     1       5.884  32.210  61.567  1.00  0.00     0.028 A 
HETATM   24  C   UNL     1       6.041  32.203  62.945  1.00  0.00     0.116 A 
HETATM   25  N   UNL     1       7.239  32.185  63.566  1.00  0.00    -0.273 NA
HETATM   26  C   UNL     1       8.331  32.170  62.774  1.00  0.00     0.116 A 
HETATM   27  C   UNL     1       8.277  32.173  61.390  1.00  0.00     0.028 A 
ENDBRANCH  21  22
ENDBRANCH  18  21
ENDBRANCH  14  17
ENDBRANCH   9  10
ENDBRANCH   6   9
TORSDOF 5
ENDMDL
MODEL 10
REMARK VINA RESULT:      -8.1      2.711      3.789
REMARK  5 active torsions:
REMARK  status: ('A' for Active; 'I' for Inactive)
REMARK    1  A    between atoms: C_6  and  O_7 
REMARK    2  A    between atoms: O_7  and  C_8 
REMARK    3  A    between atoms: C_12  and  C_13 
REMARK       I    between atoms: C_13  and  N_14 
REMARK    4  A    between atoms: N_14  and  C_15 
REMARK    5  A    between atoms: C_15  and  C_16 
ROOT
HETATM    1  C   UNL     1       8.432  22.495  52.723  1.00  0.00     0.002 A 
HETATM    2  C   UNL     1       8.688  21.765  53.885  1.00  0.00     0.025 A 
HETATM    3  C   UNL     1       8.078  22.129  55.094  1.00  0.00     0.078 A 
HETATM    4  C   UNL     1       8.365  21.367  56.275  1.00  0.00     0.102 C 
HETATM    5  N   UNL     1       8.622  20.738  57.217  1.00  0.00    -0.191 NA
HETATM    6  C   UNL     1       7.202  23.224  55.133  1.00  0.00     0.096 A 
HETATM    7  C   UNL     1       6.969  23.966  53.967  1.00  0.00     0.039 A 
HETATM    8  C   UNL     1       7.578  23.594  52.766  1.00  0.00     0.003 A 
ENDROOT
BRANCH   6   9
HETATM    9  O   UNL     1       6.648  23.539  56.359  1.00  0.00    -0.308 OA
BRANCH   9  10
HETATM   10  C   UNL     1       6.548  24.863  56.714  1.00  0.00     0.098 A 
HETATM   11  C   UNL     1       7.622  25.606  57.224  1.00  0.00     0.068 A 
HETATM   12 CL   UNL     1       9.178  24.906  57.490  1.00  0.00    -0.081 Cl
HETATM   13  C   UNL     1       7.462  26.968  57.500  1.00  0.00     0.044 A 
HETATM   14  C   UNL     1       6.235  27.591  57.240  1.00  0.00     0.033 A 
HETATM   15  C   UNL     1       5.177  26.855  56.693  1.00  0.00     0.020 A 
HETATM   16  C   UNL     1       5.334  25.493  56.431  1.00  0.00     0.040 A 
BRANCH  14  17
HETATM   17  C   UNL     1       6.044  29.047  57.463  1.00  0.00     0.251 C 
HETATM   18  N   UNL     1       4.773  29.446  57.812  1.00  0.00    -0.353 N 
HETATM   19  H   UNL     1       4.003  28.800  57.710  1.00  0.00     0.163 HD
HETATM   20  O   UNL     1       6.987  29.814  57.310  1.00  0.00    -0.268 OA
BRANCH  18  21
HETATM   21  C   UNL     1       4.448  30.844  57.999  1.00  0.00     0.161 C 
BRANCH  21  22
HETATM   22  C   UNL     1       4.050  31.498  56.704  1.00  0.00    -0.038 A 
HETATM   23  C   UNL     1       4.888  32.416  56.067  1.00  0.00     0.028 A 
HETATM   24  C   UNL     1       4.462  32.989  54.878  1.00  0.00     0.116 A 
HETATM   25  N   UNL     1       3.276  32.720  54.294  1.00  0.00    -0.273 NA
HETATM   26  C   UNL     1       2.477  31.836  54.928  1.00  0.00     0.116 A 
HETATM   27  C   UNL     1       2.814  31.209  56.116  1.00  0.00     0.028 A 
ENDBRANCH  21  22
ENDBRANCH  18  21
ENDBRANCH  14  17
ENDBRANCH   9  10
ENDBRANCH   6   9
TORSDOF 5
ENDMDL
