MODEL 1
REMARK VINA RESULT:      -8.6      0.000      0.000
REMARK  6 active torsions:
REMARK  status: ('A' for Active; 'I' for Inactive)
REMARK    1  A    between atoms: C_2  and  O_3 
REMARK    2  A    between atoms: O_3  and  C_4 
REMARK    3  A    between atoms: C_5  and  O_6 
REMARK    4  A    between atoms: C_10  and  C_11 
REMARK    5  A    between atoms: C_20  and  C_21 
REMARK       I    between atoms: C_21  and  N_22 
REMARK    6  A    between atoms: N_22  and  C_23 
ROOT
HETATM    1  C   UNL     1       6.654  27.686  52.426  1.00  0.00     0.202 C 
HETATM    2  N   UNL     1       5.776  28.533  51.612  1.00  0.00    -0.084 N 
HETATM    3  C   UNL     1       4.587  28.114  51.080  1.00  0.00     0.725 A 
HETATM    4  N   UNL     1       4.038  29.096  50.414  1.00  0.00    -0.054 NA
HETATM    5  C   UNL     1       4.961  30.103  50.541  1.00  0.00     0.275 A 
HETATM    6  N   UNL     1       6.053  29.804  51.256  1.00  0.00    -0.149 NA
HETATM    7  N   UNL     1       4.193  26.838  51.262  1.00  0.00    -0.192 N 
HETATM    8  C   UNL     1       5.017  25.866  51.822  1.00  0.00     0.037 C 
HETATM    9  C   UNL     1       4.551  24.442  51.636  1.00  0.00     0.070 C 
HETATM   10  C   UNL     1       6.185  26.232  52.409  1.00  0.00     0.062 C 
HETATM   11  H   UNL     1       3.379  26.520  50.741  1.00  0.00     0.184 HD
ENDROOT
BRANCH   1  12
HETATM   12  C   UNL     1       6.747  28.264  53.840  1.00  0.00    -0.024 A 
HETATM   13  C   UNL     1       5.580  28.729  54.474  1.00  0.00     0.031 A 
HETATM   14  C   UNL     1       5.628  29.214  55.782  1.00  0.00     0.047 A 
HETATM   15  C   UNL     1       6.844  29.245  56.463  1.00  0.00     0.116 A 
HETATM   16 BR   UNL     1       4.019  29.802  56.592  1.00  0.00    -0.048 Br
HETATM   17  C   UNL     1       8.021  28.799  55.848  1.00  0.00     0.103 A 
HETATM   18  C   UNL     1       7.969  28.306  54.542  1.00  0.00     0.049 A 
BRANCH  15  19
HETATM   19  O   UNL     1       6.907  29.708  57.753  1.00  0.00    -0.357 OA
HETATM   20  H   UNL     1       6.251  30.430  57.802  1.00  0.00     0.218 HD
ENDBRANCH  15  19
BRANCH  17  21
HETATM   21  O   UNL     1       9.145  28.887  56.632  1.00  0.00    -0.349 OA
BRANCH  21  22
HETATM   22  C   UNL     1      10.225  29.677  56.138  1.00  0.00     0.171 C 
HETATM   23  C   UNL     1      11.131  30.014  57.309  1.00  0.00     0.034 C 
ENDBRANCH  21  22
ENDBRANCH  17  21
ENDBRANCH   1  12
BRANCH  10  24
HETATM   24  C   UNL     1       7.185  25.276  52.962  1.00  0.00     0.256 C 
HETATM   25  N   UNL     1       6.725  24.554  54.041  1.00  0.00    -0.323 N 
HETATM   26  H   UNL     1       5.791  24.759  54.372  1.00  0.00     0.169 HD
HETATM   27  O   UNL     1       8.300  25.239  52.458  1.00  0.00    -0.267 OA
BRANCH  25  28
HETATM   28  C   UNL     1       7.390  23.506  54.712  1.00  0.00     0.035 A 
HETATM   29  C   UNL     1       7.652  22.257  54.145  1.00  0.00     0.029 A 
HETATM   30  C   UNL     1       8.290  21.260  54.889  1.00  0.00     0.002 A 
HETATM   31  C   UNL     1       8.668  21.499  56.207  1.00  0.00     0.000 A 
HETATM   32  C   UNL     1       8.414  22.741  56.783  1.00  0.00     0.002 A 
HETATM   33  C   UNL     1       7.784  23.742  56.037  1.00  0.00     0.029 A 
ENDBRANCH  25  28
ENDBRANCH  10  24
TORSDOF 6
ENDMDL
MODEL 2
REMARK VINA RESULT:      -8.3      1.431      2.464
REMARK  6 active torsions:
REMARK  status: ('A' for Active; 'I' for Inactive)
REMARK    1  A    between atoms: C_2  and  O_3 
REMARK    2  A    between atoms: O_3  and  C_4 
REMARK    3  A    between atoms: C_5  and  O_6 
REMARK    4  A    between atoms: C_10  and  C_11 
REMARK    5  A    between atoms: C_20  and  C_21 
REMARK       I    between atoms: C_21  and  N_22 
REMARK    6  A    between atoms: N_22  and  C_23 
ROOT
HETATM    1  C   UNL     1       6.654  27.616  52.748  1.00  0.00     0.202 C 
HETATM    2  N   UNL     1       5.784  28.514  51.981  1.00  0.00    -0.084 N 
HETATM    3  C   UNL     1       4.611  28.126  51.393  1.00  0.00     0.725 A 
HETATM    4  N   UNL     1       4.066  29.150  50.792  1.00  0.00    -0.054 NA
HETATM    5  C   UNL     1       4.974  30.153  51.016  1.00  0.00     0.275 A 
HETATM    6  N   UNL     1       6.054  29.812  51.730  1.00  0.00    -0.149 NA
HETATM    7  N   UNL     1       4.229  26.836  51.470  1.00  0.00    -0.192 N 
HETATM    8  C   UNL     1       5.052  25.831  51.972  1.00  0.00     0.037 C 
HETATM    9  C   UNL     1       4.606  24.422  51.668  1.00  0.00     0.070 C 
HETATM   10  C   UNL     1       6.203  26.163  52.611  1.00  0.00     0.062 C 
HETATM   11  H   UNL     1       3.430  26.550  50.908  1.00  0.00     0.184 HD
ENDROOT
BRANCH   1  12
HETATM   12  C   UNL     1       6.711  28.085  54.203  1.00  0.00    -0.024 A 
HETATM   13  C   UNL     1       7.955  28.403  54.778  1.00  0.00     0.031 A 
HETATM   14  C   UNL     1       8.031  28.883  56.088  1.00  0.00     0.047 A 
HETATM   15  C   UNL     1       6.864  29.041  56.833  1.00  0.00     0.116 A 
HETATM   16 BR   UNL     1       9.733  29.318  56.798  1.00  0.00    -0.048 Br
HETATM   17  C   UNL     1       5.614  28.719  56.287  1.00  0.00     0.103 A 
HETATM   18  C   UNL     1       5.541  28.248  54.974  1.00  0.00     0.049 A 
BRANCH  15  19
HETATM   19  O   UNL     1       6.919  29.520  58.118  1.00  0.00    -0.357 OA
HETATM   20  H   UNL     1       6.083  30.006  58.250  1.00  0.00     0.218 HD
ENDBRANCH  15  19
BRANCH  17  21
HETATM   21  O   UNL     1       4.551  28.921  57.131  1.00  0.00    -0.349 OA
BRANCH  21  22
HETATM   22  C   UNL     1       3.674  30.005  56.828  1.00  0.00     0.171 C 
HETATM   23  C   UNL     1       3.570  30.881  58.063  1.00  0.00     0.034 C 
ENDBRANCH  21  22
ENDBRANCH  17  21
ENDBRANCH   1  12
BRANCH  10  24
HETATM   24  C   UNL     1       7.201  25.177  53.111  1.00  0.00     0.256 C 
HETATM   25  N   UNL     1       6.739  24.398  54.149  1.00  0.00    -0.323 N 
HETATM   26  H   UNL     1       5.805  24.584  54.489  1.00  0.00     0.169 HD
HETATM   27  O   UNL     1       8.316  25.168  52.607  1.00  0.00    -0.267 OA
BRANCH  25  28
HETATM   28  C   UNL     1       7.403  23.313  54.761  1.00  0.00     0.035 A 
HETATM   29  C   UNL     1       7.671  22.100  54.124  1.00  0.00     0.029 A 
HETATM   30  C   UNL     1       8.308  21.063  54.812  1.00  0.00     0.002 A 
HETATM   31  C   UNL     1       8.677  21.225  56.145  1.00  0.00     0.000 A 
HETATM   32  C   UNL     1       8.417  22.432  56.790  1.00  0.00     0.002 A 
HETATM   33  C   UNL     1       7.788  23.472  56.100  1.00  0.00     0.029 A 
ENDBRANCH  25  28
ENDBRANCH  10  24
TORSDOF 6
ENDMDL
MODEL 3
REMARK VINA RESULT:      -8.3      2.856      5.572
REMARK  6 active torsions:
REMARK  status: ('A' for Active; 'I' for Inactive)
REMARK    1  A    between atoms: C_2  and  O_3 
REMARK    2  A    between atoms: O_3  and  C_4 
REMARK    3  A    between atoms: C_5  and  O_6 
REMARK    4  A    between atoms: C_10  and  C_11 
REMARK    5  A    between atoms: C_20  and  C_21 
REMARK       I    between atoms: C_21  and  N_22 
REMARK    6  A    between atoms: N_22  and  C_23 
ROOT
HETATM    1  C   UNL     1       5.326  27.843  53.718  1.00  0.00     0.202 C 
HETATM    2  N   UNL     1       4.682  28.970  54.400  1.00  0.00    -0.084 N 
HETATM    3  C   UNL     1       5.337  29.839  55.230  1.00  0.00     0.725 A 
HETATM    4  N   UNL     1       4.496  30.735  55.675  1.00  0.00    -0.054 NA
HETATM    5  C   UNL     1       3.310  30.346  55.106  1.00  0.00     0.275 A 
HETATM    6  N   UNL     1       3.367  29.260  54.325  1.00  0.00    -0.149 NA
HETATM    7  N   UNL     1       6.645  29.645  55.489  1.00  0.00    -0.192 N 
HETATM    8  C   UNL     1       7.334  28.502  55.093  1.00  0.00     0.037 C 
HETATM    9  C   UNL     1       8.675  28.296  55.755  1.00  0.00     0.070 C 
HETATM   10  C   UNL     1       6.750  27.632  54.230  1.00  0.00     0.062 C 
HETATM   11  H   UNL     1       7.069  30.220  56.214  1.00  0.00     0.184 HD
ENDROOT
BRANCH   1  12
HETATM   12  C   UNL     1       5.265  28.062  52.205  1.00  0.00    -0.024 A 
HETATM   13  C   UNL     1       5.571  29.330  51.679  1.00  0.00     0.031 A 
HETATM   14  C   UNL     1       5.572  29.546  50.299  1.00  0.00     0.047 A 
HETATM   15  C   UNL     1       5.261  28.496  49.437  1.00  0.00     0.116 A 
HETATM   16 BR   UNL     1       6.017  31.269  49.649  1.00  0.00    -0.048 Br
HETATM   17  C   UNL     1       4.941  27.227  49.938  1.00  0.00     0.103 A 
HETATM   18  C   UNL     1       4.949  27.013  51.318  1.00  0.00     0.049 A 
BRANCH  15  19
HETATM   19  O   UNL     1       5.268  28.687  48.078  1.00  0.00    -0.357 OA
HETATM   20  H   UNL     1       5.658  27.875  47.703  1.00  0.00     0.218 HD
ENDBRANCH  15  19
BRANCH  17  21
HETATM   21  O   UNL     1       4.654  26.288  48.978  1.00  0.00    -0.349 OA
BRANCH  21  22
HETATM   22  C   UNL     1       3.303  26.211  48.525  1.00  0.00     0.171 C 
HETATM   23  C   UNL     1       3.082  24.822  47.953  1.00  0.00     0.034 C 
ENDBRANCH  21  22
ENDBRANCH  17  21
ENDBRANCH   1  12
BRANCH  10  24
HETATM   24  C   UNL     1       7.353  26.337  53.805  1.00  0.00     0.256 C 
HETATM   25  N   UNL     1       7.007  25.274  54.608  1.00  0.00    -0.323 N 
HETATM   26  H   UNL     1       6.422  25.469  55.410  1.00  0.00     0.169 HD
HETATM   27  O   UNL     1       8.106  26.332  52.840  1.00  0.00    -0.267 OA
BRANCH  25  28
HETATM   28  C   UNL     1       7.328  23.914  54.407  1.00  0.00     0.035 A 
HETATM   29  C   UNL     1       7.519  23.333  53.153  1.00  0.00     0.029 A 
HETATM   30  C   UNL     1       7.804  21.969  53.038  1.00  0.00     0.002 A 
HETATM   31  C   UNL     1       7.895  21.172  54.176  1.00  0.00     0.000 A 
HETATM   32  C   UNL     1       7.709  21.740  55.434  1.00  0.00     0.002 A 
HETATM   33  C   UNL     1       7.432  23.106  55.549  1.00  0.00     0.029 A 
ENDBRANCH  25  28
ENDBRANCH  10  24
TORSDOF 6
ENDMDL
MODEL 4
REMARK VINA RESULT:      -8.0      4.252      6.648
REMARK  6 active torsions:
REMARK  status: ('A' for Active; 'I' for Inactive)
REMARK    1  A    between atoms: C_2  and  O_3 
REMARK    2  A    between atoms: O_3  and  C_4 
REMARK    3  A    between atoms: C_5  and  O_6 
REMARK    4  A    between atoms: C_10  and  C_11 
REMARK    5  A    between atoms: C_20  and  C_21 
REMARK       I    between atoms: C_21  and  N_22 
REMARK    6  A    between atoms: N_22  and  C_23 
ROOT
HETATM    1  C   UNL     1       7.615  30.034  58.592  1.00  0.00     0.202 C 
HETATM    2  N   UNL     1       8.017  31.044  59.577  1.00  0.00    -0.084 N 
HETATM    3  C   UNL     1       9.199  31.730  59.531  1.00  0.00     0.725 A 
HETATM    4  N   UNL     1       9.261  32.560  60.539  1.00  0.00    -0.054 NA
HETATM    5  C   UNL     1       8.086  32.317  61.204  1.00  0.00     0.275 A 
HETATM    6  N   UNL     1       7.292  31.385  60.663  1.00  0.00    -0.149 NA
HETATM    7  N   UNL     1      10.088  31.452  58.557  1.00  0.00    -0.192 N 
HETATM    8  C   UNL     1       9.943  30.374  57.687  1.00  0.00     0.037 C 
HETATM    9  C   UNL     1      11.179  30.011  56.900  1.00  0.00     0.070 C 
HETATM   10  C   UNL     1       8.771  29.690  57.655  1.00  0.00     0.062 C 
HETATM   11  H   UNL     1      11.010  31.875  58.629  1.00  0.00     0.184 HD
ENDROOT
BRANCH   1  12
HETATM   12  C   UNL     1       6.370  30.519  57.847  1.00  0.00    -0.024 A 
HETATM   13  C   UNL     1       6.051  31.889  57.855  1.00  0.00     0.031 A 
HETATM   14  C   UNL     1       4.949  32.366  57.142  1.00  0.00     0.047 A 
HETATM   15  C   UNL     1       4.156  31.476  56.421  1.00  0.00     0.116 A 
HETATM   16 BR   UNL     1       4.586  34.226  57.170  1.00  0.00    -0.048 Br
HETATM   17  C   UNL     1       4.446  30.105  56.408  1.00  0.00     0.103 A 
HETATM   18  C   UNL     1       5.553  29.632  57.116  1.00  0.00     0.049 A 
BRANCH  15  19
HETATM   19  O   UNL     1       3.076  31.929  55.706  1.00  0.00    -0.357 OA
HETATM   20  H   UNL     1       2.645  32.592  56.278  1.00  0.00     0.218 HD
ENDBRANCH  15  19
BRANCH  17  21
HETATM   21  O   UNL     1       3.582  29.344  55.660  1.00  0.00    -0.349 OA
BRANCH  21  22
HETATM   22  C   UNL     1       4.157  28.395  54.764  1.00  0.00     0.171 C 
HETATM   23  C   UNL     1       4.699  29.155  53.566  1.00  0.00     0.034 C 
ENDBRANCH  21  22
ENDBRANCH  17  21
ENDBRANCH   1  12
BRANCH  10  24
HETATM   24  C   UNL     1       8.531  28.472  56.831  1.00  0.00     0.256 C 
HETATM   25  N   UNL     1       8.331  27.330  57.575  1.00  0.00    -0.323 N 
HETATM   26  H   UNL     1       8.400  27.413  58.580  1.00  0.00     0.169 HD
HETATM   27  O   UNL     1       8.567  28.574  55.612  1.00  0.00    -0.267 OA
BRANCH  25  28
HETATM   28  C   UNL     1       7.978  26.051  57.094  1.00  0.00     0.035 A 
HETATM   29  C   UNL     1       8.773  24.913  57.240  1.00  0.00     0.029 A 
HETATM   30  C   UNL     1       8.364  23.687  56.706  1.00  0.00     0.002 A 
HETATM   31  C   UNL     1       7.158  23.588  56.017  1.00  0.00     0.000 A 
HETATM   32  C   UNL     1       6.355  24.716  55.866  1.00  0.00     0.002 A 
HETATM   33  C   UNL     1       6.760  25.940  56.407  1.00  0.00     0.029 A 
ENDBRANCH  25  28
ENDBRANCH  10  24
TORSDOF 6
ENDMDL
MODEL 5
REMARK VINA RESULT:      -8.0      3.235      7.216
REMARK  6 active torsions:
REMARK  status: ('A' for Active; 'I' for Inactive)
REMARK    1  A    between atoms: C_2  and  O_3 
REMARK    2  A    between atoms: O_3  and  C_4 
REMARK    3  A    between atoms: C_5  and  O_6 
REMARK    4  A    between atoms: C_10  and  C_11 
REMARK    5  A    between atoms: C_20  and  C_21 
REMARK       I    between atoms: C_21  and  N_22 
REMARK    6  A    between atoms: N_22  and  C_23 
ROOT
HETATM    1  C   UNL     1       7.345  29.065  55.533  1.00  0.00     0.202 C 
HETATM    2  N   UNL     1       8.419  29.465  56.448  1.00  0.00    -0.084 N 
HETATM    3  C   UNL     1       8.214  29.868  57.739  1.00  0.00     0.725 A 
HETATM    4  N   UNL     1       9.363  30.150  58.296  1.00  0.00    -0.054 NA
HETATM    5  C   UNL     1      10.255  29.931  57.277  1.00  0.00     0.275 A 
HETATM    6  N   UNL     1       9.726  29.522  56.117  1.00  0.00    -0.149 NA
HETATM    7  N   UNL     1       6.955  29.955  58.213  1.00  0.00    -0.192 N 
HETATM    8  C   UNL     1       5.831  29.821  57.402  1.00  0.00     0.037 C 
HETATM    9  C   UNL     1       4.534  30.283  58.018  1.00  0.00     0.070 C 
HETATM   10  C   UNL     1       5.972  29.374  56.127  1.00  0.00     0.062 C 
HETATM   11  H   UNL     1       6.827  30.389  59.124  1.00  0.00     0.184 HD
ENDROOT
BRANCH   1  12
HETATM   12  C   UNL     1       7.515  27.589  55.166  1.00  0.00    -0.024 A 
HETATM   13  C   UNL     1       7.799  26.654  56.178  1.00  0.00     0.031 A 
HETATM   14  C   UNL     1       7.908  25.295  55.879  1.00  0.00     0.047 A 
HETATM   15  C   UNL     1       7.742  24.862  54.565  1.00  0.00     0.116 A 
HETATM   16 BR   UNL     1       8.267  24.081  57.289  1.00  0.00    -0.048 Br
HETATM   17  C   UNL     1       7.470  25.775  53.537  1.00  0.00     0.103 A 
HETATM   18  C   UNL     1       7.353  27.133  53.841  1.00  0.00     0.049 A 
BRANCH  15  19
HETATM   19  O   UNL     1       7.836  23.528  54.255  1.00  0.00    -0.357 OA
HETATM   20  H   UNL     1       7.222  23.391  53.508  1.00  0.00     0.218 HD
ENDBRANCH  15  19
BRANCH  17  21
HETATM   21  O   UNL     1       7.332  25.213  52.292  1.00  0.00    -0.349 OA
BRANCH  21  22
HETATM   22  C   UNL     1       6.218  25.634  51.507  1.00  0.00     0.171 C 
HETATM   23  C   UNL     1       4.969  24.994  52.087  1.00  0.00     0.034 C 
ENDBRANCH  21  22
ENDBRANCH  17  21
ENDBRANCH   1  12
BRANCH  10  24
HETATM   24  C   UNL     1       4.858  29.273  55.144  1.00  0.00     0.256 C 
HETATM   25  N   UNL     1       5.055  30.020  54.004  1.00  0.00    -0.323 N 
HETATM   26  H   UNL     1       5.895  30.581  53.956  1.00  0.00     0.169 HD
HETATM   27  O   UNL     1       3.883  28.593  55.434  1.00  0.00    -0.267 OA
BRANCH  25  28
HETATM   28  C   UNL     1       4.238  30.049  52.853  1.00  0.00     0.035 A 
HETATM   29  C   UNL     1       3.388  31.106  52.524  1.00  0.00     0.029 A 
HETATM   30  C   UNL     1       2.587  31.043  51.379  1.00  0.00     0.002 A 
HETATM   31  C   UNL     1       2.626  29.921  50.555  1.00  0.00     0.000 A 
HETATM   32  C   UNL     1       3.473  28.862  50.871  1.00  0.00     0.002 A 
HETATM   33  C   UNL     1       4.279  28.928  52.011  1.00  0.00     0.029 A 
ENDBRANCH  25  28
ENDBRANCH  10  24
TORSDOF 6
ENDMDL
MODEL 6
REMARK VINA RESULT:      -7.8      1.860      5.654
REMARK  6 active torsions:
REMARK  status: ('A' for Active; 'I' for Inactive)
REMARK    1  A    between atoms: C_2  and  O_3 
REMARK    2  A    between atoms: O_3  and  C_4 
REMARK    3  A    between atoms: C_5  and  O_6 
REMARK    4  A    between atoms: C_10  and  C_11 
REMARK    5  A    between atoms: C_20  and  C_21 
REMARK       I    between atoms: C_21  and  N_22 
REMARK    6  A    between atoms: N_22  and  C_23 
ROOT
HETATM    1  C   UNL     1       6.269  25.493  55.185  1.00  0.00     0.202 C 
HETATM    2  N   UNL     1       7.289  24.740  55.922  1.00  0.00    -0.084 N 
HETATM    3  C   UNL     1       8.349  24.108  55.332  1.00  0.00     0.725 A 
HETATM    4  N   UNL     1       9.081  23.533  56.251  1.00  0.00    -0.054 NA
HETATM    5  C   UNL     1       8.397  23.819  57.405  1.00  0.00     0.275 A 
HETATM    6  N   UNL     1       7.282  24.545  57.257  1.00  0.00    -0.149 NA
HETATM    7  N   UNL     1       8.465  24.124  53.989  1.00  0.00    -0.192 N 
HETATM    8  C   UNL     1       7.465  24.608  53.150  1.00  0.00     0.037 C 
HETATM    9  C   UNL     1       7.612  24.238  51.694  1.00  0.00     0.070 C 
HETATM   10  C   UNL     1       6.415  25.288  53.678  1.00  0.00     0.062 C 
HETATM   11  H   UNL     1       9.181  23.532  53.574  1.00  0.00     0.184 HD
ENDROOT
BRANCH   1  12
HETATM   12  C   UNL     1       6.332  26.966  55.593  1.00  0.00    -0.024 A 
HETATM   13  C   UNL     1       5.141  27.651  55.893  1.00  0.00     0.031 A 
HETATM   14  C   UNL     1       5.174  28.981  56.317  1.00  0.00     0.047 A 
HETATM   15  C   UNL     1       6.397  29.637  56.438  1.00  0.00     0.116 A 
HETATM   16 BR   UNL     1       3.537  29.843  56.730  1.00  0.00    -0.048 Br
HETATM   17  C   UNL     1       7.597  28.979  56.134  1.00  0.00     0.103 A 
HETATM   18  C   UNL     1       7.561  27.646  55.718  1.00  0.00     0.049 A 
BRANCH  15  19
HETATM   19  O   UNL     1       6.449  30.940  56.864  1.00  0.00    -0.357 OA
HETATM   20  H   UNL     1       5.522  31.247  56.875  1.00  0.00     0.218 HD
ENDBRANCH  15  19
BRANCH  17  21
HETATM   21  O   UNL     1       8.726  29.743  56.295  1.00  0.00    -0.349 OA
BRANCH  21  22
HETATM   22  C   UNL     1       9.581  29.420  57.390  1.00  0.00     0.171 C 
HETATM   23  C   UNL     1      11.012  29.691  56.961  1.00  0.00     0.034 C 
ENDBRANCH  21  22
ENDBRANCH  17  21
ENDBRANCH   1  12
BRANCH  10  24
HETATM   24  C   UNL     1       5.247  25.774  52.892  1.00  0.00     0.256 C 
HETATM   25  N   UNL     1       5.459  26.988  52.277  1.00  0.00    -0.323 N 
HETATM   26  H   UNL     1       6.349  27.441  52.439  1.00  0.00     0.169 HD
HETATM   27  O   UNL     1       4.224  25.103  52.890  1.00  0.00    -0.267 OA
BRANCH  25  28
HETATM   28  C   UNL     1       4.592  27.655  51.385  1.00  0.00     0.035 A 
HETATM   29  C   UNL     1       3.691  28.649  51.768  1.00  0.00     0.029 A 
HETATM   30  C   UNL     1       2.842  29.239  50.826  1.00  0.00     0.002 A 
HETATM   31  C   UNL     1       2.883  28.837  49.493  1.00  0.00     0.000 A 
HETATM   32  C   UNL     1       3.780  27.847  49.099  1.00  0.00     0.002 A 
HETATM   33  C   UNL     1       4.634  27.263  50.040  1.00  0.00     0.029 A 
ENDBRANCH  25  28
ENDBRANCH  10  24
TORSDOF 6
ENDMDL
MODEL 7
REMARK VINA RESULT:      -7.8      3.043      5.221
REMARK  6 active torsions:
REMARK  status: ('A' for Active; 'I' for Inactive)
REMARK    1  A    between atoms: C_2  and  O_3 
REMARK    2  A    between atoms: O_3  and  C_4 
REMARK    3  A    between atoms: C_5  and  O_6 
REMARK    4  A    between atoms: C_10  and  C_11 
REMARK    5  A    between atoms: C_20  and  C_21 
REMARK       I    between atoms: C_21  and  N_22 
REMARK    6  A    between atoms: N_22  and  C_23 
ROOT
HETATM    1  C   UNL     1       5.359  28.020  53.677  1.00  0.00     0.202 C 
HETATM    2  N   UNL     1       4.639  29.106  54.349  1.00  0.00    -0.084 N 
HETATM    3  C   UNL     1       5.216  29.974  55.236  1.00  0.00     0.725 A 
HETATM    4  N   UNL     1       4.319  30.828  55.655  1.00  0.00    -0.054 NA
HETATM    5  C   UNL     1       3.181  30.415  55.011  1.00  0.00     0.275 A 
HETATM    6  N   UNL     1       3.320  29.353  54.208  1.00  0.00    -0.149 NA
HETATM    7  N   UNL     1       6.513  29.819  55.563  1.00  0.00    -0.192 N 
HETATM    8  C   UNL     1       7.263  28.711  55.178  1.00  0.00     0.037 C 
HETATM    9  C   UNL     1       8.572  28.533  55.909  1.00  0.00     0.070 C 
HETATM   10  C   UNL     1       6.759  27.844  54.262  1.00  0.00     0.062 C 
HETATM   11  H   UNL     1       6.876  30.388  56.325  1.00  0.00     0.184 HD
ENDROOT
BRANCH   1  12
HETATM   12  C   UNL     1       5.373  28.278  52.169  1.00  0.00    -0.024 A 
HETATM   13  C   UNL     1       4.863  27.300  51.296  1.00  0.00     0.031 A 
HETATM   14  C   UNL     1       4.817  27.530  49.920  1.00  0.00     0.047 A 
HETATM   15  C   UNL     1       5.287  28.737  49.406  1.00  0.00     0.116 A 
HETATM   16 BR   UNL     1       4.095  26.184  48.798  1.00  0.00    -0.048 Br
HETATM   17  C   UNL     1       5.811  29.722  50.254  1.00  0.00     0.103 A 
HETATM   18  C   UNL     1       5.848  29.492  51.631  1.00  0.00     0.049 A 
BRANCH  15  19
HETATM   19  O   UNL     1       5.239  28.984  48.057  1.00  0.00    -0.357 OA
HETATM   20  H   UNL     1       5.998  28.501  47.677  1.00  0.00     0.218 HD
ENDBRANCH  15  19
BRANCH  17  21
HETATM   21  O   UNL     1       6.239  30.859  49.615  1.00  0.00    -0.349 OA
BRANCH  21  22
HETATM   22  C   UNL     1       5.550  32.073  49.912  1.00  0.00     0.171 C 
HETATM   23  C   UNL     1       6.190  33.184  49.099  1.00  0.00     0.034 C 
ENDBRANCH  21  22
ENDBRANCH  17  21
ENDBRANCH   1  12
BRANCH  10  24
HETATM   24  C   UNL     1       7.430  26.583  53.839  1.00  0.00     0.256 C 
HETATM   25  N   UNL     1       7.205  25.523  54.689  1.00  0.00    -0.323 N 
HETATM   26  H   UNL     1       6.650  25.701  55.516  1.00  0.00     0.169 HD
HETATM   27  O   UNL     1       8.129  26.602  52.835  1.00  0.00    -0.267 OA
BRANCH  25  28
HETATM   28  C   UNL     1       7.611  24.184  54.507  1.00  0.00     0.035 A 
HETATM   29  C   UNL     1       8.425  23.485  55.400  1.00  0.00     0.029 A 
HETATM   30  C   UNL     1       8.809  22.168  55.130  1.00  0.00     0.002 A 
HETATM   31  C   UNL     1       8.387  21.538  53.962  1.00  0.00     0.000 A 
HETATM   32  C   UNL     1       7.573  22.224  53.064  1.00  0.00     0.002 A 
HETATM   33  C   UNL     1       7.182  23.538  53.338  1.00  0.00     0.029 A 
ENDBRANCH  25  28
ENDBRANCH  10  24
TORSDOF 6
ENDMDL
MODEL 8
REMARK VINA RESULT:      -7.8      3.812      6.055
REMARK  6 active torsions:
REMARK  status: ('A' for Active; 'I' for Inactive)
REMARK    1  A    between atoms: C_2  and  O_3 
REMARK    2  A    between atoms: O_3  and  C_4 
REMARK    3  A    between atoms: C_5  and  O_6 
REMARK    4  A    between atoms: C_10  and  C_11 
REMARK    5  A    between atoms: C_20  and  C_21 
REMARK       I    between atoms: C_21  and  N_22 
REMARK    6  A    between atoms: N_22  and  C_23 
ROOT
HETATM    1  C   UNL     1       5.365  29.496  57.339  1.00  0.00     0.202 C 
HETATM    2  N   UNL     1       4.803  30.583  58.147  1.00  0.00    -0.084 N 
HETATM    3  C   UNL     1       5.545  31.594  58.693  1.00  0.00     0.725 A 
HETATM    4  N   UNL     1       4.759  32.407  59.349  1.00  0.00    -0.054 NA
HETATM    5  C   UNL     1       3.526  31.823  59.200  1.00  0.00     0.275 A 
HETATM    6  N   UNL     1       3.501  30.693  58.482  1.00  0.00    -0.149 NA
HETATM    7  N   UNL     1       6.883  31.593  58.532  1.00  0.00    -0.192 N 
HETATM    8  C   UNL     1       7.578  30.520  57.981  1.00  0.00     0.037 C 
HETATM    9  C   UNL     1       9.072  30.544  58.191  1.00  0.00     0.070 C 
HETATM   10  C   UNL     1       6.892  29.514  57.380  1.00  0.00     0.062 C 
HETATM   11  H   UNL     1       7.419  32.276  59.063  1.00  0.00     0.184 HD
ENDROOT
BRANCH   1  12
HETATM   12  C   UNL     1       4.808  29.581  55.916  1.00  0.00    -0.024 A 
HETATM   13  C   UNL     1       4.571  30.843  55.343  1.00  0.00     0.031 A 
HETATM   14  C   UNL     1       4.110  30.952  54.029  1.00  0.00     0.047 A 
HETATM   15  C   UNL     1       3.878  29.798  53.282  1.00  0.00     0.116 A 
HETATM   16 BR   UNL     1       3.833  32.680  53.303  1.00  0.00    -0.048 Br
HETATM   17  C   UNL     1       4.096  28.529  53.835  1.00  0.00     0.103 A 
HETATM   18  C   UNL     1       4.564  28.425  55.147  1.00  0.00     0.049 A 
BRANCH  15  19
HETATM   19  O   UNL     1       3.436  29.886  51.986  1.00  0.00    -0.357 OA
HETATM   20  H   UNL     1       4.236  29.804  51.432  1.00  0.00     0.218 HD
ENDBRANCH  15  19
BRANCH  17  21
HETATM   21  O   UNL     1       3.826  27.482  52.990  1.00  0.00    -0.349 OA
BRANCH  21  22
HETATM   22  C   UNL     1       4.935  26.707  52.536  1.00  0.00     0.171 C 
HETATM   23  C   UNL     1       4.682  25.261  52.923  1.00  0.00     0.034 C 
ENDBRANCH  21  22
ENDBRANCH  17  21
ENDBRANCH   1  12
BRANCH  10  24
HETATM   24  C   UNL     1       7.519  28.278  56.834  1.00  0.00     0.256 C 
HETATM   25  N   UNL     1       7.084  27.120  57.439  1.00  0.00    -0.323 N 
HETATM   26  H   UNL     1       6.424  27.215  58.201  1.00  0.00     0.169 HD
HETATM   27  O   UNL     1       8.364  28.390  55.955  1.00  0.00    -0.267 OA
BRANCH  25  28
HETATM   28  C   UNL     1       7.407  25.795  57.078  1.00  0.00     0.035 A 
HETATM   29  C   UNL     1       8.501  25.092  57.584  1.00  0.00     0.029 A 
HETATM   30  C   UNL     1       8.771  23.790  57.149  1.00  0.00     0.002 A 
HETATM   31  C   UNL     1       7.952  23.182  56.201  1.00  0.00     0.000 A 
HETATM   32  C   UNL     1       6.856  23.873  55.691  1.00  0.00     0.002 A 
HETATM   33  C   UNL     1       6.582  25.171  56.131  1.00  0.00     0.029 A 
ENDBRANCH  25  28
ENDBRANCH  10  24
TORSDOF 6
ENDMDL
MODEL 9
REMARK VINA RESULT:      -7.7      2.715      3.351
REMARK  6 active torsions:
REMARK  status: ('A' for Active; 'I' for Inactive)
REMARK    1  A    between atoms: C_2  and  O_3 
REMARK    2  A    between atoms: O_3  and  C_4 
REMARK    3  A    between atoms: C_5  and  O_6 
REMARK    4  A    between atoms: C_10  and  C_11 
REMARK    5  A    between atoms: C_20  and  C_21 
REMARK       I    between atoms: C_21  and  N_22 
REMARK    6  A    between atoms: N_22  and  C_23 
ROOT
HETATM    1  C   UNL     1       5.677  28.124  51.529  1.00  0.00     0.202 C 
HETATM    2  N   UNL     1       5.545  29.232  50.577  1.00  0.00    -0.084 N 
HETATM    3  C   UNL     1       4.822  29.163  49.417  1.00  0.00     0.725 A 
HETATM    4  N   UNL     1       4.893  30.308  48.791  1.00  0.00    -0.054 NA
HETATM    5  C   UNL     1       5.712  31.049  49.604  1.00  0.00     0.275 A 
HETATM    6  N   UNL     1       6.151  30.430  50.707  1.00  0.00    -0.149 NA
HETATM    7  N   UNL     1       4.219  28.005  49.082  1.00  0.00    -0.192 N 
HETATM    8  C   UNL     1       4.433  26.814  49.771  1.00  0.00     0.037 C 
HETATM    9  C   UNL     1       3.960  25.568  49.063  1.00  0.00     0.070 C 
HETATM   10  C   UNL     1       5.101  26.832  50.953  1.00  0.00     0.062 C 
HETATM   11  H   UNL     1       3.808  27.943  48.154  1.00  0.00     0.184 HD
ENDROOT
BRANCH   1  12
HETATM   12  C   UNL     1       5.034  28.520  52.860  1.00  0.00    -0.024 A 
HETATM   13  C   UNL     1       5.300  27.756  54.010  1.00  0.00     0.031 A 
HETATM   14  C   UNL     1       4.767  28.124  55.247  1.00  0.00     0.047 A 
HETATM   15  C   UNL     1       3.959  29.255  55.341  1.00  0.00     0.116 A 
HETATM   16 BR   UNL     1       5.182  27.069  56.765  1.00  0.00    -0.048 Br
HETATM   17  C   UNL     1       3.669  30.026  54.207  1.00  0.00     0.103 A 
HETATM   18  C   UNL     1       4.210  29.660  52.973  1.00  0.00     0.049 A 
BRANCH  15  19
HETATM   19  O   UNL     1       3.435  29.638  56.550  1.00  0.00    -0.357 OA
HETATM   20  H   UNL     1       2.954  30.468  56.374  1.00  0.00     0.218 HD
ENDBRANCH  15  19
BRANCH  17  21
HETATM   21  O   UNL     1       2.860  31.110  54.443  1.00  0.00    -0.349 OA
BRANCH  21  22
HETATM   22  C   UNL     1       3.300  32.373  53.944  1.00  0.00     0.171 C 
HETATM   23  C   UNL     1       4.437  32.852  54.829  1.00  0.00     0.034 C 
ENDBRANCH  21  22
ENDBRANCH  17  21
ENDBRANCH   1  12
BRANCH  10  24
HETATM   24  C   UNL     1       5.464  25.616  51.733  1.00  0.00     0.256 C 
HETATM   25  N   UNL     1       6.795  25.558  52.082  1.00  0.00    -0.323 N 
HETATM   26  H   UNL     1       7.393  26.306  51.757  1.00  0.00     0.169 HD
HETATM   27  O   UNL     1       4.594  24.784  51.955  1.00  0.00    -0.267 OA
BRANCH  25  28
HETATM   28  C   UNL     1       7.419  24.594  52.904  1.00  0.00     0.035 A 
HETATM   29  C   UNL     1       7.813  23.330  52.465  1.00  0.00     0.029 A 
HETATM   30  C   UNL     1       8.397  22.421  53.352  1.00  0.00     0.002 A 
HETATM   31  C   UNL     1       8.589  22.766  54.687  1.00  0.00     0.000 A 
HETATM   32  C   UNL     1       8.202  24.026  55.136  1.00  0.00     0.002 A 
HETATM   33  C   UNL     1       7.625  24.938  54.247  1.00  0.00     0.029 A 
ENDBRANCH  25  28
ENDBRANCH  10  24
TORSDOF 6
ENDMDL
MODEL 10
REMARK VINA RESULT:      -7.7      2.330      6.196
REMARK  6 active torsions:
REMARK  status: ('A' for Active; 'I' for Inactive)
REMARK    1  A    between atoms: C_2  and  O_3 
REMARK    2  A    between atoms: O_3  and  C_4 
REMARK    3  A    between atoms: C_5  and  O_6 
REMARK    4  A    between atoms: C_10  and  C_11 
REMARK    5  A    between atoms: C_20  and  C_21 
REMARK       I    between atoms: C_21  and  N_22 
REMARK    6  A    between atoms: N_22  and  C_23 
ROOT
HETATM    1  C   UNL     1       6.341  25.508  55.410  1.00  0.00     0.202 C 
HETATM    2  N   UNL     1       7.316  24.545  55.933  1.00  0.00    -0.084 N 
HETATM    3  C   UNL     1       8.300  23.966  55.179  1.00  0.00     0.725 A 
HETATM    4  N   UNL     1       9.007  23.162  55.930  1.00  0.00    -0.054 NA
HETATM    5  C   UNL     1       8.385  23.259  57.148  1.00  0.00     0.275 A 
HETATM    6  N   UNL     1       7.332  24.084  57.201  1.00  0.00    -0.149 NA
HETATM    7  N   UNL     1       8.376  24.246  53.863  1.00  0.00    -0.192 N 
HETATM    8  C   UNL     1       7.396  24.966  53.185  1.00  0.00     0.037 C 
HETATM    9  C   UNL     1       7.467  24.890  51.680  1.00  0.00     0.070 C 
HETATM   10  C   UNL     1       6.424  25.603  53.887  1.00  0.00     0.062 C 
HETATM   11  H   UNL     1       9.026  23.698  53.305  1.00  0.00     0.184 HD
ENDROOT
BRANCH   1  12
HETATM   12  C   UNL     1       6.542  26.858  56.101  1.00  0.00    -0.024 A 
HETATM   13  C   UNL     1       7.840  27.387  56.219  1.00  0.00     0.031 A 
HETATM   14  C   UNL     1       8.046  28.640  56.800  1.00  0.00     0.047 A 
HETATM   15  C   UNL     1       6.957  29.370  57.273  1.00  0.00     0.116 A 
HETATM   16 BR   UNL     1       9.816  29.310  56.908  1.00  0.00    -0.048 Br
HETATM   17  C   UNL     1       5.656  28.859  57.177  1.00  0.00     0.103 A 
HETATM   18  C   UNL     1       5.451  27.609  56.588  1.00  0.00     0.049 A 
BRANCH  15  19
HETATM   19  O   UNL     1       7.141  30.607  57.836  1.00  0.00    -0.357 OA
HETATM   20  H   UNL     1       6.901  30.503  58.777  1.00  0.00     0.218 HD
ENDBRANCH  15  19
BRANCH  17  21
HETATM   21  O   UNL     1       4.679  29.681  57.683  1.00  0.00    -0.349 OA
BRANCH  21  22
HETATM   22  C   UNL     1       3.646  30.092  56.789  1.00  0.00     0.171 C 
HETATM   23  C   UNL     1       4.019  31.459  56.244  1.00  0.00     0.034 C 
ENDBRANCH  21  22
ENDBRANCH  17  21
ENDBRANCH   1  12
BRANCH  10  24
HETATM   24  C   UNL     1       5.278  26.328  53.270  1.00  0.00     0.256 C 
HETATM   25  N   UNL     1       5.560  27.636  52.944  1.00  0.00    -0.323 N 
HETATM   26  H   UNL     1       6.480  27.985  53.179  1.00  0.00     0.169 HD
HETATM   27  O   UNL     1       4.213  25.738  53.145  1.00  0.00    -0.267 OA
BRANCH  25  28
HETATM   28  C   UNL     1       4.724  28.541  52.256  1.00  0.00     0.035 A 
HETATM   29  C   UNL     1       4.497  28.504  50.879  1.00  0.00     0.029 A 
HETATM   30  C   UNL     1       3.678  29.459  50.269  1.00  0.00     0.002 A 
HETATM   31  C   UNL     1       3.083  30.463  51.028  1.00  0.00     0.000 A 
HETATM   32  C   UNL     1       3.300  30.509  52.403  1.00  0.00     0.002 A 
HETATM   33  C   UNL     1       4.112  29.549  53.015  1.00  0.00     0.029 A 
ENDBRANCH  25  28
ENDBRANCH  10  24
TORSDOF 6
ENDMDL
