MODEL 1
REMARK VINA RESULT:     -10.4      0.000      0.000
REMARK  6 active torsions:
REMARK  status: ('A' for Active; 'I' for Inactive)
REMARK    1  A    between atoms: C_3  and  N_4 
REMARK    2  A    between atoms: N_4  and  C_5 
REMARK    3  A    between atoms: C_12  and  C_13 
REMARK       I    between atoms: C_13  and  N_14 
REMARK    4  A    between atoms: N_14  and  C_15 
REMARK    5  A    between atoms: C_15  and  C_16 
REMARK    6  A    between atoms: C_16  and  C_17 
ROOT
HETATM    1  C   UNL     1       8.066  27.648  57.240  1.00  0.00     0.251 C 
HETATM    2  N   UNL     1       7.740  27.383  55.923  1.00  0.00    -0.357 N 
HETATM    3  O   UNL     1       7.694  26.942  58.173  1.00  0.00    -0.268 OA
HETATM    4  H   UNL     1       7.831  28.129  55.244  1.00  0.00     0.162 HD
ENDROOT
BRANCH   1   5
HETATM    5  C   UNL     1       8.869  28.874  57.511  1.00  0.00     0.034 A 
HETATM    6  C   UNL     1       8.416  29.901  58.354  1.00  0.00     0.047 A 
HETATM    7  C   UNL     1       9.197  31.039  58.591  1.00  0.00     0.050 A 
HETATM    8  C   UNL     1      10.440  31.132  57.941  1.00  0.00     0.030 A 
HETATM    9  C   UNL     1      10.893  30.125  57.087  1.00  0.00     0.003 A 
HETATM   10  C   UNL     1      10.108  28.998  56.872  1.00  0.00     0.017 A 
BRANCH   7  11
HETATM   11  N   UNL     1       8.806  32.095  59.422  1.00  0.00    -0.188 N 
HETATM   12  H   UNL     1       9.020  33.031  59.110  1.00  0.00     0.184 HD
BRANCH  11  13
HETATM   13  C   UNL     1       8.209  32.175  60.675  1.00  0.00     0.726 A 
HETATM   14  N   UNL     1       8.902  31.993  61.809  1.00  0.00    -0.075 NA
HETATM   15  C   UNL     1       8.225  32.085  62.969  1.00  0.00     0.138 A 
HETATM   16  C   UNL     1       6.884  32.362  63.046  1.00  0.00     0.040 A 
HETATM   17  C   UNL     1       6.258  32.535  61.840  1.00  0.00     0.138 A 
HETATM   18  N   UNL     1       6.892  32.446  60.654  1.00  0.00    -0.075 NA
ENDBRANCH  11  13
ENDBRANCH   7  11
ENDBRANCH   1   5
BRANCH   2  19
HETATM   19  C   UNL     1       6.812  26.311  55.609  1.00  0.00     0.127 C 
BRANCH  19  20
HETATM   20  C   UNL     1       7.426  25.218  54.733  1.00  0.00     0.060 C 
BRANCH  20  21
HETATM   21  C   UNL     1       7.817  23.979  55.482  1.00  0.00    -0.029 A 
HETATM   22  C   UNL     1       8.073  22.681  54.929  1.00  0.00     0.001 A 
HETATM   23  C   UNL     1       8.442  21.840  55.983  1.00  0.00     0.043 A 
HETATM   24  C   UNL     1       8.036  22.145  53.627  1.00  0.00     0.056 A 
HETATM   25  C   UNL     1       8.778  20.492  55.802  1.00  0.00     0.033 A 
HETATM   26  N   UNL     1       8.405  22.593  57.132  1.00  0.00    -0.365 N 
HETATM   27  C   UNL     1       8.737  19.986  54.501  1.00  0.00     0.044 A 
HETATM   28  C   UNL     1       8.372  20.803  53.441  1.00  0.00     0.117 A 
HETATM   29  F   UNL     1       8.328  20.287  52.204  1.00  0.00    -0.206 F 
HETATM   30  H   UNL     1       8.630  22.246  58.055  1.00  0.00     0.165 HD
HETATM   31  C   UNL     1       8.042  23.880  56.842  1.00  0.00     0.096 A 
ENDBRANCH  20  21
ENDBRANCH  19  20
ENDBRANCH   2  19
TORSDOF 6
ENDMDL
MODEL 2
REMARK VINA RESULT:     -10.1      1.732      2.085
REMARK  6 active torsions:
REMARK  status: ('A' for Active; 'I' for Inactive)
REMARK    1  A    between atoms: C_3  and  N_4 
REMARK    2  A    between atoms: N_4  and  C_5 
REMARK    3  A    between atoms: C_12  and  C_13 
REMARK       I    between atoms: C_13  and  N_14 
REMARK    4  A    between atoms: N_14  and  C_15 
REMARK    5  A    between atoms: C_15  and  C_16 
REMARK    6  A    between atoms: C_16  and  C_17 
ROOT
HETATM    1  C   UNL     1       8.286  28.760  56.178  1.00  0.00     0.251 C 
HETATM    2  N   UNL     1       7.387  27.753  56.476  1.00  0.00    -0.357 N 
HETATM    3  O   UNL     1       8.712  28.959  55.044  1.00  0.00    -0.268 OA
HETATM    4  H   UNL     1       7.289  27.464  57.441  1.00  0.00     0.162 HD
ENDROOT
BRANCH   1   5
HETATM    5  C   UNL     1       8.772  29.598  57.310  1.00  0.00     0.034 A 
HETATM    6  C   UNL     1       8.123  29.632  58.555  1.00  0.00     0.047 A 
HETATM    7  C   UNL     1       8.607  30.428  59.601  1.00  0.00     0.050 A 
HETATM    8  C   UNL     1       9.752  31.208  59.360  1.00  0.00     0.030 A 
HETATM    9  C   UNL     1      10.395  31.195  58.121  1.00  0.00     0.003 A 
HETATM   10  C   UNL     1       9.905  30.391  57.098  1.00  0.00     0.017 A 
BRANCH   7  11
HETATM   11  N   UNL     1       8.011  30.504  60.865  1.00  0.00    -0.188 N 
HETATM   12  H   UNL     1       7.694  29.639  61.278  1.00  0.00     0.184 HD
BRANCH  11  13
HETATM   13  C   UNL     1       7.679  31.548  61.721  1.00  0.00     0.726 A 
HETATM   14  N   UNL     1       8.208  31.660  62.949  1.00  0.00    -0.075 NA
HETATM   15  C   UNL     1       7.811  32.706  63.699  1.00  0.00     0.138 A 
HETATM   16  C   UNL     1       6.915  33.652  63.271  1.00  0.00     0.040 A 
HETATM   17  C   UNL     1       6.430  33.458  62.005  1.00  0.00     0.138 A 
HETATM   18  N   UNL     1       6.790  32.425  61.220  1.00  0.00    -0.075 NA
ENDBRANCH  11  13
ENDBRANCH   7  11
ENDBRANCH   1   5
BRANCH   2  19
HETATM   19  C   UNL     1       7.013  26.790  55.454  1.00  0.00     0.127 C 
BRANCH  19  20
HETATM   20  C   UNL     1       7.367  25.349  55.823  1.00  0.00     0.060 C 
BRANCH  20  21
HETATM   21  C   UNL     1       7.631  24.461  54.643  1.00  0.00    -0.029 A 
HETATM   22  C   UNL     1       7.767  23.034  54.651  1.00  0.00     0.001 A 
HETATM   23  C   UNL     1       7.966  22.623  53.330  1.00  0.00     0.043 A 
HETATM   24  C   UNL     1       7.728  22.050  55.659  1.00  0.00     0.056 A 
HETATM   25  C   UNL     1       8.125  21.281  52.964  1.00  0.00     0.033 A 
HETATM   26  N   UNL     1       7.959  23.755  52.550  1.00  0.00    -0.365 N 
HETATM   27  C   UNL     1       8.080  20.325  53.982  1.00  0.00     0.044 A 
HETATM   28  C   UNL     1       7.884  20.711  55.300  1.00  0.00     0.117 A 
HETATM   29  F   UNL     1       7.858  19.773  56.257  1.00  0.00    -0.206 F 
HETATM   30  H   UNL     1       8.077  23.762  51.546  1.00  0.00     0.165 HD
HETATM   31  C   UNL     1       7.748  24.862  53.326  1.00  0.00     0.096 A 
ENDBRANCH  20  21
ENDBRANCH  19  20
ENDBRANCH   2  19
TORSDOF 6
ENDMDL
MODEL 3
REMARK VINA RESULT:      -9.4      2.052      2.703
REMARK  6 active torsions:
REMARK  status: ('A' for Active; 'I' for Inactive)
REMARK    1  A    between atoms: C_3  and  N_4 
REMARK    2  A    between atoms: N_4  and  C_5 
REMARK    3  A    between atoms: C_12  and  C_13 
REMARK       I    between atoms: C_13  and  N_14 
REMARK    4  A    between atoms: N_14  and  C_15 
REMARK    5  A    between atoms: C_15  and  C_16 
REMARK    6  A    between atoms: C_16  and  C_17 
ROOT
HETATM    1  C   UNL     1       5.458  27.699  56.123  1.00  0.00     0.251 C 
HETATM    2  N   UNL     1       5.882  27.354  54.853  1.00  0.00    -0.357 N 
HETATM    3  O   UNL     1       5.112  26.869  56.959  1.00  0.00    -0.268 OA
HETATM    4  H   UNL     1       5.885  28.068  54.135  1.00  0.00     0.162 HD
ENDROOT
BRANCH   1   5
HETATM    5  C   UNL     1       5.387  29.152  56.448  1.00  0.00     0.034 A 
HETATM    6  C   UNL     1       5.799  29.668  57.686  1.00  0.00     0.047 A 
HETATM    7  C   UNL     1       5.723  31.040  57.959  1.00  0.00     0.050 A 
HETATM    8  C   UNL     1       5.201  31.882  56.962  1.00  0.00     0.030 A 
HETATM    9  C   UNL     1       4.771  31.377  55.733  1.00  0.00     0.003 A 
HETATM   10  C   UNL     1       4.864  30.014  55.477  1.00  0.00     0.017 A 
BRANCH   7  11
HETATM   11  N   UNL     1       6.121  31.619  59.170  1.00  0.00    -0.188 N 
HETATM   12  H   UNL     1       5.422  32.129  59.689  1.00  0.00     0.184 HD
BRANCH  11  13
HETATM   13  C   UNL     1       7.331  31.718  59.848  1.00  0.00     0.726 A 
HETATM   14  N   UNL     1       8.475  32.036  59.223  1.00  0.00    -0.075 NA
HETATM   15  C   UNL     1       9.592  32.097  59.972  1.00  0.00     0.138 A 
HETATM   16  C   UNL     1       9.614  31.865  61.324  1.00  0.00     0.040 A 
HETATM   17  C   UNL     1       8.401  31.550  61.877  1.00  0.00     0.138 A 
HETATM   18  N   UNL     1       7.259  31.469  61.167  1.00  0.00    -0.075 NA
ENDBRANCH  11  13
ENDBRANCH   7  11
ENDBRANCH   1   5
BRANCH   2  19
HETATM   19  C   UNL     1       5.802  25.972  54.414  1.00  0.00     0.127 C 
BRANCH  19  20
HETATM   20  C   UNL     1       7.171  25.331  54.182  1.00  0.00     0.060 C 
BRANCH  20  21
HETATM   21  C   UNL     1       7.518  24.252  55.164  1.00  0.00    -0.029 A 
HETATM   22  C   UNL     1       7.795  22.876  54.872  1.00  0.00     0.001 A 
HETATM   23  C   UNL     1       8.107  22.244  56.079  1.00  0.00     0.043 A 
HETATM   24  C   UNL     1       7.821  22.110  53.690  1.00  0.00     0.056 A 
HETATM   25  C   UNL     1       8.445  20.888  56.166  1.00  0.00     0.033 A 
HETATM   26  N   UNL     1       8.015  23.195  57.068  1.00  0.00    -0.365 N 
HETATM   27  C   UNL     1       8.466  20.151  54.979  1.00  0.00     0.044 A 
HETATM   28  C   UNL     1       8.159  20.759  53.770  1.00  0.00     0.117 A 
HETATM   29  F   UNL     1       8.176  20.025  52.649  1.00  0.00    -0.206 F 
HETATM   30  H   UNL     1       8.192  23.024  58.049  1.00  0.00     0.165 HD
HETATM   31  C   UNL     1       7.673  24.406  56.529  1.00  0.00     0.096 A 
ENDBRANCH  20  21
ENDBRANCH  19  20
ENDBRANCH   2  19
TORSDOF 6
ENDMDL
MODEL 4
REMARK VINA RESULT:      -9.2      7.599     10.714
REMARK  6 active torsions:
REMARK  status: ('A' for Active; 'I' for Inactive)
REMARK    1  A    between atoms: C_3  and  N_4 
REMARK    2  A    between atoms: N_4  and  C_5 
REMARK    3  A    between atoms: C_12  and  C_13 
REMARK       I    between atoms: C_13  and  N_14 
REMARK    4  A    between atoms: N_14  and  C_15 
REMARK    5  A    between atoms: C_15  and  C_16 
REMARK    6  A    between atoms: C_16  and  C_17 
ROOT
HETATM    1  C   UNL     1       5.066  27.235  50.212  1.00  0.00     0.251 C 
HETATM    2  N   UNL     1       5.628  26.135  50.831  1.00  0.00    -0.357 N 
HETATM    3  O   UNL     1       5.272  28.387  50.584  1.00  0.00    -0.268 OA
HETATM    4  H   UNL     1       5.215  25.225  50.667  1.00  0.00     0.162 HD
ENDROOT
BRANCH   1   5
HETATM    5  C   UNL     1       4.141  26.978  49.072  1.00  0.00     0.034 A 
HETATM    6  C   UNL     1       3.520  28.015  48.357  1.00  0.00     0.047 A 
HETATM    7  C   UNL     1       2.658  27.740  47.288  1.00  0.00     0.050 A 
HETATM    8  C   UNL     1       2.416  26.393  46.967  1.00  0.00     0.030 A 
HETATM    9  C   UNL     1       3.014  25.354  47.682  1.00  0.00     0.003 A 
HETATM   10  C   UNL     1       3.874  25.647  48.734  1.00  0.00     0.017 A 
BRANCH   7  11
HETATM   11  N   UNL     1       2.011  28.725  46.532  1.00  0.00    -0.188 N 
HETATM   12  H   UNL     1       2.582  29.272  45.905  1.00  0.00     0.184 HD
BRANCH  11  13
HETATM   13  C   UNL     1       0.706  29.201  46.470  1.00  0.00     0.726 A 
HETATM   14  N   UNL     1       0.384  30.448  46.843  1.00  0.00    -0.075 NA
HETATM   15  C   UNL     1      -0.911  30.806  46.750  1.00  0.00     0.138 A 
HETATM   16  C   UNL     1      -1.898  29.973  46.288  1.00  0.00     0.040 A 
HETATM   17  C   UNL     1      -1.476  28.720  45.928  1.00  0.00     0.138 A 
HETATM   18  N   UNL     1      -0.195  28.314  46.010  1.00  0.00    -0.075 NA
ENDBRANCH  11  13
ENDBRANCH   7  11
ENDBRANCH   1   5
BRANCH   2  19
HETATM   19  C   UNL     1       6.392  26.304  52.055  1.00  0.00     0.127 C 
BRANCH  19  20
HETATM   20  C   UNL     1       7.488  25.254  52.234  1.00  0.00     0.060 C 
BRANCH  20  21
HETATM   21  C   UNL     1       7.404  24.493  53.524  1.00  0.00    -0.029 A 
HETATM   22  C   UNL     1       7.653  23.095  53.719  1.00  0.00     0.001 A 
HETATM   23  C   UNL     1       7.497  22.825  55.081  1.00  0.00     0.043 A 
HETATM   24  C   UNL     1       8.008  22.033  52.864  1.00  0.00     0.056 A 
HETATM   25  C   UNL     1       7.679  21.551  55.634  1.00  0.00     0.033 A 
HETATM   26  N   UNL     1       7.159  24.010  55.691  1.00  0.00    -0.365 N 
HETATM   27  C   UNL     1       8.034  20.516  54.765  1.00  0.00     0.044 A 
HETATM   28  C   UNL     1       8.193  20.762  53.408  1.00  0.00     0.117 A 
HETATM   29  F   UNL     1       8.521  19.747  52.596  1.00  0.00    -0.206 F 
HETATM   30  H   UNL     1       6.987  24.118  56.681  1.00  0.00     0.165 HD
HETATM   31  C   UNL     1       7.111  25.019  54.768  1.00  0.00     0.096 A 
ENDBRANCH  20  21
ENDBRANCH  19  20
ENDBRANCH   2  19
TORSDOF 6
ENDMDL
MODEL 5
REMARK VINA RESULT:      -9.1      2.568      3.309
REMARK  6 active torsions:
REMARK  status: ('A' for Active; 'I' for Inactive)
REMARK    1  A    between atoms: C_3  and  N_4 
REMARK    2  A    between atoms: N_4  and  C_5 
REMARK    3  A    between atoms: C_12  and  C_13 
REMARK       I    between atoms: C_13  and  N_14 
REMARK    4  A    between atoms: N_14  and  C_15 
REMARK    5  A    between atoms: C_15  and  C_16 
REMARK    6  A    between atoms: C_16  and  C_17 
ROOT
HETATM    1  C   UNL     1       5.141  28.046  55.983  1.00  0.00     0.251 C 
HETATM    2  N   UNL     1       5.625  27.181  56.947  1.00  0.00    -0.357 N 
HETATM    3  O   UNL     1       4.732  27.665  54.890  1.00  0.00    -0.268 OA
HETATM    4  H   UNL     1       6.193  27.561  57.694  1.00  0.00     0.162 HD
ENDROOT
BRANCH   1   5
HETATM    5  C   UNL     1       5.169  29.503  56.297  1.00  0.00     0.034 A 
HETATM    6  C   UNL     1       5.620  29.999  57.531  1.00  0.00     0.047 A 
HETATM    7  C   UNL     1       5.637  31.374  57.794  1.00  0.00     0.050 A 
HETATM    8  C   UNL     1       5.168  32.242  56.793  1.00  0.00     0.030 A 
HETATM    9  C   UNL     1       4.701  31.759  55.570  1.00  0.00     0.003 A 
HETATM   10  C   UNL     1       4.701  30.391  55.323  1.00  0.00     0.017 A 
BRANCH   7  11
HETATM   11  N   UNL     1       6.078  31.934  58.999  1.00  0.00    -0.188 N 
HETATM   12  H   UNL     1       5.440  32.548  59.483  1.00  0.00     0.184 HD
BRANCH  11  13
HETATM   13  C   UNL     1       7.273  31.892  59.710  1.00  0.00     0.726 A 
HETATM   14  N   UNL     1       8.464  32.045  59.112  1.00  0.00    -0.075 NA
HETATM   15  C   UNL     1       9.560  31.980  59.892  1.00  0.00     0.138 A 
HETATM   16  C   UNL     1       9.516  31.779  61.248  1.00  0.00     0.040 A 
HETATM   17  C   UNL     1       8.258  31.635  61.772  1.00  0.00     0.138 A 
HETATM   18  N   UNL     1       7.134  31.685  61.031  1.00  0.00    -0.075 NA
ENDBRANCH  11  13
ENDBRANCH   7  11
ENDBRANCH   1   5
BRANCH   2  19
HETATM   19  C   UNL     1       5.793  25.772  56.636  1.00  0.00     0.127 C 
BRANCH  19  20
HETATM   20  C   UNL     1       7.248  25.379  56.380  1.00  0.00     0.060 C 
BRANCH  20  21
HETATM   21  C   UNL     1       7.468  24.647  55.090  1.00  0.00    -0.029 A 
HETATM   22  C   UNL     1       7.645  23.235  54.918  1.00  0.00     0.001 A 
HETATM   23  C   UNL     1       7.778  22.991  53.548  1.00  0.00     0.043 A 
HETATM   24  C   UNL     1       7.694  22.137  55.801  1.00  0.00     0.056 A 
HETATM   25  C   UNL     1       7.955  21.708  53.015  1.00  0.00     0.033 A 
HETATM   26  N   UNL     1       7.692  24.206  52.912  1.00  0.00    -0.365 N 
HETATM   27  C   UNL     1       7.997  20.637  53.911  1.00  0.00     0.044 A 
HETATM   28  C   UNL     1       7.868  20.857  55.275  1.00  0.00     0.117 A 
HETATM   29  F   UNL     1       7.925  19.812  56.112  1.00  0.00    -0.206 F 
HETATM   30  H   UNL     1       7.752  24.336  51.911  1.00  0.00     0.165 HD
HETATM   31  C   UNL     1       7.496  25.206  53.826  1.00  0.00     0.096 A 
ENDBRANCH  20  21
ENDBRANCH  19  20
ENDBRANCH   2  19
TORSDOF 6
ENDMDL
MODEL 6
REMARK VINA RESULT:      -9.0      1.818      2.579
REMARK  6 active torsions:
REMARK  status: ('A' for Active; 'I' for Inactive)
REMARK    1  A    between atoms: C_3  and  N_4 
REMARK    2  A    between atoms: N_4  and  C_5 
REMARK    3  A    between atoms: C_12  and  C_13 
REMARK       I    between atoms: C_13  and  N_14 
REMARK    4  A    between atoms: N_14  and  C_15 
REMARK    5  A    between atoms: C_15  and  C_16 
REMARK    6  A    between atoms: C_16  and  C_17 
ROOT
HETATM    1  C   UNL     1       8.161  28.508  57.156  1.00  0.00     0.251 C 
HETATM    2  N   UNL     1       7.568  27.463  57.840  1.00  0.00    -0.357 N 
HETATM    3  O   UNL     1       8.432  28.454  55.960  1.00  0.00    -0.268 OA
HETATM    4  H   UNL     1       7.623  27.455  58.851  1.00  0.00     0.162 HD
ENDROOT
BRANCH   1   5
HETATM    5  C   UNL     1       8.513  29.725  57.942  1.00  0.00     0.034 A 
HETATM    6  C   UNL     1       7.612  30.337  58.828  1.00  0.00     0.047 A 
HETATM    7  C   UNL     1       7.974  31.478  59.554  1.00  0.00     0.050 A 
HETATM    8  C   UNL     1       9.262  32.005  59.353  1.00  0.00     0.030 A 
HETATM    9  C   UNL     1      10.160  31.416  58.462  1.00  0.00     0.003 A 
HETATM   10  C   UNL     1       9.785  30.277  57.757  1.00  0.00     0.017 A 
BRANCH   7  11
HETATM   11  N   UNL     1       7.126  32.132  60.456  1.00  0.00    -0.188 N 
HETATM   12  H   UNL     1       7.487  32.309  61.382  1.00  0.00     0.184 HD
BRANCH  11  13
HETATM   13  C   UNL     1       5.810  32.577  60.403  1.00  0.00     0.726 A 
HETATM   14  N   UNL     1       5.286  33.126  59.297  1.00  0.00    -0.075 NA
HETATM   15  C   UNL     1       4.003  33.531  59.356  1.00  0.00     0.138 A 
HETATM   16  C   UNL     1       3.216  33.400  60.471  1.00  0.00     0.040 A 
HETATM   17  C   UNL     1       3.833  32.826  61.552  1.00  0.00     0.138 A 
HETATM   18  N   UNL     1       5.115  32.413  61.543  1.00  0.00    -0.075 NA
ENDBRANCH  11  13
ENDBRANCH   7  11
ENDBRANCH   1   5
BRANCH   2  19
HETATM   19  C   UNL     1       7.366  26.187  57.176  1.00  0.00     0.127 C 
BRANCH  19  20
HETATM   20  C   UNL     1       8.606  25.293  57.193  1.00  0.00     0.060 C 
BRANCH  20  21
HETATM   21  C   UNL     1       8.388  23.931  56.605  1.00  0.00    -0.029 A 
HETATM   22  C   UNL     1       8.178  23.610  55.224  1.00  0.00     0.001 A 
HETATM   23  C   UNL     1       8.061  22.221  55.127  1.00  0.00     0.043 A 
HETATM   24  C   UNL     1       8.086  24.373  54.043  1.00  0.00     0.056 A 
HETATM   25  C   UNL     1       7.860  21.554  53.912  1.00  0.00     0.033 A 
HETATM   26  N   UNL     1       8.188  21.715  56.399  1.00  0.00    -0.365 N 
HETATM   27  C   UNL     1       7.776  22.334  52.755  1.00  0.00     0.044 A 
HETATM   28  C   UNL     1       7.888  23.715  52.829  1.00  0.00     0.117 A 
HETATM   29  F   UNL     1       7.790  24.438  51.704  1.00  0.00    -0.206 F 
HETATM   30  H   UNL     1       8.149  20.733  56.634  1.00  0.00     0.165 HD
HETATM   31  C   UNL     1       8.396  22.731  57.293  1.00  0.00     0.096 A 
ENDBRANCH  20  21
ENDBRANCH  19  20
ENDBRANCH   2  19
TORSDOF 6
ENDMDL
MODEL 7
REMARK VINA RESULT:      -8.9      1.373      1.611
REMARK  6 active torsions:
REMARK  status: ('A' for Active; 'I' for Inactive)
REMARK    1  A    between atoms: C_3  and  N_4 
REMARK    2  A    between atoms: N_4  and  C_5 
REMARK    3  A    between atoms: C_12  and  C_13 
REMARK       I    between atoms: C_13  and  N_14 
REMARK    4  A    between atoms: N_14  and  C_15 
REMARK    5  A    between atoms: C_15  and  C_16 
REMARK    6  A    between atoms: C_16  and  C_17 
ROOT
HETATM    1  C   UNL     1       6.554  28.186  55.820  1.00  0.00     0.251 C 
HETATM    2  N   UNL     1       6.268  26.914  56.281  1.00  0.00    -0.357 N 
HETATM    3  O   UNL     1       6.328  28.543  54.668  1.00  0.00    -0.268 OA
HETATM    4  H   UNL     1       6.719  26.596  57.130  1.00  0.00     0.162 HD
ENDROOT
BRANCH   1   5
HETATM    5  C   UNL     1       7.201  29.129  56.776  1.00  0.00     0.034 A 
HETATM    6  C   UNL     1       6.491  30.154  57.421  1.00  0.00     0.047 A 
HETATM    7  C   UNL     1       7.128  31.021  58.317  1.00  0.00     0.050 A 
HETATM    8  C   UNL     1       8.506  30.848  58.535  1.00  0.00     0.030 A 
HETATM    9  C   UNL     1       9.225  29.843  57.886  1.00  0.00     0.003 A 
HETATM   10  C   UNL     1       8.573  28.985  57.007  1.00  0.00     0.017 A 
BRANCH   7  11
HETATM   11  N   UNL     1       6.478  32.059  58.995  1.00  0.00    -0.188 N 
HETATM   12  H   UNL     1       6.098  32.809  58.436  1.00  0.00     0.184 HD
BRANCH  11  13
HETATM   13  C   UNL     1       6.262  32.358  60.336  1.00  0.00     0.726 A 
HETATM   14  N   UNL     1       7.264  32.697  61.162  1.00  0.00    -0.075 NA
HETATM   15  C   UNL     1       6.946  32.959  62.444  1.00  0.00     0.138 A 
HETATM   16  C   UNL     1       5.667  32.907  62.935  1.00  0.00     0.040 A 
HETATM   17  C   UNL     1       4.709  32.555  62.021  1.00  0.00     0.138 A 
HETATM   18  N   UNL     1       4.979  32.276  60.731  1.00  0.00    -0.075 NA
ENDBRANCH  11  13
ENDBRANCH   7  11
ENDBRANCH   1   5
BRANCH   2  19
HETATM   19  C   UNL     1       5.805  25.896  55.355  1.00  0.00     0.127 C 
BRANCH  19  20
HETATM   20  C   UNL     1       6.944  25.129  54.681  1.00  0.00     0.060 C 
BRANCH  20  21
HETATM   21  C   UNL     1       7.504  24.010  55.509  1.00  0.00    -0.029 A 
HETATM   22  C   UNL     1       7.826  22.686  55.064  1.00  0.00     0.001 A 
HETATM   23  C   UNL     1       8.355  21.992  56.156  1.00  0.00     0.043 A 
HETATM   24  C   UNL     1       7.728  22.014  53.829  1.00  0.00     0.056 A 
HETATM   25  C   UNL     1       8.792  20.664  56.078  1.00  0.00     0.033 A 
HETATM   26  N   UNL     1       8.347  22.856  57.225  1.00  0.00    -0.365 N 
HETATM   27  C   UNL     1       8.687  20.022  54.842  1.00  0.00     0.044 A 
HETATM   28  C   UNL     1       8.164  20.692  53.745  1.00  0.00     0.117 A 
HETATM   29  F   UNL     1       8.063  20.047  52.574  1.00  0.00    -0.206 F 
HETATM   30  H   UNL     1       8.678  22.626  58.152  1.00  0.00     0.165 HD
HETATM   31  C   UNL     1       7.849  24.073  56.846  1.00  0.00     0.096 A 
ENDBRANCH  20  21
ENDBRANCH  19  20
ENDBRANCH   2  19
TORSDOF 6
ENDMDL
MODEL 8
REMARK VINA RESULT:      -8.9      3.421      9.896
REMARK  6 active torsions:
REMARK  status: ('A' for Active; 'I' for Inactive)
REMARK    1  A    between atoms: C_3  and  N_4 
REMARK    2  A    between atoms: N_4  and  C_5 
REMARK    3  A    between atoms: C_12  and  C_13 
REMARK       I    between atoms: C_13  and  N_14 
REMARK    4  A    between atoms: N_14  and  C_15 
REMARK    5  A    between atoms: C_15  and  C_16 
REMARK    6  A    between atoms: C_16  and  C_17 
ROOT
HETATM    1  C   UNL     1       5.040  29.408  57.218  1.00  0.00     0.251 C 
HETATM    2  N   UNL     1       5.228  30.297  58.260  1.00  0.00    -0.357 N 
HETATM    3  O   UNL     1       4.099  29.489  56.435  1.00  0.00    -0.268 OA
HETATM    4  H   UNL     1       5.840  30.027  59.020  1.00  0.00     0.162 HD
ENDROOT
BRANCH   1   5
HETATM    5  C   UNL     1       6.016  28.289  57.092  1.00  0.00     0.034 A 
HETATM    6  C   UNL     1       5.657  27.028  56.589  1.00  0.00     0.047 A 
HETATM    7  C   UNL     1       6.599  25.998  56.480  1.00  0.00     0.050 A 
HETATM    8  C   UNL     1       7.912  26.258  56.909  1.00  0.00     0.030 A 
HETATM    9  C   UNL     1       8.277  27.502  57.427  1.00  0.00     0.003 A 
HETATM   10  C   UNL     1       7.330  28.516  57.518  1.00  0.00     0.017 A 
BRANCH   7  11
HETATM   11  N   UNL     1       6.308  24.722  55.984  1.00  0.00    -0.188 N 
HETATM   12  H   UNL     1       5.529  24.233  56.399  1.00  0.00     0.184 HD
BRANCH  11  13
HETATM   13  C   UNL     1       6.898  23.888  55.040  1.00  0.00     0.726 A 
HETATM   14  N   UNL     1       7.035  24.250  53.756  1.00  0.00    -0.075 NA
HETATM   15  C   UNL     1       7.613  23.364  52.922  1.00  0.00     0.138 A 
HETATM   16  C   UNL     1       8.072  22.134  53.321  1.00  0.00     0.040 A 
HETATM   17  C   UNL     1       7.892  21.852  54.649  1.00  0.00     0.138 A 
HETATM   18  N   UNL     1       7.313  22.702  55.519  1.00  0.00    -0.075 NA
ENDBRANCH  11  13
ENDBRANCH   7  11
ENDBRANCH   1   5
BRANCH   2  19
HETATM   19  C   UNL     1       4.216  31.299  58.548  1.00  0.00     0.127 C 
BRANCH  19  20
HETATM   20  C   UNL     1       4.792  32.587  59.138  1.00  0.00     0.060 C 
BRANCH  20  21
HETATM   21  C   UNL     1       5.527  32.394  60.431  1.00  0.00    -0.029 A 
HETATM   22  C   UNL     1       6.942  32.238  60.604  1.00  0.00     0.001 A 
HETATM   23  C   UNL     1       7.189  32.127  61.975  1.00  0.00     0.043 A 
HETATM   24  C   UNL     1       8.039  32.192  59.721  1.00  0.00     0.056 A 
HETATM   25  C   UNL     1       8.474  31.974  62.510  1.00  0.00     0.033 A 
HETATM   26  N   UNL     1       5.973  32.205  62.611  1.00  0.00    -0.365 N 
HETATM   27  C   UNL     1       9.545  31.934  61.613  1.00  0.00     0.044 A 
HETATM   28  C   UNL     1       9.322  32.042  60.248  1.00  0.00     0.117 A 
HETATM   29  F   UNL     1      10.368  31.987  59.411  1.00  0.00    -0.206 F 
HETATM   30  H   UNL     1       5.844  32.157  63.613  1.00  0.00     0.165 HD
HETATM   31  C   UNL     1       4.970  32.376  61.696  1.00  0.00     0.096 A 
ENDBRANCH  20  21
ENDBRANCH  19  20
ENDBRANCH   2  19
TORSDOF 6
ENDMDL
MODEL 9
REMARK VINA RESULT:      -8.9      4.647     10.764
REMARK  6 active torsions:
REMARK  status: ('A' for Active; 'I' for Inactive)
REMARK    1  A    between atoms: C_3  and  N_4 
REMARK    2  A    between atoms: N_4  and  C_5 
REMARK    3  A    between atoms: C_12  and  C_13 
REMARK       I    between atoms: C_13  and  N_14 
REMARK    4  A    between atoms: N_14  and  C_15 
REMARK    5  A    between atoms: C_15  and  C_16 
REMARK    6  A    between atoms: C_16  and  C_17 
ROOT
HETATM    1  C   UNL     1       5.901  32.417  59.213  1.00  0.00     0.251 C 
HETATM    2  N   UNL     1       5.139  32.081  60.316  1.00  0.00    -0.357 N 
HETATM    3  O   UNL     1       5.522  33.213  58.359  1.00  0.00    -0.268 OA
HETATM    4  H   UNL     1       5.372  31.236  60.824  1.00  0.00     0.162 HD
ENDROOT
BRANCH   1   5
HETATM    5  C   UNL     1       7.218  31.737  59.060  1.00  0.00     0.034 A 
HETATM    6  C   UNL     1       7.392  30.605  58.248  1.00  0.00     0.047 A 
HETATM    7  C   UNL     1       8.645  29.991  58.123  1.00  0.00     0.050 A 
HETATM    8  C   UNL     1       9.718  30.529  58.853  1.00  0.00     0.030 A 
HETATM    9  C   UNL     1       9.553  31.643  59.678  1.00  0.00     0.003 A 
HETATM   10  C   UNL     1       8.304  32.245  59.782  1.00  0.00     0.017 A 
BRANCH   7  11
HETATM   11  N   UNL     1       8.886  28.864  57.328  1.00  0.00    -0.188 N 
HETATM   12  H   UNL     1       9.778  28.816  56.856  1.00  0.00     0.184 HD
BRANCH  11  13
HETATM   13  C   UNL     1       8.134  27.754  56.961  1.00  0.00     0.726 A 
HETATM   14  N   UNL     1       7.508  27.676  55.777  1.00  0.00    -0.075 NA
HETATM   15  C   UNL     1       6.799  26.560  55.524  1.00  0.00     0.138 A 
HETATM   16  C   UNL     1       6.696  25.511  56.402  1.00  0.00     0.040 A 
HETATM   17  C   UNL     1       7.369  25.677  57.584  1.00  0.00     0.138 A 
HETATM   18  N   UNL     1       8.084  26.778  57.884  1.00  0.00    -0.075 NA
ENDBRANCH  11  13
ENDBRANCH   7  11
ENDBRANCH   1   5
BRANCH   2  19
HETATM   19  C   UNL     1       3.776  32.568  60.430  1.00  0.00     0.127 C 
BRANCH  19  20
HETATM   20  C   UNL     1       3.685  33.979  61.013  1.00  0.00     0.060 C 
BRANCH  20  21
HETATM   21  C   UNL     1       3.626  34.021  62.511  1.00  0.00    -0.029 A 
HETATM   22  C   UNL     1       4.727  33.903  63.422  1.00  0.00     0.001 A 
HETATM   23  C   UNL     1       4.218  34.038  64.717  1.00  0.00     0.043 A 
HETATM   24  C   UNL     1       6.113  33.705  63.265  1.00  0.00     0.056 A 
HETATM   25  C   UNL     1       5.022  33.987  65.862  1.00  0.00     0.033 A 
HETATM   26  N   UNL     1       2.861  34.223  64.600  1.00  0.00    -0.365 N 
HETATM   27  C   UNL     1       6.394  33.792  65.680  1.00  0.00     0.044 A 
HETATM   28  C   UNL     1       6.919  33.655  64.403  1.00  0.00     0.117 A 
HETATM   29  F   UNL     1       8.237  33.457  64.258  1.00  0.00    -0.206 F 
HETATM   30  H   UNL     1       2.229  34.354  65.379  1.00  0.00     0.165 HD
HETATM   31  C   UNL     1       2.496  34.226  63.281  1.00  0.00     0.096 A 
ENDBRANCH  20  21
ENDBRANCH  19  20
ENDBRANCH   2  19
TORSDOF 6
ENDMDL
MODEL 10
REMARK VINA RESULT:      -8.8      6.285      9.482
REMARK  6 active torsions:
REMARK  status: ('A' for Active; 'I' for Inactive)
REMARK    1  A    between atoms: C_3  and  N_4 
REMARK    2  A    between atoms: N_4  and  C_5 
REMARK    3  A    between atoms: C_12  and  C_13 
REMARK       I    between atoms: C_13  and  N_14 
REMARK    4  A    between atoms: N_14  and  C_15 
REMARK    5  A    between atoms: C_15  and  C_16 
REMARK    6  A    between atoms: C_16  and  C_17 
ROOT
HETATM    1  C   UNL     1       5.288  26.560  52.285  1.00  0.00     0.251 C 
HETATM    2  N   UNL     1       5.892  27.026  53.438  1.00  0.00    -0.357 N 
HETATM    3  O   UNL     1       4.922  25.397  52.149  1.00  0.00    -0.268 OA
HETATM    4  H   UNL     1       6.412  27.894  53.393  1.00  0.00     0.162 HD
ENDROOT
BRANCH   1   5
HETATM    5  C   UNL     1       5.126  27.526  51.162  1.00  0.00     0.034 A 
HETATM    6  C   UNL     1       4.505  27.177  49.952  1.00  0.00     0.047 A 
HETATM    7  C   UNL     1       4.366  28.109  48.916  1.00  0.00     0.050 A 
HETATM    8  C   UNL     1       4.885  29.400  49.117  1.00  0.00     0.030 A 
HETATM    9  C   UNL     1       5.520  29.752  50.309  1.00  0.00     0.003 A 
HETATM   10  C   UNL     1       5.640  28.816  51.330  1.00  0.00     0.017 A 
BRANCH   7  11
HETATM   11  N   UNL     1       3.754  27.828  47.688  1.00  0.00    -0.188 N 
HETATM   12  H   UNL     1       4.327  27.401  46.975  1.00  0.00     0.184 HD
BRANCH  11  13
HETATM   13  C   UNL     1       2.489  28.055  47.159  1.00  0.00     0.726 A 
HETATM   14  N   UNL     1       1.650  27.052  46.861  1.00  0.00    -0.075 NA
HETATM   15  C   UNL     1       0.450  27.381  46.345  1.00  0.00     0.138 A 
HETATM   16  C   UNL     1       0.048  28.674  46.124  1.00  0.00     0.040 A 
HETATM   17  C   UNL     1       0.968  29.632  46.459  1.00  0.00     0.138 A 
HETATM   18  N   UNL     1       2.182  29.351  46.971  1.00  0.00    -0.075 NA
ENDBRANCH  11  13
ENDBRANCH   7  11
ENDBRANCH   1   5
BRANCH   2  19
HETATM   19  C   UNL     1       6.242  26.097  54.498  1.00  0.00     0.127 C 
BRANCH  19  20
HETATM   20  C   UNL     1       7.566  25.373  54.254  1.00  0.00     0.060 C 
BRANCH  20  21
HETATM   21  C   UNL     1       7.837  24.251  55.212  1.00  0.00    -0.029 A 
HETATM   22  C   UNL     1       8.037  22.868  54.887  1.00  0.00     0.001 A 
HETATM   23  C   UNL     1       8.296  22.189  56.081  1.00  0.00     0.043 A 
HETATM   24  C   UNL     1       8.030  22.132  53.686  1.00  0.00     0.056 A 
HETATM   25  C   UNL     1       8.553  20.813  56.136  1.00  0.00     0.033 A 
HETATM   26  N   UNL     1       8.250  23.118  57.093  1.00  0.00    -0.365 N 
HETATM   27  C   UNL     1       8.544  20.106  54.931  1.00  0.00     0.044 A 
HETATM   28  C   UNL     1       8.287  20.762  53.735  1.00  0.00     0.117 A 
HETATM   29  F   UNL     1       8.272  20.056  52.595  1.00  0.00    -0.206 F 
HETATM   30  H   UNL     1       8.405  22.912  58.070  1.00  0.00     0.165 HD
HETATM   31  C   UNL     1       7.987  24.360  56.582  1.00  0.00     0.096 A 
ENDBRANCH  20  21
ENDBRANCH  19  20
ENDBRANCH   2  19
TORSDOF 6
ENDMDL
