MODEL 1
REMARK VINA RESULT:      -8.9      0.000      0.000
REMARK  3 active torsions:
REMARK  status: ('A' for Active; 'I' for Inactive)
REMARK    1  A    between atoms: C_6  and  N_7 
REMARK       I    between atoms: N_7  and  C_8 
REMARK    2  A    between atoms: C_8  and  C_9 
REMARK    3  A    between atoms: C_9  and  C_10 
ROOT
HETATM    1  C   UNL     1       6.086  28.429  56.609  1.00  0.00     0.286 C 
HETATM    2  N   UNL     1       7.181  27.659  57.344  1.00  0.00    -0.056 N 
HETATM    3  H   UNL     1       6.745  27.253  58.182  1.00  0.00     0.278 HD
HETATM    4  H   UNL     1       7.427  26.819  56.777  1.00  0.00     0.278 HD
HETATM    5  C   UNL     1       8.403  28.409  57.773  1.00  0.00     0.209 C 
HETATM    6  C   UNL     1       7.970  29.697  58.507  1.00  0.00     0.115 C 
HETATM    7  N   UNL     1       7.009  30.470  57.726  1.00  0.00    -0.353 N 
HETATM    8  C   UNL     1       5.994  29.918  56.990  1.00  0.00     0.249 C 
HETATM    9  O   UNL     1       5.072  30.627  56.598  1.00  0.00    -0.271 OA
HETATM   10  C   UNL     1       9.326  28.676  56.585  1.00  0.00     0.035 C 
HETATM   11  C   UNL     1      10.541  29.493  57.021  1.00  0.00     0.002 C 
HETATM   12  C   UNL     1      10.124  30.795  57.702  1.00  0.00     0.002 C 
HETATM   13  C   UNL     1       9.189  30.545  58.886  1.00  0.00     0.027 C 
HETATM   14  H   UNL     1       6.831  31.439  57.988  1.00  0.00     0.163 HD
ENDROOT
BRANCH   1  15
HETATM   15  C   UNL     1       6.158  28.312  55.075  1.00  0.00     0.146 C 
BRANCH  15  16
HETATM   16  C   UNL     1       4.966  27.624  54.471  1.00  0.00     0.224 C 
HETATM   17  N   UNL     1       4.978  26.326  54.081  1.00  0.00    -0.327 N 
HETATM   18  H   UNL     1       4.086  26.061  53.669  1.00  0.00     0.169 HD
HETATM   19  O   UNL     1       3.907  28.258  54.363  1.00  0.00    -0.273 OA
BRANCH  17  20
HETATM   20  C   UNL     1       5.931  25.287  54.112  1.00  0.00     0.035 A 
HETATM   21  C   UNL     1       6.499  24.723  55.253  1.00  0.00     0.037 A 
HETATM   22  C   UNL     1       7.460  23.692  55.162  1.00  0.00    -0.054 A 
HETATM   23  C   UNL     1       7.824  23.186  53.901  1.00  0.00    -0.056 A 
HETATM   24  C   UNL     1       8.048  23.123  56.429  1.00  0.00     0.049 C 
HETATM   25  C   UNL     1       8.834  22.081  53.749  1.00  0.00     0.049 C 
HETATM   26  C   UNL     1       7.252  23.749  52.758  1.00  0.00     0.009 A 
HETATM   27  C   UNL     1       6.318  24.783  52.864  1.00  0.00     0.030 A 
ENDBRANCH  17  20
ENDBRANCH  15  16
ENDBRANCH   1  15
TORSDOF 3
ENDMDL
MODEL 2
REMARK VINA RESULT:      -8.7      2.258      3.510
REMARK  3 active torsions:
REMARK  status: ('A' for Active; 'I' for Inactive)
REMARK    1  A    between atoms: C_6  and  N_7 
REMARK       I    between atoms: N_7  and  C_8 
REMARK    2  A    between atoms: C_8  and  C_9 
REMARK    3  A    between atoms: C_9  and  C_10 
ROOT
HETATM    1  C   UNL     1       7.585  27.929  55.926  1.00  0.00     0.286 C 
HETATM    2  N   UNL     1       7.220  29.254  55.260  1.00  0.00    -0.056 N 
HETATM    3  H   UNL     1       8.084  29.808  55.211  1.00  0.00     0.278 HD
HETATM    4  H   UNL     1       7.006  29.066  54.256  1.00  0.00     0.278 HD
HETATM    5  C   UNL     1       6.163  30.097  55.900  1.00  0.00     0.209 C 
HETATM    6  C   UNL     1       6.478  30.242  57.404  1.00  0.00     0.115 C 
HETATM    7  N   UNL     1       6.708  28.947  58.038  1.00  0.00    -0.353 N 
HETATM    8  C   UNL     1       7.396  27.916  57.454  1.00  0.00     0.249 C 
HETATM    9  O   UNL     1       7.786  26.979  58.144  1.00  0.00    -0.271 OA
HETATM   10  C   UNL     1       4.771  29.527  55.630  1.00  0.00     0.035 C 
HETATM   11  C   UNL     1       3.702  30.359  56.336  1.00  0.00     0.002 C 
HETATM   12  C   UNL     1       3.977  30.466  57.835  1.00  0.00     0.002 C 
HETATM   13  C   UNL     1       5.372  31.023  58.121  1.00  0.00     0.027 C 
HETATM   14  H   UNL     1       6.691  28.890  59.056  1.00  0.00     0.163 HD
ENDROOT
BRANCH   1  15
HETATM   15  C   UNL     1       6.867  26.705  55.325  1.00  0.00     0.146 C 
BRANCH  15  16
HETATM   16  C   UNL     1       7.107  26.535  53.851  1.00  0.00     0.224 C 
HETATM   17  N   UNL     1       7.565  25.384  53.302  1.00  0.00    -0.327 N 
HETATM   18  H   UNL     1       7.691  25.485  52.297  1.00  0.00     0.169 HD
HETATM   19  O   UNL     1       6.834  27.478  53.094  1.00  0.00    -0.273 OA
BRANCH  17  20
HETATM   20  C   UNL     1       7.903  24.110  53.802  1.00  0.00     0.035 A 
HETATM   21  C   UNL     1       7.930  22.919  53.077  1.00  0.00     0.037 A 
HETATM   22  C   UNL     1       8.272  21.694  53.690  1.00  0.00    -0.054 A 
HETATM   23  C   UNL     1       8.637  21.670  55.048  1.00  0.00    -0.056 A 
HETATM   24  C   UNL     1       8.277  20.436  52.859  1.00  0.00     0.049 C 
HETATM   25  C   UNL     1       9.020  20.393  55.746  1.00  0.00     0.049 C 
HETATM   26  C   UNL     1       8.614  22.863  55.773  1.00  0.00     0.009 A 
HETATM   27  C   UNL     1       8.252  24.065  55.158  1.00  0.00     0.030 A 
ENDBRANCH  17  20
ENDBRANCH  15  16
ENDBRANCH   1  15
TORSDOF 3
ENDMDL
MODEL 3
REMARK VINA RESULT:      -8.7      2.566      4.714
REMARK  3 active torsions:
REMARK  status: ('A' for Active; 'I' for Inactive)
REMARK    1  A    between atoms: C_6  and  N_7 
REMARK       I    between atoms: N_7  and  C_8 
REMARK    2  A    between atoms: C_8  and  C_9 
REMARK    3  A    between atoms: C_9  and  C_10 
ROOT
HETATM    1  C   UNL     1       6.298  27.927  55.791  1.00  0.00     0.286 C 
HETATM    2  N   UNL     1       7.356  28.045  54.696  1.00  0.00    -0.056 N 
HETATM    3  H   UNL     1       7.703  29.012  54.724  1.00  0.00     0.278 HD
HETATM    4  H   UNL     1       8.189  27.488  54.985  1.00  0.00     0.278 HD
HETATM    5  C   UNL     1       6.951  27.738  53.289  1.00  0.00     0.209 C 
HETATM    6  C   UNL     1       5.652  28.503  52.961  1.00  0.00     0.115 C 
HETATM    7  N   UNL     1       4.619  28.277  53.968  1.00  0.00    -0.353 N 
HETATM    8  C   UNL     1       4.861  28.204  55.315  1.00  0.00     0.249 C 
HETATM    9  O   UNL     1       3.926  28.294  56.105  1.00  0.00    -0.271 OA
HETATM   10  C   UNL     1       6.831  26.230  53.071  1.00  0.00     0.035 C 
HETATM   11  C   UNL     1       6.359  25.927  51.650  1.00  0.00     0.002 C 
HETATM   12  C   UNL     1       5.046  26.639  51.333  1.00  0.00     0.002 C 
HETATM   13  C   UNL     1       5.147  28.148  51.558  1.00  0.00     0.027 C 
HETATM   14  H   UNL     1       3.656  28.530  53.748  1.00  0.00     0.163 HD
ENDROOT
BRANCH   1  15
HETATM   15  C   UNL     1       6.322  26.583  56.545  1.00  0.00     0.146 C 
BRANCH  15  16
HETATM   16  C   UNL     1       7.572  26.374  57.353  1.00  0.00     0.224 C 
HETATM   17  N   UNL     1       8.339  25.260  57.257  1.00  0.00    -0.327 N 
HETATM   18  H   UNL     1       9.119  25.298  57.909  1.00  0.00     0.169 HD
HETATM   19  O   UNL     1       7.946  27.279  58.112  1.00  0.00    -0.273 OA
BRANCH  17  20
HETATM   20  C   UNL     1       8.293  24.085  56.479  1.00  0.00     0.035 A 
HETATM   21  C   UNL     1       8.166  24.019  55.092  1.00  0.00     0.037 A 
HETATM   22  C   UNL     1       8.116  22.779  54.418  1.00  0.00    -0.054 A 
HETATM   23  C   UNL     1       8.242  21.582  55.146  1.00  0.00    -0.056 A 
HETATM   24  C   UNL     1       7.970  22.766  52.918  1.00  0.00     0.049 C 
HETATM   25  C   UNL     1       8.206  20.236  54.476  1.00  0.00     0.049 C 
HETATM   26  C   UNL     1       8.373  21.649  56.536  1.00  0.00     0.009 A 
HETATM   27  C   UNL     1       8.399  22.884  57.190  1.00  0.00     0.030 A 
ENDBRANCH  17  20
ENDBRANCH  15  16
ENDBRANCH   1  15
TORSDOF 3
ENDMDL
MODEL 4
REMARK VINA RESULT:      -8.5      3.573      6.432
REMARK  3 active torsions:
REMARK  status: ('A' for Active; 'I' for Inactive)
REMARK    1  A    between atoms: C_6  and  N_7 
REMARK       I    between atoms: N_7  and  C_8 
REMARK    2  A    between atoms: C_8  and  C_9 
REMARK    3  A    between atoms: C_9  and  C_10 
ROOT
HETATM    1  C   UNL     1       5.231  28.110  51.946  1.00  0.00     0.286 C 
HETATM    2  N   UNL     1       5.788  28.136  50.524  1.00  0.00    -0.056 N 
HETATM    3  H   UNL     1       6.150  29.084  50.366  1.00  0.00     0.278 HD
HETATM    4  H   UNL     1       6.649  27.548  50.500  1.00  0.00     0.278 HD
HETATM    5  C   UNL     1       4.861  27.799  49.398  1.00  0.00     0.209 C 
HETATM    6  C   UNL     1       3.562  28.617  49.555  1.00  0.00     0.115 C 
HETATM    7  N   UNL     1       2.991  28.479  50.892  1.00  0.00    -0.353 N 
HETATM    8  C   UNL     1       3.731  28.442  52.044  1.00  0.00     0.249 C 
HETATM    9  O   UNL     1       3.177  28.607  53.127  1.00  0.00    -0.271 OA
HETATM   10  C   UNL     1       4.617  26.293  49.323  1.00  0.00     0.035 C 
HETATM   11  C   UNL     1       3.624  25.963  48.209  1.00  0.00     0.002 C 
HETATM   12  C   UNL     1       2.314  26.730  48.384  1.00  0.00     0.002 C 
HETATM   13  C   UNL     1       2.544  28.239  48.474  1.00  0.00     0.027 C 
HETATM   14  H   UNL     1       2.027  28.773  51.046  1.00  0.00     0.163 HD
ENDROOT
BRANCH   1  15
HETATM   15  C   UNL     1       5.500  26.794  52.702  1.00  0.00     0.146 C 
BRANCH  15  16
HETATM   16  C   UNL     1       6.210  26.993  54.012  1.00  0.00     0.224 C 
HETATM   17  N   UNL     1       6.932  26.019  54.619  1.00  0.00    -0.327 N 
HETATM   18  H   UNL     1       7.304  26.343  55.509  1.00  0.00     0.169 HD
HETATM   19  O   UNL     1       6.172  28.112  54.543  1.00  0.00    -0.273 OA
BRANCH  17  20
HETATM   20  C   UNL     1       7.268  24.687  54.302  1.00  0.00     0.035 A 
HETATM   21  C   UNL     1       7.257  23.603  55.179  1.00  0.00     0.037 A 
HETATM   22  C   UNL     1       7.629  22.310  54.752  1.00  0.00    -0.054 A 
HETATM   23  C   UNL     1       7.976  22.091  53.407  1.00  0.00    -0.056 A 
HETATM   24  C   UNL     1       7.607  21.175  55.745  1.00  0.00     0.049 C 
HETATM   25  C   UNL     1       8.369  20.731  52.897  1.00  0.00     0.049 C 
HETATM   26  C   UNL     1       7.983  23.177  52.527  1.00  0.00     0.009 A 
HETATM   27  C   UNL     1       7.633  24.455  52.970  1.00  0.00     0.030 A 
ENDBRANCH  17  20
ENDBRANCH  15  16
ENDBRANCH   1  15
TORSDOF 3
ENDMDL
MODEL 5
REMARK VINA RESULT:      -8.4      3.341      5.304
REMARK  3 active torsions:
REMARK  status: ('A' for Active; 'I' for Inactive)
REMARK    1  A    between atoms: C_6  and  N_7 
REMARK       I    between atoms: N_7  and  C_8 
REMARK    2  A    between atoms: C_8  and  C_9 
REMARK    3  A    between atoms: C_9  and  C_10 
ROOT
HETATM    1  C   UNL     1       4.986  26.649  52.926  1.00  0.00     0.286 C 
HETATM    2  N   UNL     1       3.971  27.405  53.781  1.00  0.00    -0.056 N 
HETATM    3  H   UNL     1       3.165  26.780  53.903  1.00  0.00     0.278 HD
HETATM    4  H   UNL     1       4.355  27.485  54.747  1.00  0.00     0.278 HD
HETATM    5  C   UNL     1       3.467  28.721  53.278  1.00  0.00     0.209 C 
HETATM    6  C   UNL     1       3.021  28.560  51.809  1.00  0.00     0.115 C 
HETATM    7  N   UNL     1       4.059  27.939  50.991  1.00  0.00    -0.353 N 
HETATM    8  C   UNL     1       4.858  26.910  51.413  1.00  0.00     0.249 C 
HETATM    9  O   UNL     1       5.501  26.263  50.591  1.00  0.00    -0.271 OA
HETATM   10  C   UNL     1       4.513  29.818  53.471  1.00  0.00     0.035 C 
HETATM   11  C   UNL     1       4.014  31.144  52.902  1.00  0.00     0.002 C 
HETATM   12  C   UNL     1       3.618  31.008  51.433  1.00  0.00     0.002 C 
HETATM   13  C   UNL     1       2.581  29.905  51.221  1.00  0.00     0.027 C 
HETATM   14  H   UNL     1       3.981  27.993  49.976  1.00  0.00     0.163 HD
ENDROOT
BRANCH   1  15
HETATM   15  C   UNL     1       6.452  26.872  53.346  1.00  0.00     0.146 C 
BRANCH  15  16
HETATM   16  C   UNL     1       6.688  26.677  54.817  1.00  0.00     0.224 C 
HETATM   17  N   UNL     1       7.071  25.495  55.357  1.00  0.00    -0.327 N 
HETATM   18  H   UNL     1       7.144  25.563  56.369  1.00  0.00     0.169 HD
HETATM   19  O   UNL     1       6.568  27.654  55.571  1.00  0.00    -0.273 OA
BRANCH  17  20
HETATM   20  C   UNL     1       7.378  24.219  54.840  1.00  0.00     0.035 A 
HETATM   21  C   UNL     1       7.398  23.022  55.555  1.00  0.00     0.037 A 
HETATM   22  C   UNL     1       7.736  21.801  54.932  1.00  0.00    -0.054 A 
HETATM   23  C   UNL     1       8.014  21.773  53.554  1.00  0.00    -0.056 A 
HETATM   24  C   UNL     1       7.750  20.538  55.755  1.00  0.00     0.049 C 
HETATM   25  C   UNL     1       8.369  20.497  52.839  1.00  0.00     0.049 C 
HETATM   26  C   UNL     1       7.990  22.972  52.836  1.00  0.00     0.009 A 
HETATM   27  C   UNL     1       7.675  24.176  53.472  1.00  0.00     0.030 A 
ENDBRANCH  17  20
ENDBRANCH  15  16
ENDBRANCH   1  15
TORSDOF 3
ENDMDL
MODEL 6
REMARK VINA RESULT:      -8.4      2.029      3.106
REMARK  3 active torsions:
REMARK  status: ('A' for Active; 'I' for Inactive)
REMARK    1  A    between atoms: C_6  and  N_7 
REMARK       I    between atoms: N_7  and  C_8 
REMARK    2  A    between atoms: C_8  and  C_9 
REMARK    3  A    between atoms: C_9  and  C_10 
ROOT
HETATM    1  C   UNL     1       5.540  27.008  53.974  1.00  0.00     0.286 C 
HETATM    2  N   UNL     1       5.273  26.530  55.400  1.00  0.00    -0.056 N 
HETATM    3  H   UNL     1       4.262  26.357  55.469  1.00  0.00     0.278 HD
HETATM    4  H   UNL     1       5.681  25.576  55.506  1.00  0.00     0.278 HD
HETATM    5  C   UNL     1       5.669  27.427  56.530  1.00  0.00     0.209 C 
HETATM    6  C   UNL     1       5.130  28.848  56.256  1.00  0.00     0.115 C 
HETATM    7  N   UNL     1       5.502  29.322  54.927  1.00  0.00    -0.353 N 
HETATM    8  C   UNL     1       5.509  28.538  53.803  1.00  0.00     0.249 C 
HETATM    9  O   UNL     1       5.556  29.064  52.695  1.00  0.00    -0.271 OA
HETATM   10  C   UNL     1       7.180  27.390  56.753  1.00  0.00     0.035 C 
HETATM   11  C   UNL     1       7.583  28.354  57.869  1.00  0.00     0.002 C 
HETATM   12  C   UNL     1       7.099  29.774  57.582  1.00  0.00     0.002 C 
HETATM   13  C   UNL     1       5.589  29.825  57.344  1.00  0.00     0.027 C 
HETATM   14  H   UNL     1       5.413  30.317  54.718  1.00  0.00     0.163 HD
ENDROOT
BRANCH   1  15
HETATM   15  C   UNL     1       6.847  26.466  53.365  1.00  0.00     0.146 C 
BRANCH  15  16
HETATM   16  C   UNL     1       6.623  25.477  52.254  1.00  0.00     0.224 C 
HETATM   17  N   UNL     1       6.932  24.162  52.360  1.00  0.00    -0.327 N 
HETATM   18  H   UNL     1       6.735  23.671  51.490  1.00  0.00     0.169 HD
HETATM   19  O   UNL     1       6.091  25.873  51.207  1.00  0.00    -0.273 OA
BRANCH  17  20
HETATM   20  C   UNL     1       7.459  23.343  53.379  1.00  0.00     0.035 A 
HETATM   21  C   UNL     1       7.655  23.706  54.711  1.00  0.00     0.037 A 
HETATM   22  C   UNL     1       8.207  22.802  55.645  1.00  0.00    -0.054 A 
HETATM   23  C   UNL     1       8.525  21.492  55.245  1.00  0.00    -0.056 A 
HETATM   24  C   UNL     1       8.405  23.252  57.070  1.00  0.00     0.049 C 
HETATM   25  C   UNL     1       9.104  20.487  56.203  1.00  0.00     0.049 C 
HETATM   26  C   UNL     1       8.324  21.127  53.912  1.00  0.00     0.009 A 
HETATM   27  C   UNL     1       7.797  22.040  52.994  1.00  0.00     0.030 A 
ENDBRANCH  17  20
ENDBRANCH  15  16
ENDBRANCH   1  15
TORSDOF 3
ENDMDL
MODEL 7
REMARK VINA RESULT:      -8.4      2.530      3.928
REMARK  3 active torsions:
REMARK  status: ('A' for Active; 'I' for Inactive)
REMARK    1  A    between atoms: C_6  and  N_7 
REMARK       I    between atoms: N_7  and  C_8 
REMARK    2  A    between atoms: C_8  and  C_9 
REMARK    3  A    between atoms: C_9  and  C_10 
ROOT
HETATM    1  C   UNL     1       6.354  26.967  55.518  1.00  0.00     0.286 C 
HETATM    2  N   UNL     1       5.242  27.259  56.524  1.00  0.00    -0.056 N 
HETATM    3  H   UNL     1       4.416  26.735  56.211  1.00  0.00     0.278 HD
HETATM    4  H   UNL     1       5.487  26.794  57.425  1.00  0.00     0.278 HD
HETATM    5  C   UNL     1       4.838  28.684  56.733  1.00  0.00     0.209 C 
HETATM    6  C   UNL     1       4.601  29.346  55.359  1.00  0.00     0.115 C 
HETATM    7  N   UNL     1       5.732  29.148  54.458  1.00  0.00    -0.353 N 
HETATM    8  C   UNL     1       6.445  27.981  54.364  1.00  0.00     0.249 C 
HETATM    9  O   UNL     1       7.186  27.798  53.402  1.00  0.00    -0.271 OA
HETATM   10  C   UNL     1       5.866  29.425  57.587  1.00  0.00     0.035 C 
HETATM   11  C   UNL     1       5.477  30.893  57.746  1.00  0.00     0.002 C 
HETATM   12  C   UNL     1       5.290  31.572  56.391  1.00  0.00     0.002 C 
HETATM   13  C   UNL     1       4.272  30.834  55.519  1.00  0.00     0.027 C 
HETATM   14  H   UNL     1       5.799  29.725  53.621  1.00  0.00     0.163 HD
ENDROOT
BRANCH   1  15
HETATM   15  C   UNL     1       7.749  26.809  56.152  1.00  0.00     0.146 C 
BRANCH  15  16
HETATM   16  C   UNL     1       7.754  25.938  57.377  1.00  0.00     0.224 C 
HETATM   17  N   UNL     1       7.848  24.587  57.326  1.00  0.00    -0.327 N 
HETATM   18  H   UNL     1       7.800  24.183  58.259  1.00  0.00     0.169 HD
HETATM   19  O   UNL     1       7.713  26.481  58.490  1.00  0.00    -0.273 OA
BRANCH  17  20
HETATM   20  C   UNL     1       7.987  23.638  56.293  1.00  0.00     0.035 A 
HETATM   21  C   UNL     1       7.838  23.878  54.927  1.00  0.00     0.037 A 
HETATM   22  C   UNL     1       7.987  22.841  53.979  1.00  0.00    -0.054 A 
HETATM   23  C   UNL     1       8.338  21.549  54.407  1.00  0.00    -0.056 A 
HETATM   24  C   UNL     1       7.807  23.156  52.516  1.00  0.00     0.049 C 
HETATM   25  C   UNL     1       8.521  20.412  53.438  1.00  0.00     0.049 C 
HETATM   26  C   UNL     1       8.492  21.310  55.775  1.00  0.00     0.009 A 
HETATM   27  C   UNL     1       8.319  22.341  56.702  1.00  0.00     0.030 A 
ENDBRANCH  17  20
ENDBRANCH  15  16
ENDBRANCH   1  15
TORSDOF 3
ENDMDL
MODEL 8
REMARK VINA RESULT:      -8.2      2.437      3.607
REMARK  3 active torsions:
REMARK  status: ('A' for Active; 'I' for Inactive)
REMARK    1  A    between atoms: C_6  and  N_7 
REMARK       I    between atoms: N_7  and  C_8 
REMARK    2  A    between atoms: C_8  and  C_9 
REMARK    3  A    between atoms: C_9  and  C_10 
ROOT
HETATM    1  C   UNL     1       4.958  27.620  53.762  1.00  0.00     0.286 C 
HETATM    2  N   UNL     1       4.240  27.555  55.108  1.00  0.00    -0.056 N 
HETATM    3  H   UNL     1       3.794  28.470  55.249  1.00  0.00     0.278 HD
HETATM    4  H   UNL     1       3.426  26.910  55.012  1.00  0.00     0.278 HD
HETATM    5  C   UNL     1       5.051  27.241  56.325  1.00  0.00     0.209 C 
HETATM    6  C   UNL     1       6.298  28.151  56.347  1.00  0.00     0.115 C 
HETATM    7  N   UNL     1       7.028  28.102  55.084  1.00  0.00    -0.353 N 
HETATM    8  C   UNL     1       6.432  28.057  53.851  1.00  0.00     0.249 C 
HETATM    9  O   UNL     1       7.094  28.300  52.847  1.00  0.00    -0.271 OA
HETATM   10  C   UNL     1       5.394  25.752  56.385  1.00  0.00     0.035 C 
HETATM   11  C   UNL     1       6.272  25.451  57.598  1.00  0.00     0.002 C 
HETATM   12  C   UNL     1       7.534  26.310  57.602  1.00  0.00     0.002 C 
HETATM   13  C   UNL     1       7.208  27.803  57.529  1.00  0.00     0.027 C 
HETATM   14  H   UNL     1       7.980  28.466  55.054  1.00  0.00     0.163 HD
ENDROOT
BRANCH   1  15
HETATM   15  C   UNL     1       4.875  26.319  52.941  1.00  0.00     0.146 C 
BRANCH  15  16
HETATM   16  C   UNL     1       5.858  26.265  51.805  1.00  0.00     0.224 C 
HETATM   17  N   UNL     1       6.921  25.425  51.784  1.00  0.00    -0.327 N 
HETATM   18  H   UNL     1       7.480  25.567  50.946  1.00  0.00     0.169 HD
HETATM   19  O   UNL     1       5.665  26.992  50.820  1.00  0.00    -0.273 OA
BRANCH  17  20
HETATM   20  C   UNL     1       7.417  24.427  52.648  1.00  0.00     0.035 A 
HETATM   21  C   UNL     1       7.517  23.065  52.364  1.00  0.00     0.037 A 
HETATM   22  C   UNL     1       8.018  22.152  53.317  1.00  0.00    -0.054 A 
HETATM   23  C   UNL     1       8.471  22.620  54.563  1.00  0.00    -0.056 A 
HETATM   24  C   UNL     1       8.096  20.689  52.959  1.00  0.00     0.049 C 
HETATM   25  C   UNL     1       9.025  21.691  55.609  1.00  0.00     0.049 C 
HETATM   26  C   UNL     1       8.375  23.985  54.846  1.00  0.00     0.009 A 
HETATM   27  C   UNL     1       7.856  24.874  53.900  1.00  0.00     0.030 A 
ENDBRANCH  17  20
ENDBRANCH  15  16
ENDBRANCH   1  15
TORSDOF 3
ENDMDL
MODEL 9
REMARK VINA RESULT:      -8.1      2.195      3.529
REMARK  3 active torsions:
REMARK  status: ('A' for Active; 'I' for Inactive)
REMARK    1  A    between atoms: C_6  and  N_7 
REMARK       I    between atoms: N_7  and  C_8 
REMARK    2  A    between atoms: C_8  and  C_9 
REMARK    3  A    between atoms: C_9  and  C_10 
ROOT
HETATM    1  C   UNL     1       6.410  29.580  56.963  1.00  0.00     0.286 C 
HETATM    2  N   UNL     1       5.560  30.799  56.609  1.00  0.00    -0.056 N 
HETATM    3  H   UNL     1       6.120  31.371  55.964  1.00  0.00     0.278 HD
HETATM    4  H   UNL     1       4.766  30.481  56.012  1.00  0.00     0.278 HD
HETATM    5  C   UNL     1       5.092  31.679  57.723  1.00  0.00     0.209 C 
HETATM    6  C   UNL     1       6.292  32.021  58.633  1.00  0.00     0.115 C 
HETATM    7  N   UNL     1       7.015  30.823  59.049  1.00  0.00    -0.353 N 
HETATM    8  C   UNL     1       7.263  29.751  58.234  1.00  0.00     0.249 C 
HETATM    9  O   UNL     1       8.105  28.920  58.561  1.00  0.00    -0.271 OA
HETATM   10  C   UNL     1       3.930  31.034  58.479  1.00  0.00     0.035 C 
HETATM   11  C   UNL     1       3.497  31.912  59.652  1.00  0.00     0.002 C 
HETATM   12  C   UNL     1       4.667  32.214  60.586  1.00  0.00     0.002 C 
HETATM   13  C   UNL     1       5.843  32.848  59.842  1.00  0.00     0.027 C 
HETATM   14  H   UNL     1       7.671  30.893  59.827  1.00  0.00     0.163 HD
ENDROOT
BRANCH   1  15
HETATM   15  C   UNL     1       5.610  28.268  57.074  1.00  0.00     0.146 C 
BRANCH  15  16
HETATM   16  C   UNL     1       4.601  28.088  55.975  1.00  0.00     0.224 C 
HETATM   17  N   UNL     1       4.716  27.144  55.009  1.00  0.00    -0.327 N 
HETATM   18  H   UNL     1       3.949  27.209  54.343  1.00  0.00     0.169 HD
HETATM   19  O   UNL     1       3.592  28.808  55.974  1.00  0.00    -0.273 OA
BRANCH  17  20
HETATM   20  C   UNL     1       5.643  26.121  54.725  1.00  0.00     0.035 A 
HETATM   21  C   UNL     1       6.371  25.972  53.545  1.00  0.00     0.037 A 
HETATM   22  C   UNL     1       7.265  24.894  53.365  1.00  0.00    -0.054 A 
HETATM   23  C   UNL     1       7.466  23.972  54.408  1.00  0.00    -0.056 A 
HETATM   24  C   UNL     1       8.020  24.777  52.065  1.00  0.00     0.049 C 
HETATM   25  C   UNL     1       8.415  22.812  54.272  1.00  0.00     0.049 C 
HETATM   26  C   UNL     1       6.740  24.124  55.592  1.00  0.00     0.009 A 
HETATM   27  C   UNL     1       5.843  25.184  55.746  1.00  0.00     0.030 A 
ENDBRANCH  17  20
ENDBRANCH  15  16
ENDBRANCH   1  15
TORSDOF 3
ENDMDL
MODEL 10
REMARK VINA RESULT:      -8.0      4.642      7.283
REMARK  3 active torsions:
REMARK  status: ('A' for Active; 'I' for Inactive)
REMARK    1  A    between atoms: C_6  and  N_7 
REMARK       I    between atoms: N_7  and  C_8 
REMARK    2  A    between atoms: C_8  and  C_9 
REMARK    3  A    between atoms: C_9  and  C_10 
ROOT
HETATM    1  C   UNL     1       3.983  32.635  61.313  1.00  0.00     0.286 C 
HETATM    2  N   UNL     1       4.487  31.515  62.221  1.00  0.00    -0.056 N 
HETATM    3  H   UNL     1       3.668  31.149  62.721  1.00  0.00     0.278 HD
HETATM    4  H   UNL     1       4.773  30.712  61.620  1.00  0.00     0.278 HD
HETATM    5  C   UNL     1       5.538  31.847  63.232  1.00  0.00     0.209 C 
HETATM    6  C   UNL     1       5.107  33.110  64.009  1.00  0.00     0.115 C 
HETATM    7  N   UNL     1       4.741  34.201  63.112  1.00  0.00    -0.353 N 
HETATM    8  C   UNL     1       4.041  34.037  61.945  1.00  0.00     0.249 C 
HETATM    9  O   UNL     1       3.533  35.012  61.399  1.00  0.00    -0.271 OA
HETATM   10  C   UNL     1       6.909  31.989  62.570  1.00  0.00     0.035 C 
HETATM   11  C   UNL     1       7.965  32.387  63.600  1.00  0.00     0.002 C 
HETATM   12  C   UNL     1       7.572  33.664  64.339  1.00  0.00     0.002 C 
HETATM   13  C   UNL     1       6.196  33.543  64.996  1.00  0.00     0.027 C 
HETATM   14  H   UNL     1       4.668  35.145  63.492  1.00  0.00     0.163 HD
ENDROOT
BRANCH   1  15
HETATM   15  C   UNL     1       4.669  32.683  59.934  1.00  0.00     0.146 C 
BRANCH  15  16
HETATM   16  C   UNL     1       4.205  31.602  58.998  1.00  0.00     0.224 C 
HETATM   17  N   UNL     1       5.055  30.819  58.290  1.00  0.00    -0.327 N 
HETATM   18  H   UNL     1       4.543  30.174  57.692  1.00  0.00     0.169 HD
HETATM   19  O   UNL     1       2.989  31.385  58.900  1.00  0.00    -0.273 OA
BRANCH  17  20
HETATM   20  C   UNL     1       6.457  30.708  58.194  1.00  0.00     0.035 A 
HETATM   21  C   UNL     1       7.394  31.382  58.976  1.00  0.00     0.037 A 
HETATM   22  C   UNL     1       8.781  31.202  58.779  1.00  0.00    -0.054 A 
HETATM   23  C   UNL     1       9.236  30.293  57.808  1.00  0.00    -0.056 A 
HETATM   24  C   UNL     1       9.749  31.963  59.649  1.00  0.00     0.049 C 
HETATM   25  C   UNL     1      10.702  30.055  57.565  1.00  0.00     0.049 C 
HETATM   26  C   UNL     1       8.297  29.614  57.027  1.00  0.00     0.009 A 
HETATM   27  C   UNL     1       6.928  29.820  57.219  1.00  0.00     0.030 A 
ENDBRANCH  17  20
ENDBRANCH  15  16
ENDBRANCH   1  15
TORSDOF 3
ENDMDL
