MODEL 1
REMARK VINA RESULT:      -8.5      0.000      0.000
REMARK  7 active torsions:
REMARK  status: ('A' for Active; 'I' for Inactive)
REMARK    1  A    between atoms: O_2  and  C_3 
REMARK    2  A    between atoms: C_4  and  O_5 
REMARK    3  A    between atoms: O_5  and  C_6 
REMARK       I    between atoms: C_6  and  N_7 
REMARK    4  A    between atoms: C_14  and  O_15 
REMARK    5  A    between atoms: C_18  and  C_19 
REMARK    6  A    between atoms: C_23  and  N_24 
REMARK    7  A    between atoms: C_31  and  C_32 
ROOT
HETATM    1  C   UNL     1       5.809  32.819  60.063  1.00  0.00     0.106 A 
HETATM    2  C   UNL     1       5.905  32.207  61.469  1.00  0.00     0.081 A 
HETATM    3  C   UNL     1       7.210  31.871  61.934  1.00  0.00     0.100 C 
HETATM    4  N   UNL     1       8.281  31.617  62.303  1.00  0.00    -0.191 NA
HETATM    5  C   UNL     1       4.825  32.046  62.282  1.00  0.00     0.140 A 
HETATM    6  O   UNL     1       3.538  32.448  61.896  1.00  0.00    -0.279 OA
HETATM    7  C   UNL     1       3.443  33.081  60.734  1.00  0.00     0.175 A 
HETATM    8  C   UNL     1       4.427  33.321  59.809  1.00  0.00     0.040 A 
HETATM    9  N   UNL     1       2.298  33.618  60.246  1.00  0.00    -0.256 N 
HETATM   10  H   UNL     1       1.378  33.628  60.671  1.00  0.00     0.191 HD
HETATM   11  N   UNL     1       2.468  34.191  59.042  1.00  0.00    -0.172 NA
HETATM   12  C   UNL     1       3.781  34.048  58.768  1.00  0.00     0.099 A 
ENDROOT
BRANCH   1  13
HETATM   13  C   UNL     1       6.162  31.801  58.976  1.00  0.00    -0.039 C 
HETATM   14  C   UNL     1       5.207  30.985  58.330  1.00  0.00     0.048 C 
HETATM   15  C   UNL     1       5.594  29.980  57.439  1.00  0.00     0.105 C 
HETATM   16  C   UNL     1       6.956  29.713  57.273  1.00  0.00     0.147 C 
HETATM   17  C   UNL     1       7.920  30.549  57.833  1.00  0.00     0.105 C 
HETATM   18  C   UNL     1       7.525  31.582  58.687  1.00  0.00     0.048 C 
BRANCH  15  19
HETATM   19  O   UNL     1       4.711  29.189  56.750  1.00  0.00    -0.353 OA
HETATM   20  C   UNL     1       4.216  29.751  55.539  1.00  0.00     0.210 C 
ENDBRANCH  15  19
BRANCH  16  21
HETATM   21  O   UNL     1       7.390  28.625  56.505  1.00  0.00    -0.256 OA
BRANCH  21  22
HETATM   22  C   UNL     1       7.338  27.417  57.195  1.00  0.00     0.368 C 
HETATM   23  N   UNL     1       6.628  26.448  56.506  1.00  0.00    -0.324 N 
HETATM   24  C   UNL     1       6.420  26.480  55.060  1.00  0.00     0.154 C 
HETATM   25  C   UNL     1       6.395  25.142  57.113  1.00  0.00     0.154 C 
HETATM   26  C   UNL     1       7.234  25.356  54.398  1.00  0.00     0.187 C 
HETATM   27  O   UNL     1       6.914  24.077  54.974  1.00  0.00    -0.388 OA
HETATM   28  C   UNL     1       7.202  24.064  56.385  1.00  0.00     0.187 C 
HETATM   29  O   UNL     1       7.846  27.206  58.295  1.00  0.00    -0.238 OA
ENDBRANCH  21  22
ENDBRANCH  16  21
BRANCH  17  30
HETATM   30  O   UNL     1       9.243  30.282  57.599  1.00  0.00    -0.353 OA
HETATM   31  C   UNL     1      10.090  31.238  58.234  1.00  0.00     0.210 C 
ENDBRANCH  17  30
ENDBRANCH   1  13
BRANCH   5  32
HETATM   32  N   UNL     1       4.855  31.500  63.547  1.00  0.00    -0.282 NA
HETATM   33  H   UNL     1       4.394  32.050  64.268  1.00  0.00     0.126 HD
HETATM   34  H   UNL     1       5.795  31.218  63.815  1.00  0.00     0.126 HD
ENDBRANCH   5  32
BRANCH  12  35
HETATM   35  C   UNL     1       4.333  34.573  57.519  1.00  0.00    -0.005 A 
HETATM   36  C   UNL     1       4.652  35.930  57.373  1.00  0.00     0.015 A 
HETATM   37  C   UNL     1       5.174  36.410  56.168  1.00  0.00     0.020 A 
HETATM   38  C   UNL     1       5.372  35.535  55.100  1.00  0.00     0.011 A 
HETATM   39 BR   UNL     1       6.070  36.189  53.469  1.00  0.00    -0.051 Br
HETATM   40  C   UNL     1       5.050  34.187  55.223  1.00  0.00     0.020 A 
HETATM   41  C   UNL     1       4.530  33.710  56.429  1.00  0.00     0.015 A 
ENDBRANCH  12  35
TORSDOF 7
ENDMDL
MODEL 2
REMARK VINA RESULT:      -8.2      0.860      2.215
REMARK  7 active torsions:
REMARK  status: ('A' for Active; 'I' for Inactive)
REMARK    1  A    between atoms: O_2  and  C_3 
REMARK    2  A    between atoms: C_4  and  O_5 
REMARK    3  A    between atoms: O_5  and  C_6 
REMARK       I    between atoms: C_6  and  N_7 
REMARK    4  A    between atoms: C_14  and  O_15 
REMARK    5  A    between atoms: C_18  and  C_19 
REMARK    6  A    between atoms: C_23  and  N_24 
REMARK    7  A    between atoms: C_31  and  C_32 
ROOT
HETATM    1  C   UNL     1       5.687  33.375  60.476  1.00  0.00     0.106 A 
HETATM    2  C   UNL     1       5.733  33.029  61.972  1.00  0.00     0.081 A 
HETATM    3  C   UNL     1       7.023  32.815  62.541  1.00  0.00     0.100 C 
HETATM    4  N   UNL     1       8.081  32.659  62.992  1.00  0.00    -0.191 NA
HETATM    5  C   UNL     1       4.622  32.988  62.758  1.00  0.00     0.140 A 
HETATM    6  O   UNL     1       3.346  33.281  62.255  1.00  0.00    -0.279 OA
HETATM    7  C   UNL     1       3.289  33.692  60.995  1.00  0.00     0.175 A 
HETATM    8  C   UNL     1       4.308  33.788  60.082  1.00  0.00     0.040 A 
HETATM    9  N   UNL     1       2.157  34.103  60.374  1.00  0.00    -0.256 N 
HETATM   10  H   UNL     1       1.219  34.165  60.754  1.00  0.00     0.191 HD
HETATM   11  N   UNL     1       2.368  34.456  59.094  1.00  0.00    -0.172 NA
HETATM   12  C   UNL     1       3.694  34.299  58.902  1.00  0.00     0.099 A 
ENDROOT
BRANCH   1  13
HETATM   13  C   UNL     1       6.105  32.189  59.605  1.00  0.00    -0.039 C 
HETATM   14  C   UNL     1       7.444  31.912  59.253  1.00  0.00     0.048 C 
HETATM   15  C   UNL     1       7.763  30.894  58.349  1.00  0.00     0.105 C 
HETATM   16  C   UNL     1       6.725  30.216  57.704  1.00  0.00     0.147 C 
HETATM   17  C   UNL     1       5.400  30.411  58.087  1.00  0.00     0.105 C 
HETATM   18  C   UNL     1       5.090  31.398  59.025  1.00  0.00     0.048 C 
BRANCH  15  19
HETATM   19  O   UNL     1       9.046  30.552  58.007  1.00  0.00    -0.353 OA
HETATM   20  C   UNL     1      10.048  31.470  58.428  1.00  0.00     0.210 C 
ENDBRANCH  15  19
BRANCH  16  21
HETATM   21  O   UNL     1       6.990  29.291  56.687  1.00  0.00    -0.256 OA
BRANCH  21  22
HETATM   22  C   UNL     1       7.037  27.977  57.146  1.00  0.00     0.368 C 
HETATM   23  N   UNL     1       6.156  27.152  56.468  1.00  0.00    -0.324 N 
HETATM   24  C   UNL     1       5.644  27.447  55.132  1.00  0.00     0.154 C 
HETATM   25  C   UNL     1       6.004  25.757  56.870  1.00  0.00     0.154 C 
HETATM   26  C   UNL     1       6.248  26.461  54.119  1.00  0.00     0.187 C 
HETATM   27  O   UNL     1       6.006  25.099  54.515  1.00  0.00    -0.388 OA
HETATM   28  C   UNL     1       6.590  24.828  55.803  1.00  0.00     0.187 C 
HETATM   29  O   UNL     1       7.760  27.568  58.052  1.00  0.00    -0.238 OA
ENDBRANCH  21  22
ENDBRANCH  16  21
BRANCH  17  30
HETATM   30  O   UNL     1       4.418  29.684  57.465  1.00  0.00    -0.353 OA
HETATM   31  C   UNL     1       3.227  30.451  57.296  1.00  0.00     0.210 C 
ENDBRANCH  17  30
ENDBRANCH   1  13
BRANCH   5  32
HETATM   32  N   UNL     1       4.607  32.678  64.101  1.00  0.00    -0.282 NA
HETATM   33  H   UNL     1       4.563  33.477  64.730  1.00  0.00     0.126 HD
HETATM   34  H   UNL     1       5.351  32.030  64.348  1.00  0.00     0.126 HD
ENDBRANCH   5  32
BRANCH  12  35
HETATM   35  C   UNL     1       4.290  34.606  57.602  1.00  0.00    -0.005 A 
HETATM   36  C   UNL     1       4.728  35.899  57.284  1.00  0.00     0.015 A 
HETATM   37  C   UNL     1       5.290  36.169  56.032  1.00  0.00     0.020 A 
HETATM   38  C   UNL     1       5.409  35.149  55.090  1.00  0.00     0.011 A 
HETATM   39 BR   UNL     1       6.161  35.520  53.395  1.00  0.00    -0.051 Br
HETATM   40  C   UNL     1       4.968  33.862  55.383  1.00  0.00     0.020 A 
HETATM   41  C   UNL     1       4.409  33.594  56.636  1.00  0.00     0.015 A 
ENDBRANCH  12  35
TORSDOF 7
ENDMDL
MODEL 3
REMARK VINA RESULT:      -8.2      4.288      7.046
REMARK  7 active torsions:
REMARK  status: ('A' for Active; 'I' for Inactive)
REMARK    1  A    between atoms: O_2  and  C_3 
REMARK    2  A    between atoms: C_4  and  O_5 
REMARK    3  A    between atoms: O_5  and  C_6 
REMARK       I    between atoms: C_6  and  N_7 
REMARK    4  A    between atoms: C_14  and  O_15 
REMARK    5  A    between atoms: C_18  and  C_19 
REMARK    6  A    between atoms: C_23  and  N_24 
REMARK    7  A    between atoms: C_31  and  C_32 
ROOT
HETATM    1  C   UNL     1       5.613  29.687  57.434  1.00  0.00     0.106 A 
HETATM    2  C   UNL     1       5.200  30.826  58.379  1.00  0.00     0.081 A 
HETATM    3  C   UNL     1       3.841  30.838  58.812  1.00  0.00     0.100 C 
HETATM    4  N   UNL     1       2.736  30.825  59.166  1.00  0.00    -0.191 NA
HETATM    5  C   UNL     1       6.077  31.752  58.853  1.00  0.00     0.140 A 
HETATM    6  O   UNL     1       7.441  31.719  58.522  1.00  0.00    -0.279 OA
HETATM    7  C   UNL     1       7.847  30.684  57.799  1.00  0.00     0.175 A 
HETATM    8  C   UNL     1       7.094  29.676  57.253  1.00  0.00     0.040 A 
HETATM    9  N   UNL     1       9.138  30.443  57.465  1.00  0.00    -0.256 N 
HETATM   10  H   UNL     1       9.960  30.984  57.706  1.00  0.00     0.191 HD
HETATM   11  N   UNL     1       9.280  29.336  56.716  1.00  0.00    -0.172 NA
HETATM   12  C   UNL     1       8.036  28.830  56.600  1.00  0.00     0.099 A 
ENDROOT
BRANCH   1  13
HETATM   13  C   UNL     1       4.957  29.824  56.058  1.00  0.00    -0.039 C 
HETATM   14  C   UNL     1       4.448  28.731  55.324  1.00  0.00     0.048 C 
HETATM   15  C   UNL     1       3.977  28.890  54.016  1.00  0.00     0.105 C 
HETATM   16  C   UNL     1       4.117  30.134  53.396  1.00  0.00     0.147 C 
HETATM   17  C   UNL     1       4.541  31.248  54.119  1.00  0.00     0.105 C 
HETATM   18  C   UNL     1       4.966  31.092  55.440  1.00  0.00     0.048 C 
BRANCH  15  19
HETATM   19  O   UNL     1       3.431  27.875  53.273  1.00  0.00    -0.353 OA
HETATM   20  C   UNL     1       4.247  26.716  53.143  1.00  0.00     0.210 C 
ENDBRANCH  15  19
BRANCH  16  21
HETATM   21  O   UNL     1       3.795  30.307  52.044  1.00  0.00    -0.256 OA
BRANCH  21  22
HETATM   22  C   UNL     1       4.760  29.790  51.185  1.00  0.00     0.368 C 
HETATM   23  N   UNL     1       4.229  28.887  50.279  1.00  0.00    -0.324 N 
HETATM   24  C   UNL     1       2.818  28.865  49.899  1.00  0.00     0.154 C 
HETATM   25  C   UNL     1       5.106  28.178  49.352  1.00  0.00     0.154 C 
HETATM   26  C   UNL     1       2.668  29.341  48.446  1.00  0.00     0.187 C 
HETATM   27  O   UNL     1       3.490  28.562  47.558  1.00  0.00    -0.388 OA
HETATM   28  C   UNL     1       4.879  28.670  47.921  1.00  0.00     0.187 C 
HETATM   29  O   UNL     1       5.956  30.075  51.207  1.00  0.00    -0.238 OA
ENDBRANCH  21  22
ENDBRANCH  16  21
BRANCH  17  30
HETATM   30  O   UNL     1       4.611  32.460  53.484  1.00  0.00    -0.353 OA
HETATM   31  C   UNL     1       4.759  33.531  54.415  1.00  0.00     0.210 C 
ENDBRANCH  17  30
ENDBRANCH   1  13
BRANCH   5  32
HETATM   32  N   UNL     1       5.759  32.794  59.696  1.00  0.00    -0.282 NA
HETATM   33  H   UNL     1       6.553  33.252  60.138  1.00  0.00     0.126 HD
HETATM   34  H   UNL     1       5.040  32.532  60.366  1.00  0.00     0.126 HD
ENDBRANCH   5  32
BRANCH  12  35
HETATM   35  C   UNL     1       7.811  27.597  55.845  1.00  0.00    -0.005 A 
HETATM   36  C   UNL     1       7.611  26.369  56.489  1.00  0.00     0.015 A 
HETATM   37  C   UNL     1       7.403  25.203  55.746  1.00  0.00     0.020 A 
HETATM   38  C   UNL     1       7.402  25.259  54.353  1.00  0.00     0.011 A 
HETATM   39 BR   UNL     1       7.130  23.680  53.351  1.00  0.00    -0.051 Br
HETATM   40  C   UNL     1       7.611  26.467  53.695  1.00  0.00     0.020 A 
HETATM   41  C   UNL     1       7.816  27.631  54.441  1.00  0.00     0.015 A 
ENDBRANCH  12  35
TORSDOF 7
ENDMDL
MODEL 4
REMARK VINA RESULT:      -8.1      1.678      2.915
REMARK  7 active torsions:
REMARK  status: ('A' for Active; 'I' for Inactive)
REMARK    1  A    between atoms: O_2  and  C_3 
REMARK    2  A    between atoms: C_4  and  O_5 
REMARK    3  A    between atoms: O_5  and  C_6 
REMARK       I    between atoms: C_6  and  N_7 
REMARK    4  A    between atoms: C_14  and  O_15 
REMARK    5  A    between atoms: C_18  and  C_19 
REMARK    6  A    between atoms: C_23  and  N_24 
REMARK    7  A    between atoms: C_31  and  C_32 
ROOT
HETATM    1  C   UNL     1       6.709  32.178  59.041  1.00  0.00     0.106 A 
HETATM    2  C   UNL     1       7.375  32.209  60.426  1.00  0.00     0.081 A 
HETATM    3  C   UNL     1       8.798  32.296  60.450  1.00  0.00     0.100 C 
HETATM    4  N   UNL     1       9.955  32.382  60.453  1.00  0.00    -0.191 NA
HETATM    5  C   UNL     1       6.668  32.224  61.589  1.00  0.00     0.140 A 
HETATM    6  O   UNL     1       5.265  32.231  61.604  1.00  0.00    -0.279 OA
HETATM    7  C   UNL     1       4.663  32.317  60.425  1.00  0.00     0.175 A 
HETATM    8  C   UNL     1       5.229  32.314  59.176  1.00  0.00     0.040 A 
HETATM    9  N   UNL     1       3.324  32.427  60.256  1.00  0.00    -0.256 N 
HETATM   10  H   UNL     1       2.601  32.464  60.966  1.00  0.00     0.191 HD
HETATM   11  N   UNL     1       2.969  32.485  58.960  1.00  0.00    -0.172 NA
HETATM   12  C   UNL     1       4.131  32.449  58.277  1.00  0.00     0.099 A 
ENDROOT
BRANCH   1  13
HETATM   13  C   UNL     1       7.011  30.877  58.295  1.00  0.00    -0.039 C 
HETATM   14  C   UNL     1       8.237  30.616  57.645  1.00  0.00     0.048 C 
HETATM   15  C   UNL     1       8.417  29.468  56.866  1.00  0.00     0.105 C 
HETATM   16  C   UNL     1       7.324  28.626  56.644  1.00  0.00     0.147 C 
HETATM   17  C   UNL     1       6.127  28.814  57.333  1.00  0.00     0.105 C 
HETATM   18  C   UNL     1       5.968  29.937  58.147  1.00  0.00     0.048 C 
BRANCH  15  19
HETATM   19  O   UNL     1       9.597  29.141  56.251  1.00  0.00    -0.353 OA
HETATM   20  C   UNL     1      10.758  29.741  56.815  1.00  0.00     0.210 C 
ENDBRANCH  15  19
BRANCH  16  21
HETATM   21  O   UNL     1       7.414  27.545  55.758  1.00  0.00    -0.256 OA
BRANCH  21  22
HETATM   22  C   UNL     1       7.766  26.354  56.387  1.00  0.00     0.368 C 
HETATM   23  N   UNL     1       7.294  25.242  55.709  1.00  0.00    -0.324 N 
HETATM   24  C   UNL     1       6.952  25.252  54.288  1.00  0.00     0.154 C 
HETATM   25  C   UNL     1       7.493  23.908  56.265  1.00  0.00     0.154 C 
HETATM   26  C   UNL     1       7.982  24.422  53.506  1.00  0.00     0.187 C 
HETATM   27  O   UNL     1       8.088  23.090  54.039  1.00  0.00    -0.388 OA
HETATM   28  C   UNL     1       8.498  23.122  55.419  1.00  0.00     0.187 C 
HETATM   29  O   UNL     1       8.412  26.267  57.429  1.00  0.00    -0.238 OA
ENDBRANCH  21  22
ENDBRANCH  16  21
BRANCH  17  30
HETATM   30  O   UNL     1       5.100  27.931  57.126  1.00  0.00    -0.353 OA
HETATM   31  C   UNL     1       4.330  28.284  55.977  1.00  0.00     0.210 C 
ENDBRANCH  17  30
ENDBRANCH   1  13
BRANCH   5  32
HETATM   32  N   UNL     1       7.214  32.246  62.854  1.00  0.00    -0.282 NA
HETATM   33  H   UNL     1       6.605  31.906  63.595  1.00  0.00     0.126 HD
HETATM   34  H   UNL     1       7.624  33.151  63.072  1.00  0.00     0.126 HD
ENDBRANCH   5  32
BRANCH  12  35
HETATM   35  C   UNL     1       4.128  32.505  56.816  1.00  0.00    -0.005 A 
HETATM   36  C   UNL     1       3.341  31.633  56.051  1.00  0.00     0.015 A 
HETATM   37  C   UNL     1       3.358  31.702  54.654  1.00  0.00     0.020 A 
HETATM   38  C   UNL     1       4.169  32.639  54.016  1.00  0.00     0.011 A 
HETATM   39 BR   UNL     1       4.197  32.724  52.128  1.00  0.00    -0.051 Br
HETATM   40  C   UNL     1       4.967  33.504  54.758  1.00  0.00     0.020 A 
HETATM   41  C   UNL     1       4.946  33.434  56.154  1.00  0.00     0.015 A 
ENDBRANCH  12  35
TORSDOF 7
ENDMDL
MODEL 5
REMARK VINA RESULT:      -8.0      3.810      6.567
REMARK  7 active torsions:
REMARK  status: ('A' for Active; 'I' for Inactive)
REMARK    1  A    between atoms: O_2  and  C_3 
REMARK    2  A    between atoms: C_4  and  O_5 
REMARK    3  A    between atoms: O_5  and  C_6 
REMARK       I    between atoms: C_6  and  N_7 
REMARK    4  A    between atoms: C_14  and  O_15 
REMARK    5  A    between atoms: C_18  and  C_19 
REMARK    6  A    between atoms: C_23  and  N_24 
REMARK    7  A    between atoms: C_31  and  C_32 
ROOT
HETATM    1  C   UNL     1       2.872  36.153  59.583  1.00  0.00     0.106 A 
HETATM    2  C   UNL     1       2.252  36.535  58.230  1.00  0.00     0.081 A 
HETATM    3  C   UNL     1       1.106  35.793  57.819  1.00  0.00     0.100 C 
HETATM    4  N   UNL     1       0.165  35.190  57.506  1.00  0.00    -0.191 NA
HETATM    5  C   UNL     1       2.708  37.568  57.470  1.00  0.00     0.140 A 
HETATM    6  O   UNL     1       3.776  38.379  57.884  1.00  0.00    -0.279 OA
HETATM    7  C   UNL     1       4.258  38.144  59.097  1.00  0.00     0.175 A 
HETATM    8  C   UNL     1       3.908  37.151  59.977  1.00  0.00     0.040 A 
HETATM    9  N   UNL     1       5.224  38.883  59.693  1.00  0.00    -0.256 N 
HETATM   10  H   UNL     1       5.706  39.697  59.329  1.00  0.00     0.191 HD
HETATM   11  N   UNL     1       5.543  38.428  60.917  1.00  0.00    -0.172 NA
HETATM   12  C   UNL     1       4.721  37.379  61.125  1.00  0.00     0.099 A 
ENDROOT
BRANCH   1  13
HETATM   13  C   UNL     1       3.523  34.769  59.540  1.00  0.00    -0.039 C 
HETATM   14  C   UNL     1       3.566  33.892  60.645  1.00  0.00     0.048 C 
HETATM   15  C   UNL     1       4.286  32.694  60.595  1.00  0.00     0.105 C 
HETATM   16  C   UNL     1       5.063  32.421  59.465  1.00  0.00     0.147 C 
HETATM   17  C   UNL     1       4.979  33.226  58.331  1.00  0.00     0.105 C 
HETATM   18  C   UNL     1       4.220  34.398  58.371  1.00  0.00     0.048 C 
BRANCH  15  19
HETATM   19  O   UNL     1       4.325  31.784  61.619  1.00  0.00    -0.353 OA
HETATM   20  C   UNL     1       5.233  32.096  62.669  1.00  0.00     0.210 C 
ENDBRANCH  15  19
BRANCH  16  21
HETATM   21  O   UNL     1       5.912  31.308  59.425  1.00  0.00    -0.256 OA
BRANCH  21  22
HETATM   22  C   UNL     1       7.257  31.647  59.550  1.00  0.00     0.368 C 
HETATM   23  N   UNL     1       8.097  30.608  59.183  1.00  0.00    -0.324 N 
HETATM   24  C   UNL     1       7.690  29.522  58.294  1.00  0.00     0.154 C 
HETATM   25  C   UNL     1       9.542  30.749  59.329  1.00  0.00     0.154 C 
HETATM   26  C   UNL     1       8.420  29.657  56.948  1.00  0.00     0.187 C 
HETATM   27  O   UNL     1       9.846  29.713  57.135  1.00  0.00    -0.388 OA
HETATM   28  C   UNL     1      10.211  30.839  57.955  1.00  0.00     0.187 C 
HETATM   29  O   UNL     1       7.682  32.730  59.947  1.00  0.00    -0.238 OA
ENDBRANCH  21  22
ENDBRANCH  16  21
BRANCH  17  30
HETATM   30  O   UNL     1       5.717  32.890  57.226  1.00  0.00    -0.353 OA
HETATM   31  C   UNL     1       4.929  32.191  56.263  1.00  0.00     0.210 C 
ENDBRANCH  17  30
ENDBRANCH   1  13
BRANCH   5  32
HETATM   32  N   UNL     1       2.193  37.948  56.250  1.00  0.00    -0.282 NA
HETATM   33  H   UNL     1       1.868  37.186  55.659  1.00  0.00     0.126 HD
HETATM   34  H   UNL     1       2.819  38.581  55.757  1.00  0.00     0.126 HD
ENDBRANCH   5  32
BRANCH  12  35
HETATM   35  C   UNL     1       4.783  36.634  62.383  1.00  0.00    -0.005 A 
HETATM   36  C   UNL     1       3.714  36.634  63.288  1.00  0.00     0.015 A 
HETATM   37  C   UNL     1       3.799  35.919  64.487  1.00  0.00     0.020 A 
HETATM   38  C   UNL     1       4.959  35.206  64.789  1.00  0.00     0.011 A 
HETATM   39 BR   UNL     1       5.074  34.247  66.413  1.00  0.00    -0.051 Br
HETATM   40  C   UNL     1       6.035  35.204  63.907  1.00  0.00     0.020 A 
HETATM   41  C   UNL     1       5.946  35.918  62.709  1.00  0.00     0.015 A 
ENDBRANCH  12  35
TORSDOF 7
ENDMDL
MODEL 6
REMARK VINA RESULT:      -8.0      4.257      7.219
REMARK  7 active torsions:
REMARK  status: ('A' for Active; 'I' for Inactive)
REMARK    1  A    between atoms: O_2  and  C_3 
REMARK    2  A    between atoms: C_4  and  O_5 
REMARK    3  A    between atoms: O_5  and  C_6 
REMARK       I    between atoms: C_6  and  N_7 
REMARK    4  A    between atoms: C_14  and  O_15 
REMARK    5  A    between atoms: C_18  and  C_19 
REMARK    6  A    between atoms: C_23  and  N_24 
REMARK    7  A    between atoms: C_31  and  C_32 
ROOT
HETATM    1  C   UNL     1       5.700  30.000  57.558  1.00  0.00     0.106 A 
HETATM    2  C   UNL     1       5.297  31.107  58.545  1.00  0.00     0.081 A 
HETATM    3  C   UNL     1       3.913  31.200  58.872  1.00  0.00     0.100 C 
HETATM    4  N   UNL     1       2.785  31.253  59.140  1.00  0.00    -0.191 NA
HETATM    5  C   UNL     1       6.200  31.929  59.145  1.00  0.00     0.140 A 
HETATM    6  O   UNL     1       7.580  31.809  58.918  1.00  0.00    -0.279 OA
HETATM    7  C   UNL     1       7.965  30.792  58.159  1.00  0.00     0.175 A 
HETATM    8  C   UNL     1       7.186  29.883  57.490  1.00  0.00     0.040 A 
HETATM    9  N   UNL     1       9.257  30.470  57.909  1.00  0.00    -0.256 N 
HETATM   10  H   UNL     1      10.096  30.928  58.248  1.00  0.00     0.191 HD
HETATM   11  N   UNL     1       9.377  29.403  57.099  1.00  0.00    -0.172 NA
HETATM   12  C   UNL     1       8.112  29.006  56.855  1.00  0.00     0.099 A 
ENDROOT
BRANCH   1  13
HETATM   13  C   UNL     1       5.170  30.273  56.150  1.00  0.00    -0.039 C 
HETATM   14  C   UNL     1       5.085  31.564  55.584  1.00  0.00     0.048 C 
HETATM   15  C   UNL     1       4.472  31.776  54.345  1.00  0.00     0.105 C 
HETATM   16  C   UNL     1       3.838  30.702  53.713  1.00  0.00     0.147 C 
HETATM   17  C   UNL     1       3.973  29.405  54.206  1.00  0.00     0.105 C 
HETATM   18  C   UNL     1       4.627  29.193  55.421  1.00  0.00     0.048 C 
BRANCH  15  19
HETATM   19  O   UNL     1       4.401  32.998  53.728  1.00  0.00    -0.353 OA
HETATM   20  C   UNL     1       5.085  34.052  54.396  1.00  0.00     0.210 C 
ENDBRANCH  15  19
BRANCH  16  21
HETATM   21  O   UNL     1       3.089  30.891  52.546  1.00  0.00    -0.256 OA
BRANCH  21  22
HETATM   22  C   UNL     1       3.831  30.686  51.385  1.00  0.00     0.368 C 
HETATM   23  N   UNL     1       3.221  29.789  50.524  1.00  0.00    -0.324 N 
HETATM   24  C   UNL     1       1.788  29.503  50.542  1.00  0.00     0.154 C 
HETATM   25  C   UNL     1       3.894  29.385  49.293  1.00  0.00     0.154 C 
HETATM   26  C   UNL     1       1.131  30.084  49.280  1.00  0.00     0.187 C 
HETATM   27  O   UNL     1       1.776  29.596  48.089  1.00  0.00    -0.388 OA
HETATM   28  C   UNL     1       3.168  29.962  48.075  1.00  0.00     0.187 C 
HETATM   29  O   UNL     1       4.909  31.218  51.129  1.00  0.00    -0.238 OA
ENDBRANCH  21  22
ENDBRANCH  16  21
BRANCH  17  30
HETATM   30  O   UNL     1       3.381  28.375  53.524  1.00  0.00    -0.353 OA
HETATM   31  C   UNL     1       4.343  27.418  53.084  1.00  0.00     0.210 C 
ENDBRANCH  17  30
ENDBRANCH   1  13
BRANCH   5  32
HETATM   32  N   UNL     1       5.893  32.940  60.031  1.00  0.00    -0.282 NA
HETATM   33  H   UNL     1       5.005  33.407  59.864  1.00  0.00     0.126 HD
HETATM   34  H   UNL     1       6.663  33.596  60.136  1.00  0.00     0.126 HD
ENDBRANCH   5  32
BRANCH  12  35
HETATM   35  C   UNL     1       7.858  27.844  56.003  1.00  0.00    -0.005 A 
HETATM   36  C   UNL     1       7.878  27.942  54.605  1.00  0.00     0.015 A 
HETATM   37  C   UNL     1       7.627  26.818  53.812  1.00  0.00     0.020 A 
HETATM   38  C   UNL     1       7.347  25.592  54.413  1.00  0.00     0.011 A 
HETATM   39 BR   UNL     1       6.999  24.077  53.338  1.00  0.00    -0.051 Br
HETATM   40  C   UNL     1       7.310  25.478  55.800  1.00  0.00     0.020 A 
HETATM   41  C   UNL     1       7.564  26.603  56.590  1.00  0.00     0.015 A 
ENDBRANCH  12  35
TORSDOF 7
ENDMDL
MODEL 7
REMARK VINA RESULT:      -7.9      5.592      9.195
REMARK  7 active torsions:
REMARK  status: ('A' for Active; 'I' for Inactive)
REMARK    1  A    between atoms: O_2  and  C_3 
REMARK    2  A    between atoms: C_4  and  O_5 
REMARK    3  A    between atoms: O_5  and  C_6 
REMARK       I    between atoms: C_6  and  N_7 
REMARK    4  A    between atoms: C_14  and  O_15 
REMARK    5  A    between atoms: C_18  and  C_19 
REMARK    6  A    between atoms: C_23  and  N_24 
REMARK    7  A    between atoms: C_31  and  C_32 
ROOT
HETATM    1  C   UNL     1       4.868  34.134  63.956  1.00  0.00     0.106 A 
HETATM    2  C   UNL     1       4.996  34.511  65.440  1.00  0.00     0.081 A 
HETATM    3  C   UNL     1       3.848  35.092  66.055  1.00  0.00     0.100 C 
HETATM    4  N   UNL     1       2.901  35.550  66.545  1.00  0.00    -0.191 NA
HETATM    5  C   UNL     1       6.111  34.254  66.177  1.00  0.00     0.140 A 
HETATM    6  O   UNL     1       7.228  33.602  65.631  1.00  0.00    -0.279 OA
HETATM    7  C   UNL     1       7.103  33.165  64.385  1.00  0.00     0.175 A 
HETATM    8  C   UNL     1       6.053  33.341  63.519  1.00  0.00     0.040 A 
HETATM    9  N   UNL     1       8.041  32.438  63.731  1.00  0.00    -0.256 N 
HETATM   10  H   UNL     1       8.941  32.122  64.072  1.00  0.00     0.191 HD
HETATM   11  N   UNL     1       7.675  32.132  62.474  1.00  0.00    -0.172 NA
HETATM   12  C   UNL     1       6.439  32.652  62.333  1.00  0.00     0.099 A 
ENDROOT
BRANCH   1  13
HETATM   13  C   UNL     1       4.756  35.371  63.064  1.00  0.00    -0.039 C 
HETATM   14  C   UNL     1       3.843  35.481  61.992  1.00  0.00     0.048 C 
HETATM   15  C   UNL     1       3.868  36.578  61.124  1.00  0.00     0.105 C 
HETATM   16  C   UNL     1       4.890  37.523  61.262  1.00  0.00     0.147 C 
HETATM   17  C   UNL     1       5.754  37.484  62.354  1.00  0.00     0.105 C 
HETATM   18  C   UNL     1       5.694  36.410  63.245  1.00  0.00     0.048 C 
BRANCH  15  19
HETATM   19  O   UNL     1       2.979  36.759  60.097  1.00  0.00    -0.353 OA
HETATM   20  C   UNL     1       3.056  35.793  59.055  1.00  0.00     0.210 C 
ENDBRANCH  15  19
BRANCH  16  21
HETATM   21  O   UNL     1       5.044  38.558  60.332  1.00  0.00    -0.256 OA
BRANCH  21  22
HETATM   22  C   UNL     1       4.151  39.607  60.533  1.00  0.00     0.368 C 
HETATM   23  N   UNL     1       3.805  40.238  59.350  1.00  0.00    -0.324 N 
HETATM   24  C   UNL     1       3.910  39.600  58.039  1.00  0.00     0.154 C 
HETATM   25  C   UNL     1       2.943  41.415  59.373  1.00  0.00     0.154 C 
HETATM   26  C   UNL     1       2.502  39.325  57.486  1.00  0.00     0.187 C 
HETATM   27  O   UNL     1       1.714  40.529  57.454  1.00  0.00    -0.388 OA
HETATM   28  C   UNL     1       1.573  41.085  58.774  1.00  0.00     0.187 C 
HETATM   29  O   UNL     1       3.708  39.963  61.624  1.00  0.00    -0.238 OA
ENDBRANCH  21  22
ENDBRANCH  16  21
BRANCH  17  30
HETATM   30  O   UNL     1       6.705  38.463  62.479  1.00  0.00    -0.353 OA
HETATM   31  C   UNL     1       6.558  39.183  63.701  1.00  0.00     0.210 C 
ENDBRANCH  17  30
ENDBRANCH   1  13
BRANCH   5  32
HETATM   32  N   UNL     1       6.281  34.575  67.506  1.00  0.00    -0.282 NA
HETATM   33  H   UNL     1       5.516  35.097  67.927  1.00  0.00     0.126 HD
HETATM   34  H   UNL     1       7.186  35.006  67.678  1.00  0.00     0.126 HD
ENDBRANCH   5  32
BRANCH  12  35
HETATM   35  C   UNL     1       5.716  32.498  61.070  1.00  0.00    -0.005 A 
HETATM   36  C   UNL     1       4.340  32.235  61.042  1.00  0.00     0.015 A 
HETATM   37  C   UNL     1       3.671  32.086  59.822  1.00  0.00     0.020 A 
HETATM   38  C   UNL     1       4.379  32.193  58.626  1.00  0.00     0.011 A 
HETATM   39 BR   UNL     1       3.474  31.982  56.979  1.00  0.00    -0.051 Br
HETATM   40  C   UNL     1       5.748  32.442  58.635  1.00  0.00     0.020 A 
HETATM   41  C   UNL     1       6.412  32.592  59.855  1.00  0.00     0.015 A 
ENDBRANCH  12  35
TORSDOF 7
ENDMDL
MODEL 8
REMARK VINA RESULT:      -7.9      5.375      9.244
REMARK  7 active torsions:
REMARK  status: ('A' for Active; 'I' for Inactive)
REMARK    1  A    between atoms: O_2  and  C_3 
REMARK    2  A    between atoms: C_4  and  O_5 
REMARK    3  A    between atoms: O_5  and  C_6 
REMARK       I    between atoms: C_6  and  N_7 
REMARK    4  A    between atoms: C_14  and  O_15 
REMARK    5  A    between atoms: C_18  and  C_19 
REMARK    6  A    between atoms: C_23  and  N_24 
REMARK    7  A    between atoms: C_31  and  C_32 
ROOT
HETATM    1  C   UNL     1       5.077  33.798  63.469  1.00  0.00     0.106 A 
HETATM    2  C   UNL     1       5.281  34.132  64.955  1.00  0.00     0.081 A 
HETATM    3  C   UNL     1       4.157  34.670  65.649  1.00  0.00     0.100 C 
HETATM    4  N   UNL     1       3.230  35.093  66.204  1.00  0.00    -0.191 NA
HETATM    5  C   UNL     1       6.439  33.876  65.621  1.00  0.00     0.140 A 
HETATM    6  O   UNL     1       7.536  33.265  64.995  1.00  0.00    -0.279 OA
HETATM    7  C   UNL     1       7.351  32.863  63.744  1.00  0.00     0.175 A 
HETATM    8  C   UNL     1       6.252  33.043  62.943  1.00  0.00     0.040 A 
HETATM    9  N   UNL     1       8.265  32.176  63.017  1.00  0.00    -0.256 N 
HETATM   10  H   UNL     1       9.189  31.869  63.299  1.00  0.00     0.191 HD
HETATM   11  N   UNL     1       7.837  31.901  61.773  1.00  0.00    -0.172 NA
HETATM   12  C   UNL     1       6.585  32.399  61.716  1.00  0.00     0.099 A 
ENDROOT
BRANCH   1  13
HETATM   13  C   UNL     1       4.893  35.059  62.623  1.00  0.00    -0.039 C 
HETATM   14  C   UNL     1       5.801  36.140  62.623  1.00  0.00     0.048 C 
HETATM   15  C   UNL     1       5.523  37.324  61.934  1.00  0.00     0.105 C 
HETATM   16  C   UNL     1       4.272  37.473  61.327  1.00  0.00     0.147 C 
HETATM   17  C   UNL     1       3.389  36.399  61.242  1.00  0.00     0.105 C 
HETATM   18  C   UNL     1       3.693  35.202  61.893  1.00  0.00     0.048 C 
BRANCH  15  19
HETATM   19  O   UNL     1       6.386  38.386  61.862  1.00  0.00    -0.353 OA
HETATM   20  C   UNL     1       6.597  39.077  63.089  1.00  0.00     0.210 C 
ENDBRANCH  15  19
BRANCH  16  21
HETATM   21  O   UNL     1       3.891  38.690  60.750  1.00  0.00    -0.256 OA
BRANCH  21  22
HETATM   22  C   UNL     1       4.317  38.824  59.431  1.00  0.00     0.368 C 
HETATM   23  N   UNL     1       4.651  40.130  59.116  1.00  0.00    -0.324 N 
HETATM   24  C   UNL     1       5.027  41.128  60.116  1.00  0.00     0.154 C 
HETATM   25  C   UNL     1       5.039  40.478  57.753  1.00  0.00     0.154 C 
HETATM   26  C   UNL     1       6.523  41.453  59.981  1.00  0.00     0.187 C 
HETATM   27  O   UNL     1       6.845  41.867  58.641  1.00  0.00    -0.388 OA
HETATM   28  C   UNL     1       6.529  40.829  57.695  1.00  0.00     0.187 C 
HETATM   29  O   UNL     1       4.391  37.908  58.614  1.00  0.00    -0.238 OA
ENDBRANCH  21  22
ENDBRANCH  16  21
BRANCH  17  30
HETATM   30  O   UNL     1       2.197  36.574  60.590  1.00  0.00    -0.353 OA
HETATM   31  C   UNL     1       1.787  35.383  59.919  1.00  0.00     0.210 C 
ENDBRANCH  17  30
ENDBRANCH   1  13
BRANCH   5  32
HETATM   32  N   UNL     1       6.676  34.161  66.948  1.00  0.00    -0.282 NA
HETATM   33  H   UNL     1       5.929  34.661  67.424  1.00  0.00     0.126 HD
HETATM   34  H   UNL     1       7.584  34.598  67.085  1.00  0.00     0.126 HD
ENDBRANCH   5  32
BRANCH  12  35
HETATM   35  C   UNL     1       5.796  32.268  60.491  1.00  0.00    -0.005 A 
HETATM   36  C   UNL     1       4.405  32.103  60.529  1.00  0.00     0.015 A 
HETATM   37  C   UNL     1       3.673  31.974  59.345  1.00  0.00     0.020 A 
HETATM   38  C   UNL     1       4.331  32.002  58.116  1.00  0.00     0.011 A 
HETATM   39 BR   UNL     1       3.340  31.819  56.517  1.00  0.00    -0.051 Br
HETATM   40  C   UNL     1       5.713  32.153  58.059  1.00  0.00     0.020 A 
HETATM   41  C   UNL     1       6.442  32.284  59.244  1.00  0.00     0.015 A 
ENDBRANCH  12  35
TORSDOF 7
ENDMDL
MODEL 9
REMARK VINA RESULT:      -7.8      3.277      5.806
REMARK  7 active torsions:
REMARK  status: ('A' for Active; 'I' for Inactive)
REMARK    1  A    between atoms: O_2  and  C_3 
REMARK    2  A    between atoms: C_4  and  O_5 
REMARK    3  A    between atoms: O_5  and  C_6 
REMARK       I    between atoms: C_6  and  N_7 
REMARK    4  A    between atoms: C_14  and  O_15 
REMARK    5  A    between atoms: C_18  and  C_19 
REMARK    6  A    between atoms: C_23  and  N_24 
REMARK    7  A    between atoms: C_31  and  C_32 
ROOT
HETATM    1  C   UNL     1       6.589  33.100  60.551  1.00  0.00     0.106 A 
HETATM    2  C   UNL     1       7.695  32.043  60.697  1.00  0.00     0.081 A 
HETATM    3  C   UNL     1       8.728  32.058  59.715  1.00  0.00     0.100 C 
HETATM    4  N   UNL     1       9.570  32.092  58.917  1.00  0.00    -0.191 NA
HETATM    5  C   UNL     1       7.751  31.168  61.738  1.00  0.00     0.140 A 
HETATM    6  O   UNL     1       6.802  31.182  62.772  1.00  0.00    -0.279 OA
HETATM    7  C   UNL     1       5.902  32.155  62.731  1.00  0.00     0.175 A 
HETATM    8  C   UNL     1       5.716  33.107  61.761  1.00  0.00     0.040 A 
HETATM    9  N   UNL     1       4.970  32.377  63.690  1.00  0.00    -0.256 N 
HETATM   10  H   UNL     1       4.822  31.864  64.552  1.00  0.00     0.191 HD
HETATM   11  N   UNL     1       4.169  33.417  63.402  1.00  0.00    -0.172 NA
HETATM   12  C   UNL     1       4.632  33.902  62.232  1.00  0.00     0.099 A 
ENDROOT
BRANCH   1  13
HETATM   13  C   UNL     1       5.715  32.842  59.323  1.00  0.00    -0.039 C 
HETATM   14  C   UNL     1       5.054  33.863  58.606  1.00  0.00     0.048 C 
HETATM   15  C   UNL     1       4.162  33.565  57.571  1.00  0.00     0.105 C 
HETATM   16  C   UNL     1       3.841  32.227  57.322  1.00  0.00     0.147 C 
HETATM   17  C   UNL     1       4.533  31.198  57.957  1.00  0.00     0.105 C 
HETATM   18  C   UNL     1       5.458  31.503  58.958  1.00  0.00     0.048 C 
BRANCH  15  19
HETATM   19  O   UNL     1       3.528  34.514  56.812  1.00  0.00    -0.353 OA
HETATM   20  C   UNL     1       4.392  35.358  56.057  1.00  0.00     0.210 C 
ENDBRANCH  15  19
BRANCH  16  21
HETATM   21  O   UNL     1       2.848  31.884  56.397  1.00  0.00    -0.256 OA
BRANCH  21  22
HETATM   22  C   UNL     1       3.295  31.925  55.079  1.00  0.00     0.368 C 
HETATM   23  N   UNL     1       2.308  32.342  54.201  1.00  0.00    -0.324 N 
HETATM   24  C   UNL     1       1.151  33.134  54.611  1.00  0.00     0.154 C 
HETATM   25  C   UNL     1       2.568  32.366  52.765  1.00  0.00     0.154 C 
HETATM   26  C   UNL     1       1.276  34.558  54.046  1.00  0.00     0.187 C 
HETATM   27  O   UNL     1       1.451  34.536  52.618  1.00  0.00    -0.388 OA
HETATM   28  C   UNL     1       2.642  33.809  52.260  1.00  0.00     0.187 C 
HETATM   29  O   UNL     1       4.427  31.623  54.704  1.00  0.00    -0.238 OA
ENDBRANCH  21  22
ENDBRANCH  16  21
BRANCH  17  30
HETATM   30  O   UNL     1       4.224  29.901  57.642  1.00  0.00    -0.353 OA
HETATM   31  C   UNL     1       5.393  29.145  57.328  1.00  0.00     0.210 C 
ENDBRANCH  17  30
ENDBRANCH   1  13
BRANCH   5  32
HETATM   32  N   UNL     1       8.714  30.198  61.913  1.00  0.00    -0.282 NA
HETATM   33  H   UNL     1       9.495  30.240  61.262  1.00  0.00     0.126 HD
HETATM   34  H   UNL     1       8.307  29.268  61.973  1.00  0.00     0.126 HD
ENDBRANCH   5  32
BRANCH  12  35
HETATM   35  C   UNL     1       3.994  35.064  61.614  1.00  0.00    -0.005 A 
HETATM   36  C   UNL     1       2.714  34.983  61.048  1.00  0.00     0.015 A 
HETATM   37  C   UNL     1       2.127  36.106  60.458  1.00  0.00     0.020 A 
HETATM   38  C   UNL     1       2.821  37.315  60.424  1.00  0.00     0.011 A 
HETATM   39 BR   UNL     1       2.028  38.830  59.618  1.00  0.00    -0.051 Br
HETATM   40  C   UNL     1       4.097  37.412  60.970  1.00  0.00     0.020 A 
HETATM   41  C   UNL     1       4.680  36.288  61.561  1.00  0.00     0.015 A 
ENDBRANCH  12  35
TORSDOF 7
ENDMDL
MODEL 10
REMARK VINA RESULT:      -7.7      4.217      7.322
REMARK  7 active torsions:
REMARK  status: ('A' for Active; 'I' for Inactive)
REMARK    1  A    between atoms: O_2  and  C_3 
REMARK    2  A    between atoms: C_4  and  O_5 
REMARK    3  A    between atoms: O_5  and  C_6 
REMARK       I    between atoms: C_6  and  N_7 
REMARK    4  A    between atoms: C_14  and  O_15 
REMARK    5  A    between atoms: C_18  and  C_19 
REMARK    6  A    between atoms: C_23  and  N_24 
REMARK    7  A    between atoms: C_31  and  C_32 
ROOT
HETATM    1  C   UNL     1       5.605  29.807  57.406  1.00  0.00     0.106 A 
HETATM    2  C   UNL     1       5.215  30.916  58.395  1.00  0.00     0.081 A 
HETATM    3  C   UNL     1       3.868  30.914  58.861  1.00  0.00     0.100 C 
HETATM    4  N   UNL     1       2.772  30.889  59.243  1.00  0.00    -0.191 NA
HETATM    5  C   UNL     1       6.104  31.829  58.873  1.00  0.00     0.140 A 
HETATM    6  O   UNL     1       7.458  31.808  58.508  1.00  0.00    -0.279 OA
HETATM    7  C   UNL     1       7.847  30.796  57.744  1.00  0.00     0.175 A 
HETATM    8  C   UNL     1       7.081  29.804  57.187  1.00  0.00     0.040 A 
HETATM    9  N   UNL     1       9.129  30.566  57.371  1.00  0.00    -0.256 N 
HETATM   10  H   UNL     1       9.957  31.101  57.607  1.00  0.00     0.191 HD
HETATM   11  N   UNL     1       9.253  29.482  56.586  1.00  0.00    -0.172 NA
HETATM   12  C   UNL     1       8.007  28.978  56.486  1.00  0.00     0.099 A 
ENDROOT
BRANCH   1  13
HETATM   13  C   UNL     1       4.915  29.984  56.052  1.00  0.00    -0.039 C 
HETATM   14  C   UNL     1       4.409  28.910  55.287  1.00  0.00     0.048 C 
HETATM   15  C   UNL     1       3.904  29.109  53.998  1.00  0.00     0.105 C 
HETATM   16  C   UNL     1       4.007  30.380  53.423  1.00  0.00     0.147 C 
HETATM   17  C   UNL     1       4.427  31.472  54.179  1.00  0.00     0.105 C 
HETATM   18  C   UNL     1       4.887  31.274  55.483  1.00  0.00     0.048 C 
BRANCH  15  19
HETATM   19  O   UNL     1       3.360  28.114  53.229  1.00  0.00    -0.353 OA
HETATM   20  C   UNL     1       4.256  27.068  52.873  1.00  0.00     0.210 C 
ENDBRANCH  15  19
BRANCH  16  21
HETATM   21  O   UNL     1       3.650  30.597  52.087  1.00  0.00    -0.256 OA
BRANCH  21  22
HETATM   22  C   UNL     1       4.739  30.562  51.220  1.00  0.00     0.368 C 
HETATM   23  N   UNL     1       4.562  31.384  50.120  1.00  0.00    -0.324 N 
HETATM   24  C   UNL     1       3.647  32.523  50.106  1.00  0.00     0.154 C 
HETATM   25  C   UNL     1       5.565  31.413  49.059  1.00  0.00     0.154 C 
HETATM   26  C   UNL     1       4.454  33.832  50.075  1.00  0.00     0.187 C 
HETATM   27  O   UNL     1       5.372  33.848  48.968  1.00  0.00    -0.388 OA
HETATM   28  C   UNL     1       6.303  32.754  49.058  1.00  0.00     0.187 C 
HETATM   29  O   UNL     1       5.752  29.883  51.380  1.00  0.00    -0.238 OA
ENDBRANCH  21  22
ENDBRANCH  16  21
BRANCH  17  30
HETATM   30  O   UNL     1       4.461  32.709  53.590  1.00  0.00    -0.353 OA
HETATM   31  C   UNL     1       4.934  33.707  54.493  1.00  0.00     0.210 C 
ENDBRANCH  17  30
ENDBRANCH   1  13
BRANCH   5  32
HETATM   32  N   UNL     1       5.806  32.845  59.755  1.00  0.00    -0.282 NA
HETATM   33  H   UNL     1       4.819  33.080  59.829  1.00  0.00     0.126 HD
HETATM   34  H   UNL     1       6.390  33.664  59.598  1.00  0.00     0.126 HD
ENDBRANCH   5  32
BRANCH  12  35
HETATM   35  C   UNL     1       7.763  27.768  55.700  1.00  0.00    -0.005 A 
HETATM   36  C   UNL     1       7.826  27.779  54.300  1.00  0.00     0.015 A 
HETATM   37  C   UNL     1       7.584  26.610  53.571  1.00  0.00     0.020 A 
HETATM   38  C   UNL     1       7.271  25.427  54.238  1.00  0.00     0.011 A 
HETATM   39 BR   UNL     1       6.937  23.852  53.249  1.00  0.00    -0.051 Br
HETATM   40  C   UNL     1       7.193  25.400  55.628  1.00  0.00     0.020 A 
HETATM   41  C   UNL     1       7.437  26.569  56.354  1.00  0.00     0.015 A 
ENDBRANCH  12  35
TORSDOF 7
ENDMDL
