MODEL 1
REMARK VINA RESULT:      -8.9      0.000      0.000
REMARK  4 active torsions:
REMARK  status: ('A' for Active; 'I' for Inactive)
REMARK    1  A    between atoms: C_2  and  C_3 
REMARK    2  A    between atoms: C_4  and  N_5 
REMARK       I    between atoms: N_5  and  C_6 
REMARK    3  A    between atoms: C_6  and  C_7 
REMARK    4  A    between atoms: C_19  and  C_20 
ROOT
HETATM    1  N   UNL     1       5.686  25.583  54.564  1.00  0.00    -0.321 N 
HETATM    2  C   UNL     1       7.063  25.454  54.697  1.00  0.00     0.277 C 
HETATM    3  O   UNL     1       7.909  26.269  54.363  1.00  0.00    -0.266 OA
HETATM    4  H   UNL     1       5.187  25.012  55.234  1.00  0.00     0.169 HD
ENDROOT
BRANCH   2   5
HETATM    5  C   UNL     1       7.463  24.166  55.428  1.00  0.00     0.156 A 
HETATM    6  N   UNL     1       7.561  24.272  56.726  1.00  0.00    -0.166 NA
HETATM    7  N   UNL     1       7.953  23.180  57.436  1.00  0.00    -0.242 N 
HETATM    8  C   UNL     1       8.302  21.960  56.912  1.00  0.00     0.272 A 
HETATM    9  H   UNL     1       8.048  23.293  58.441  1.00  0.00     0.192 HD
HETATM   10  O   UNL     1       8.691  21.034  57.616  1.00  0.00    -0.266 OA
HETATM   11  C   UNL     1       8.166  21.817  55.453  1.00  0.00     0.046 A 
HETATM   12  C   UNL     1       7.724  22.904  54.696  1.00  0.00     0.016 A 
HETATM   13  C   UNL     1       8.464  20.591  54.845  1.00  0.00     0.018 A 
HETATM   14  C   UNL     1       7.548  22.741  53.317  1.00  0.00     0.015 A 
HETATM   15  C   UNL     1       7.844  21.516  52.708  1.00  0.00     0.001 A 
HETATM   16  C   UNL     1       8.307  20.444  53.468  1.00  0.00     0.001 A 
ENDBRANCH   2   5
BRANCH   1  17
HETATM   17  C   UNL     1       5.096  26.771  54.089  1.00  0.00     0.049 A 
HETATM   18  C   UNL     1       4.872  26.885  52.687  1.00  0.00    -0.031 A 
HETATM   19  C   UNL     1       4.328  28.067  52.163  1.00  0.00     0.011 A 
HETATM   20  C   UNL     1       3.988  29.114  53.002  1.00  0.00     0.025 A 
HETATM   21  C   UNL     1       4.158  28.984  54.380  1.00  0.00     0.042 A 
HETATM   22  C   UNL     1       4.695  27.806  54.973  1.00  0.00    -0.009 A 
HETATM   23 CL   UNL     1       3.686  30.367  55.324  1.00  0.00    -0.084 Cl
BRANCH  18  24
HETATM   24  C   UNL     1       5.052  25.734  51.713  1.00  0.00     0.036 C 
HETATM   25  C   UNL     1       4.964  26.210  50.268  1.00  0.00     0.010 C 
ENDBRANCH  18  24
BRANCH  22  26
HETATM   26  C   UNL     1       4.855  27.840  56.488  1.00  0.00     0.038 C 
HETATM   27  C   UNL     1       6.139  28.253  57.186  1.00  0.00     0.010 C 
ENDBRANCH  22  26
ENDBRANCH   1  17
TORSDOF 4
ENDMDL
MODEL 2
REMARK VINA RESULT:      -8.8      3.154      6.756
REMARK  4 active torsions:
REMARK  status: ('A' for Active; 'I' for Inactive)
REMARK    1  A    between atoms: C_2  and  C_3 
REMARK    2  A    between atoms: C_4  and  N_5 
REMARK       I    between atoms: N_5  and  C_6 
REMARK    3  A    between atoms: C_6  and  C_7 
REMARK    4  A    between atoms: C_19  and  C_20 
ROOT
HETATM    1  N   UNL     1       7.594  25.603  55.006  1.00  0.00    -0.321 N 
HETATM    2  C   UNL     1       6.366  25.996  55.522  1.00  0.00     0.277 C 
HETATM    3  O   UNL     1       5.353  25.316  55.598  1.00  0.00    -0.266 OA
HETATM    4  H   UNL     1       8.357  26.147  55.390  1.00  0.00     0.169 HD
ENDROOT
BRANCH   2   5
HETATM    5  C   UNL     1       6.405  27.411  56.114  1.00  0.00     0.156 A 
HETATM    6  N   UNL     1       7.145  27.545  57.182  1.00  0.00    -0.166 NA
HETATM    7  N   UNL     1       7.193  28.762  57.786  1.00  0.00    -0.242 N 
HETATM    8  C   UNL     1       6.496  29.882  57.403  1.00  0.00     0.272 A 
HETATM    9  H   UNL     1       7.754  28.838  58.629  1.00  0.00     0.192 HD
HETATM   10  O   UNL     1       6.556  30.934  58.028  1.00  0.00    -0.266 OA
HETATM   11  C   UNL     1       5.681  29.752  56.183  1.00  0.00     0.046 A 
HETATM   12  C   UNL     1       5.643  28.530  55.510  1.00  0.00     0.016 A 
HETATM   13  C   UNL     1       4.971  30.860  55.702  1.00  0.00     0.018 A 
HETATM   14  C   UNL     1       4.908  28.433  54.323  1.00  0.00     0.015 A 
HETATM   15  C   UNL     1       4.198  29.539  53.841  1.00  0.00     0.001 A 
HETATM   16  C   UNL     1       4.224  30.749  54.531  1.00  0.00     0.001 A 
ENDBRANCH   2   5
BRANCH   1  17
HETATM   17  C   UNL     1       7.830  24.282  54.579  1.00  0.00     0.049 A 
HETATM   18  C   UNL     1       7.774  24.015  53.181  1.00  0.00    -0.031 A 
HETATM   19  C   UNL     1       7.957  22.706  52.714  1.00  0.00     0.011 A 
HETATM   20  C   UNL     1       8.214  21.675  53.601  1.00  0.00     0.025 A 
HETATM   21  C   UNL     1       8.323  21.943  54.966  1.00  0.00     0.042 A 
HETATM   22  C   UNL     1       8.156  23.251  55.499  1.00  0.00    -0.009 A 
HETATM   23 CL   UNL     1       8.655  20.563  55.973  1.00  0.00    -0.084 Cl
BRANCH  18  24
HETATM   24  C   UNL     1       7.668  25.101  52.125  1.00  0.00     0.036 C 
HETATM   25  C   UNL     1       6.214  25.429  51.809  1.00  0.00     0.010 C 
ENDBRANCH  18  24
BRANCH  22  26
HETATM   26  C   UNL     1       8.263  23.368  57.015  1.00  0.00     0.038 C 
HETATM   27  C   UNL     1       9.026  24.477  57.719  1.00  0.00     0.010 C 
ENDBRANCH  22  26
ENDBRANCH   1  17
TORSDOF 4
ENDMDL
MODEL 3
REMARK VINA RESULT:      -8.7      0.988      2.844
REMARK  4 active torsions:
REMARK  status: ('A' for Active; 'I' for Inactive)
REMARK    1  A    between atoms: C_2  and  C_3 
REMARK    2  A    between atoms: C_4  and  N_5 
REMARK       I    between atoms: N_5  and  C_6 
REMARK    3  A    between atoms: C_6  and  C_7 
REMARK    4  A    between atoms: C_19  and  C_20 
ROOT
HETATM    1  N   UNL     1       5.708  25.666  55.047  1.00  0.00    -0.321 N 
HETATM    2  C   UNL     1       7.060  25.403  54.866  1.00  0.00     0.277 C 
HETATM    3  O   UNL     1       7.879  26.126  54.321  1.00  0.00    -0.266 OA
HETATM    4  H   UNL     1       5.325  25.155  55.831  1.00  0.00     0.169 HD
ENDROOT
BRANCH   2   5
HETATM    5  C   UNL     1       7.495  24.090  55.531  1.00  0.00     0.156 A 
HETATM    6  N   UNL     1       7.631  24.144  56.829  1.00  0.00    -0.166 NA
HETATM    7  N   UNL     1       8.055  23.028  57.481  1.00  0.00    -0.242 N 
HETATM    8  C   UNL     1       8.401  21.834  56.897  1.00  0.00     0.272 A 
HETATM    9  H   UNL     1       8.179  23.100  58.486  1.00  0.00     0.192 HD
HETATM   10  O   UNL     1       8.820  20.885  57.549  1.00  0.00    -0.266 OA
HETATM   11  C   UNL     1       8.223  21.751  55.437  1.00  0.00     0.046 A 
HETATM   12  C   UNL     1       7.747  22.862  54.740  1.00  0.00     0.016 A 
HETATM   13  C   UNL     1       8.515  20.554  54.770  1.00  0.00     0.018 A 
HETATM   14  C   UNL     1       7.531  22.755  53.361  1.00  0.00     0.015 A 
HETATM   15  C   UNL     1       7.822  21.560  52.693  1.00  0.00     0.001 A 
HETATM   16  C   UNL     1       8.318  20.463  53.394  1.00  0.00     0.001 A 
ENDBRANCH   2   5
BRANCH   1  17
HETATM   17  C   UNL     1       5.139  26.900  54.677  1.00  0.00     0.049 A 
HETATM   18  C   UNL     1       5.051  27.915  55.673  1.00  0.00    -0.031 A 
HETATM   19  C   UNL     1       4.451  29.144  55.364  1.00  0.00     0.011 A 
HETATM   20  C   UNL     1       3.963  29.385  54.091  1.00  0.00     0.025 A 
HETATM   21  C   UNL     1       4.096  28.413  53.100  1.00  0.00     0.042 A 
HETATM   22  C   UNL     1       4.704  27.150  53.350  1.00  0.00    -0.009 A 
HETATM   23 CL   UNL     1       3.450  28.841  51.543  1.00  0.00    -0.084 Cl
BRANCH  18  24
HETATM   24  C   UNL     1       5.706  27.808  57.039  1.00  0.00     0.036 C 
HETATM   25  C   UNL     1       6.238  29.156  57.507  1.00  0.00     0.010 C 
ENDBRANCH  18  24
BRANCH  22  26
HETATM   26  C   UNL     1       4.733  26.184  52.172  1.00  0.00     0.038 C 
HETATM   27  C   UNL     1       5.973  25.917  51.337  1.00  0.00     0.010 C 
ENDBRANCH  22  26
ENDBRANCH   1  17
TORSDOF 4
ENDMDL
MODEL 4
REMARK VINA RESULT:      -8.6      1.814      2.481
REMARK  4 active torsions:
REMARK  status: ('A' for Active; 'I' for Inactive)
REMARK    1  A    between atoms: C_2  and  C_3 
REMARK    2  A    between atoms: C_4  and  N_5 
REMARK       I    between atoms: N_5  and  C_6 
REMARK    3  A    between atoms: C_6  and  C_7 
REMARK    4  A    between atoms: C_19  and  C_20 
ROOT
HETATM    1  N   UNL     1       5.965  24.930  53.616  1.00  0.00    -0.321 N 
HETATM    2  C   UNL     1       7.319  24.746  53.368  1.00  0.00     0.277 C 
HETATM    3  O   UNL     1       8.122  25.599  53.024  1.00  0.00    -0.266 OA
HETATM    4  H   UNL     1       5.596  24.227  54.244  1.00  0.00     0.169 HD
ENDROOT
BRANCH   2   5
HETATM    5  C   UNL     1       7.780  23.314  53.670  1.00  0.00     0.156 A 
HETATM    6  N   UNL     1       7.914  22.543  52.625  1.00  0.00    -0.166 NA
HETATM    7  N   UNL     1       8.279  21.248  52.820  1.00  0.00    -0.242 N 
HETATM    8  C   UNL     1       8.488  20.642  54.035  1.00  0.00     0.272 A 
HETATM    9  H   UNL     1       8.353  20.659  51.995  1.00  0.00     0.192 HD
HETATM   10  O   UNL     1       8.771  19.453  54.132  1.00  0.00    -0.266 OA
HETATM   11  C   UNL     1       8.369  21.508  55.220  1.00  0.00     0.046 A 
HETATM   12  C   UNL     1       8.040  22.854  55.055  1.00  0.00     0.016 A 
HETATM   13  C   UNL     1       8.606  20.976  56.494  1.00  0.00     0.018 A 
HETATM   14  C   UNL     1       7.982  23.680  56.184  1.00  0.00     0.015 A 
HETATM   15  C   UNL     1       8.219  23.151  57.458  1.00  0.00     0.001 A 
HETATM   16  C   UNL     1       8.525  21.800  57.614  1.00  0.00     0.001 A 
ENDBRANCH   2   5
BRANCH   1  17
HETATM   17  C   UNL     1       5.372  26.208  53.580  1.00  0.00     0.049 A 
HETATM   18  C   UNL     1       4.930  26.699  52.318  1.00  0.00    -0.031 A 
HETATM   19  C   UNL     1       4.376  27.984  52.227  1.00  0.00     0.011 A 
HETATM   20  C   UNL     1       4.235  28.769  53.358  1.00  0.00     0.025 A 
HETATM   21  C   UNL     1       4.618  28.269  54.603  1.00  0.00     0.042 A 
HETATM   22  C   UNL     1       5.178  26.970  54.761  1.00  0.00    -0.009 A 
HETATM   23 CL   UNL     1       4.383  29.350  55.945  1.00  0.00    -0.084 Cl
BRANCH  18  24
HETATM   24  C   UNL     1       4.886  25.852  51.058  1.00  0.00     0.036 C 
HETATM   25  C   UNL     1       4.644  26.709  49.822  1.00  0.00     0.010 C 
ENDBRANCH  18  24
BRANCH  22  26
HETATM   26  C   UNL     1       5.583  26.591  56.181  1.00  0.00     0.038 C 
HETATM   27  C   UNL     1       4.880  25.518  56.995  1.00  0.00     0.010 C 
ENDBRANCH  22  26
ENDBRANCH   1  17
TORSDOF 4
ENDMDL
MODEL 5
REMARK VINA RESULT:      -8.5      2.443      4.449
REMARK  4 active torsions:
REMARK  status: ('A' for Active; 'I' for Inactive)
REMARK    1  A    between atoms: C_2  and  C_3 
REMARK    2  A    between atoms: C_4  and  N_5 
REMARK       I    between atoms: N_5  and  C_6 
REMARK    3  A    between atoms: C_6  and  C_7 
REMARK    4  A    between atoms: C_19  and  C_20 
ROOT
HETATM    1  N   UNL     1       7.908  27.236  56.403  1.00  0.00    -0.321 N 
HETATM    2  C   UNL     1       7.930  26.064  57.148  1.00  0.00     0.277 C 
HETATM    3  O   UNL     1       7.756  25.960  58.353  1.00  0.00    -0.266 OA
HETATM    4  H   UNL     1       7.681  27.063  55.432  1.00  0.00     0.169 HD
ENDROOT
BRANCH   2   5
HETATM    5  C   UNL     1       8.108  24.817  56.272  1.00  0.00     0.156 A 
HETATM    6  N   UNL     1       8.497  23.745  56.908  1.00  0.00    -0.166 NA
HETATM    7  N   UNL     1       8.717  22.611  56.188  1.00  0.00    -0.242 N 
HETATM    8  C   UNL     1       8.607  22.487  54.825  1.00  0.00     0.272 A 
HETATM    9  H   UNL     1       9.043  21.796  56.699  1.00  0.00     0.192 HD
HETATM   10  O   UNL     1       8.868  21.441  54.242  1.00  0.00    -0.266 OA
HETATM   11  C   UNL     1       8.141  23.681  54.100  1.00  0.00     0.046 A 
HETATM   12  C   UNL     1       7.862  24.849  54.811  1.00  0.00     0.016 A 
HETATM   13  C   UNL     1       7.965  23.624  52.711  1.00  0.00     0.018 A 
HETATM   14  C   UNL     1       7.369  25.961  54.119  1.00  0.00     0.015 A 
HETATM   15  C   UNL     1       7.192  25.907  52.732  1.00  0.00     0.001 A 
HETATM   16  C   UNL     1       7.494  24.743  52.027  1.00  0.00     0.001 A 
ENDBRANCH   2   5
BRANCH   1  17
HETATM   17  C   UNL     1       7.574  28.476  56.983  1.00  0.00     0.049 A 
HETATM   18  C   UNL     1       8.640  29.311  57.424  1.00  0.00    -0.031 A 
HETATM   19  C   UNL     1       8.355  30.534  58.048  1.00  0.00     0.011 A 
HETATM   20  C   UNL     1       7.044  30.944  58.219  1.00  0.00     0.025 A 
HETATM   21  C   UNL     1       6.000  30.153  57.740  1.00  0.00     0.042 A 
HETATM   22  C   UNL     1       6.226  28.908  57.090  1.00  0.00    -0.009 A 
HETATM   23 CL   UNL     1       4.401  30.784  58.010  1.00  0.00    -0.084 Cl
BRANCH  18  24
HETATM   24  C   UNL     1      10.103  29.028  57.130  1.00  0.00     0.036 C 
HETATM   25  C   UNL     1      10.963  30.266  57.348  1.00  0.00     0.010 C 
ENDBRANCH  18  24
BRANCH  22  26
HETATM   26  C   UNL     1       4.977  28.145  56.664  1.00  0.00     0.038 C 
HETATM   27  C   UNL     1       4.399  28.200  55.260  1.00  0.00     0.010 C 
ENDBRANCH  22  26
ENDBRANCH   1  17
TORSDOF 4
ENDMDL
MODEL 6
REMARK VINA RESULT:      -8.5      1.882      3.605
REMARK  4 active torsions:
REMARK  status: ('A' for Active; 'I' for Inactive)
REMARK    1  A    between atoms: C_2  and  C_3 
REMARK    2  A    between atoms: C_4  and  N_5 
REMARK       I    between atoms: N_5  and  C_6 
REMARK    3  A    between atoms: C_6  and  C_7 
REMARK    4  A    between atoms: C_19  and  C_20 
ROOT
HETATM    1  N   UNL     1       5.909  25.207  54.485  1.00  0.00    -0.321 N 
HETATM    2  C   UNL     1       7.210  25.077  54.014  1.00  0.00     0.277 C 
HETATM    3  O   UNL     1       8.006  25.980  53.807  1.00  0.00    -0.266 OA
HETATM    4  H   UNL     1       5.587  24.364  54.943  1.00  0.00     0.169 HD
ENDROOT
BRANCH   2   5
HETATM    5  C   UNL     1       7.629  23.611  53.848  1.00  0.00     0.156 A 
HETATM    6  N   UNL     1       7.673  23.182  52.615  1.00  0.00    -0.166 NA
HETATM    7  N   UNL     1       7.996  21.880  52.395  1.00  0.00    -0.242 N 
HETATM    8  C   UNL     1       8.248  20.936  53.361  1.00  0.00     0.272 A 
HETATM    9  H   UNL     1       8.000  21.561  51.431  1.00  0.00     0.192 HD
HETATM   10  O   UNL     1       8.488  19.766  53.084  1.00  0.00    -0.266 OA
HETATM   11  C   UNL     1       8.231  21.413  54.754  1.00  0.00     0.046 A 
HETATM   12  C   UNL     1       7.948  22.755  55.016  1.00  0.00     0.016 A 
HETATM   13  C   UNL     1       8.518  20.522  55.796  1.00  0.00     0.018 A 
HETATM   14  C   UNL     1       7.986  23.209  56.339  1.00  0.00     0.015 A 
HETATM   15  C   UNL     1       8.273  22.320  57.381  1.00  0.00     0.001 A 
HETATM   16  C   UNL     1       8.533  20.978  57.112  1.00  0.00     0.001 A 
ENDBRANCH   2   5
BRANCH   1  17
HETATM   17  C   UNL     1       5.386  26.454  54.879  1.00  0.00     0.049 A 
HETATM   18  C   UNL     1       5.514  26.824  56.249  1.00  0.00    -0.031 A 
HETATM   19  C   UNL     1       4.968  28.036  56.696  1.00  0.00     0.011 A 
HETATM   20  C   UNL     1       4.326  28.885  55.811  1.00  0.00     0.025 A 
HETATM   21  C   UNL     1       4.247  28.549  54.460  1.00  0.00     0.042 A 
HETATM   22  C   UNL     1       4.789  27.338  53.944  1.00  0.00    -0.009 A 
HETATM   23 CL   UNL     1       3.421  29.701  53.452  1.00  0.00    -0.084 Cl
BRANCH  18  24
HETATM   24  C   UNL     1       6.345  26.045  57.253  1.00  0.00     0.036 C 
HETATM   25  C   UNL     1       7.694  26.711  57.494  1.00  0.00     0.010 C 
ENDBRANCH  18  24
BRANCH  22  26
HETATM   26  C   UNL     1       4.581  27.101  52.453  1.00  0.00     0.038 C 
HETATM   27  C   UNL     1       5.590  27.504  51.391  1.00  0.00     0.010 C 
ENDBRANCH  22  26
ENDBRANCH   1  17
TORSDOF 4
ENDMDL
MODEL 7
REMARK VINA RESULT:      -8.4      6.349     10.099
REMARK  4 active torsions:
REMARK  status: ('A' for Active; 'I' for Inactive)
REMARK    1  A    between atoms: C_2  and  C_3 
REMARK    2  A    between atoms: C_4  and  N_5 
REMARK       I    between atoms: N_5  and  C_6 
REMARK    3  A    between atoms: C_6  and  C_7 
REMARK    4  A    between atoms: C_19  and  C_20 
ROOT
HETATM    1  N   UNL     1       6.625  30.676  59.128  1.00  0.00    -0.321 N 
HETATM    2  C   UNL     1       6.217  32.004  59.152  1.00  0.00     0.277 C 
HETATM    3  O   UNL     1       6.296  32.810  58.238  1.00  0.00    -0.266 OA
HETATM    4  H   UNL     1       6.126  30.115  59.807  1.00  0.00     0.169 HD
ENDROOT
BRANCH   2   5
HETATM    5  C   UNL     1       5.530  32.381  60.471  1.00  0.00     0.156 A 
HETATM    6  N   UNL     1       4.235  32.533  60.398  1.00  0.00    -0.166 NA
HETATM    7  N   UNL     1       3.564  32.909  61.520  1.00  0.00    -0.242 N 
HETATM    8  C   UNL     1       4.126  33.190  62.741  1.00  0.00     0.272 A 
HETATM    9  H   UNL     1       2.561  33.047  61.434  1.00  0.00     0.192 HD
HETATM   10  O   UNL     1       3.458  33.570  63.696  1.00  0.00    -0.266 OA
HETATM   11  C   UNL     1       5.582  32.993  62.845  1.00  0.00     0.046 A 
HETATM   12  C   UNL     1       6.297  32.564  61.726  1.00  0.00     0.016 A 
HETATM   13  C   UNL     1       6.226  33.220  64.068  1.00  0.00     0.018 A 
HETATM   14  C   UNL     1       7.671  32.330  61.851  1.00  0.00     0.015 A 
HETATM   15  C   UNL     1       8.317  32.554  63.072  1.00  0.00     0.001 A 
HETATM   16  C   UNL     1       7.598  33.004  64.177  1.00  0.00     0.001 A 
ENDBRANCH   2   5
BRANCH   1  17
HETATM   17  C   UNL     1       7.112  30.073  57.952  1.00  0.00     0.049 A 
HETATM   18  C   UNL     1       8.524  29.995  57.782  1.00  0.00    -0.031 A 
HETATM   19  C   UNL     1       9.054  29.444  56.607  1.00  0.00     0.011 A 
HETATM   20  C   UNL     1       8.214  28.954  55.621  1.00  0.00     0.025 A 
HETATM   21  C   UNL     1       6.833  28.981  55.809  1.00  0.00     0.042 A 
HETATM   22  C   UNL     1       6.235  29.518  56.983  1.00  0.00    -0.009 A 
HETATM   23 CL   UNL     1       5.889  28.330  54.501  1.00  0.00    -0.084 Cl
BRANCH  18  24
HETATM   24  C   UNL     1       9.520  30.347  58.873  1.00  0.00     0.036 C 
HETATM   25  C   UNL     1       9.998  31.788  58.745  1.00  0.00     0.010 C 
ENDBRANCH  18  24
BRANCH  22  26
HETATM   26  C   UNL     1       4.711  29.511  57.015  1.00  0.00     0.038 C 
HETATM   27  C   UNL     1       3.858  30.675  56.541  1.00  0.00     0.010 C 
ENDBRANCH  22  26
ENDBRANCH   1  17
TORSDOF 4
ENDMDL
MODEL 8
REMARK VINA RESULT:      -8.4      3.278      6.641
REMARK  4 active torsions:
REMARK  status: ('A' for Active; 'I' for Inactive)
REMARK    1  A    between atoms: C_2  and  C_3 
REMARK    2  A    between atoms: C_4  and  N_5 
REMARK       I    between atoms: N_5  and  C_6 
REMARK    3  A    between atoms: C_6  and  C_7 
REMARK    4  A    between atoms: C_19  and  C_20 
ROOT
HETATM    1  N   UNL     1       7.119  25.832  55.078  1.00  0.00    -0.321 N 
HETATM    2  C   UNL     1       5.931  25.946  55.788  1.00  0.00     0.277 C 
HETATM    3  O   UNL     1       5.119  25.059  56.002  1.00  0.00    -0.266 OA
HETATM    4  H   UNL     1       7.793  26.536  55.353  1.00  0.00     0.169 HD
ENDROOT
BRANCH   2   5
HETATM    5  C   UNL     1       5.748  27.339  56.403  1.00  0.00     0.156 A 
HETATM    6  N   UNL     1       4.511  27.748  56.492  1.00  0.00    -0.166 NA
HETATM    7  N   UNL     1       4.275  28.992  56.988  1.00  0.00    -0.242 N 
HETATM    8  C   UNL     1       5.229  29.899  57.380  1.00  0.00     0.272 A 
HETATM    9  H   UNL     1       3.308  29.300  57.025  1.00  0.00     0.192 HD
HETATM   10  O   UNL     1       4.940  31.023  57.775  1.00  0.00    -0.266 OA
HETATM   11  C   UNL     1       6.627  29.440  57.313  1.00  0.00     0.046 A 
HETATM   12  C   UNL     1       6.904  28.152  56.851  1.00  0.00     0.016 A 
HETATM   13  C   UNL     1       7.658  30.291  57.732  1.00  0.00     0.018 A 
HETATM   14  C   UNL     1       8.231  27.707  56.842  1.00  0.00     0.015 A 
HETATM   15  C   UNL     1       9.262  28.556  57.261  1.00  0.00     0.001 A 
HETATM   16  C   UNL     1       8.978  29.847  57.700  1.00  0.00     0.001 A 
ENDBRANCH   2   5
BRANCH   1  17
HETATM   17  C   UNL     1       7.572  24.592  54.586  1.00  0.00     0.049 A 
HETATM   18  C   UNL     1       7.548  24.388  53.177  1.00  0.00    -0.031 A 
HETATM   19  C   UNL     1       7.946  23.153  52.645  1.00  0.00     0.011 A 
HETATM   20  C   UNL     1       8.385  22.139  53.480  1.00  0.00     0.025 A 
HETATM   21  C   UNL     1       8.460  22.356  54.855  1.00  0.00     0.042 A 
HETATM   22  C   UNL     1       8.079  23.589  55.454  1.00  0.00    -0.009 A 
HETATM   23 CL   UNL     1       9.033  21.007  55.793  1.00  0.00    -0.084 Cl
BRANCH  18  24
HETATM   24  C   UNL     1       7.247  25.489  52.176  1.00  0.00     0.036 C 
HETATM   25  C   UNL     1       5.773  25.501  51.788  1.00  0.00     0.010 C 
ENDBRANCH  18  24
BRANCH  22  26
HETATM   26  C   UNL     1       8.181  23.650  56.973  1.00  0.00     0.038 C 
HETATM   27  C   UNL     1       9.165  24.540  57.712  1.00  0.00     0.010 C 
ENDBRANCH  22  26
ENDBRANCH   1  17
TORSDOF 4
ENDMDL
MODEL 9
REMARK VINA RESULT:      -8.4      2.917      5.280
REMARK  4 active torsions:
REMARK  status: ('A' for Active; 'I' for Inactive)
REMARK    1  A    between atoms: C_2  and  C_3 
REMARK    2  A    between atoms: C_4  and  N_5 
REMARK       I    between atoms: N_5  and  C_6 
REMARK    3  A    between atoms: C_6  and  C_7 
REMARK    4  A    between atoms: C_19  and  C_20 
ROOT
HETATM    1  N   UNL     1       7.094  28.595  56.151  1.00  0.00    -0.321 N 
HETATM    2  C   UNL     1       6.659  27.316  56.474  1.00  0.00     0.277 C 
HETATM    3  O   UNL     1       6.551  26.841  57.594  1.00  0.00    -0.266 OA
HETATM    4  H   UNL     1       6.740  28.900  55.253  1.00  0.00     0.169 HD
ENDROOT
BRANCH   2   5
HETATM    5  C   UNL     1       6.205  26.523  55.241  1.00  0.00     0.156 A 
HETATM    6  N   UNL     1       5.186  27.029  54.601  1.00  0.00    -0.166 NA
HETATM    7  N   UNL     1       4.702  26.357  53.522  1.00  0.00    -0.242 N 
HETATM    8  C   UNL     1       5.162  25.152  53.049  1.00  0.00     0.272 A 
HETATM    9  H   UNL     1       3.893  26.754  53.055  1.00  0.00     0.192 HD
HETATM   10  O   UNL     1       4.642  24.584  52.095  1.00  0.00    -0.266 OA
HETATM   11  C   UNL     1       6.331  24.586  53.743  1.00  0.00     0.046 A 
HETATM   12  C   UNL     1       6.882  25.271  54.827  1.00  0.00     0.016 A 
HETATM   13  C   UNL     1       6.886  23.380  53.297  1.00  0.00     0.018 A 
HETATM   14  C   UNL     1       8.025  24.751  55.446  1.00  0.00     0.015 A 
HETATM   15  C   UNL     1       8.581  23.546  55.001  1.00  0.00     0.001 A 
HETATM   16  C   UNL     1       8.010  22.858  53.932  1.00  0.00     0.001 A 
ENDBRANCH   2   5
BRANCH   1  17
HETATM   17  C   UNL     1       7.383  29.551  57.144  1.00  0.00     0.049 A 
HETATM   18  C   UNL     1       8.735  29.676  57.573  1.00  0.00    -0.031 A 
HETATM   19  C   UNL     1       9.062  30.583  58.591  1.00  0.00     0.011 A 
HETATM   20  C   UNL     1       8.082  31.374  59.167  1.00  0.00     0.025 A 
HETATM   21  C   UNL     1       6.767  31.292  58.711  1.00  0.00     0.042 A 
HETATM   22  C   UNL     1       6.375  30.398  57.675  1.00  0.00    -0.009 A 
HETATM   23 CL   UNL     1       5.634  32.342  59.510  1.00  0.00    -0.084 Cl
BRANCH  18  24
HETATM   24  C   UNL     1       9.899  28.979  56.889  1.00  0.00     0.036 C 
HETATM   25  C   UNL     1      11.201  29.742  57.095  1.00  0.00     0.010 C 
ENDBRANCH  18  24
BRANCH  22  26
HETATM   26  C   UNL     1       4.892  30.400  57.323  1.00  0.00     0.038 C 
HETATM   27  C   UNL     1       4.305  31.200  56.173  1.00  0.00     0.010 C 
ENDBRANCH  22  26
ENDBRANCH   1  17
TORSDOF 4
ENDMDL
MODEL 10
REMARK VINA RESULT:      -8.3      3.543      7.009
REMARK  4 active torsions:
REMARK  status: ('A' for Active; 'I' for Inactive)
REMARK    1  A    between atoms: C_2  and  C_3 
REMARK    2  A    between atoms: C_4  and  N_5 
REMARK       I    between atoms: N_5  and  C_6 
REMARK    3  A    between atoms: C_6  and  C_7 
REMARK    4  A    between atoms: C_19  and  C_20 
ROOT
HETATM    1  N   UNL     1       6.940  26.767  55.910  1.00  0.00    -0.321 N 
HETATM    2  C   UNL     1       7.574  27.966  55.611  1.00  0.00     0.277 C 
HETATM    3  O   UNL     1       8.144  28.253  54.570  1.00  0.00    -0.266 OA
HETATM    4  H   UNL     1       6.228  26.882  56.620  1.00  0.00     0.169 HD
ENDROOT
BRANCH   2   5
HETATM    5  C   UNL     1       7.414  29.006  56.728  1.00  0.00     0.156 A 
HETATM    6  N   UNL     1       6.192  29.179  57.154  1.00  0.00    -0.166 NA
HETATM    7  N   UNL     1       5.969  30.117  58.114  1.00  0.00    -0.242 N 
HETATM    8  C   UNL     1       6.913  30.947  58.666  1.00  0.00     0.272 A 
HETATM    9  H   UNL     1       5.007  30.253  58.412  1.00  0.00     0.192 HD
HETATM   10  O   UNL     1       6.626  31.802  59.496  1.00  0.00    -0.266 OA
HETATM   11  C   UNL     1       8.300  30.742  58.216  1.00  0.00     0.046 A 
HETATM   12  C   UNL     1       8.574  29.757  57.265  1.00  0.00     0.016 A 
HETATM   13  C   UNL     1       9.329  31.521  58.761  1.00  0.00     0.018 A 
HETATM   14  C   UNL     1       9.902  29.535  56.884  1.00  0.00     0.015 A 
HETATM   15  C   UNL     1      10.931  30.312  57.428  1.00  0.00     0.001 A 
HETATM   16  C   UNL     1      10.646  31.307  58.361  1.00  0.00     0.001 A 
ENDBRANCH   2   5
BRANCH   1  17
HETATM   17  C   UNL     1       6.807  25.742  54.953  1.00  0.00     0.049 A 
HETATM   18  C   UNL     1       7.656  24.605  55.075  1.00  0.00    -0.031 A 
HETATM   19  C   UNL     1       7.590  23.581  54.119  1.00  0.00     0.011 A 
HETATM   20  C   UNL     1       6.689  23.657  53.071  1.00  0.00     0.025 A 
HETATM   21  C   UNL     1       5.820  24.743  52.980  1.00  0.00     0.042 A 
HETATM   22  C   UNL     1       5.832  25.809  53.923  1.00  0.00    -0.009 A 
HETATM   23 CL   UNL     1       4.732  24.717  51.622  1.00  0.00    -0.084 Cl
BRANCH  18  24
HETATM   24  C   UNL     1       8.551  24.352  56.276  1.00  0.00     0.036 C 
HETATM   25  C   UNL     1       8.441  22.911  56.756  1.00  0.00     0.010 C 
ENDBRANCH  18  24
BRANCH  22  26
HETATM   26  C   UNL     1       4.847  26.942  53.658  1.00  0.00     0.038 C 
HETATM   27  C   UNL     1       5.147  28.116  52.742  1.00  0.00     0.010 C 
ENDBRANCH  22  26
ENDBRANCH   1  17
TORSDOF 4
ENDMDL
