MODEL 1
REMARK VINA RESULT:      -8.2      0.000      0.000
REMARK  10 active torsions:
REMARK  status: ('A' for Active; 'I' for Inactive)
REMARK    1  A    between atoms: C_2  and  N_3 
REMARK    2  A    between atoms: N_7  and  C_8 
REMARK    3  A    between atoms: C_8  and  C_9 
REMARK    4  A    between atoms: C_9  and  N_10 
REMARK    5  A    between atoms: N_10  and  C_11 
REMARK    6  A    between atoms: C_13  and  C_14 
REMARK    7  A    between atoms: C_14  and  N_15 
REMARK    8  A    between atoms: C_23  and  C_24 
REMARK    9  A    between atoms: C_24  and  O_25 
REMARK   10  A    between atoms: O_25  and  C_26 
ROOT
HETATM    1  C   UNL     1       5.123  26.839  53.615  1.00  0.00     0.139 A 
HETATM    2  N   UNL     1       4.846  27.364  52.394  1.00  0.00    -0.214 NA
HETATM    3  C   UNL     1       5.377  26.808  51.294  1.00  0.00     0.155 A 
HETATM    4  N   UNL     1       6.230  25.777  51.258  1.00  0.00    -0.224 NA
HETATM    5  C   UNL     1       6.499  25.278  52.475  1.00  0.00     0.115 A 
HETATM    6  C   UNL     1       5.982  25.710  53.685  1.00  0.00     0.053 A 
HETATM    7  S   UNL     1       7.574  23.982  52.621  1.00  0.00    -0.063 SA
HETATM    8  C   UNL     1       7.385  23.909  54.319  1.00  0.00     0.089 A 
HETATM    9  C   UNL     1       6.459  24.853  54.770  1.00  0.00    -0.022 A 
HETATM   10  C   UNL     1       6.013  24.966  56.200  1.00  0.00     0.051 C 
ENDROOT
BRANCH   1  11
HETATM   11  N   UNL     1       4.548  27.414  54.743  1.00  0.00    -0.372 N 
HETATM   12  H   UNL     1       4.751  26.890  55.588  1.00  0.00     0.161 HD
BRANCH  11  13
HETATM   13  C   UNL     1       4.600  28.858  54.929  1.00  0.00     0.145 C 
BRANCH  13  14
HETATM   14  C   UNL     1       5.562  29.323  56.057  1.00  0.00     0.092 C 
HETATM   15  C   UNL     1       4.792  29.617  57.356  1.00  0.00     0.033 C 
BRANCH  14  16
HETATM   16  N   UNL     1       6.725  28.439  56.318  1.00  0.00    -0.404 N 
HETATM   17  C   UNL     1       7.164  28.358  57.715  1.00  0.00     0.145 C 
HETATM   18  C   UNL     1       8.342  29.274  58.117  1.00  0.00     0.254 C 
HETATM   19  N   UNL     1       9.495  29.144  57.138  1.00  0.00    -0.068 N 
HETATM   20  H   UNL     1       9.828  28.171  57.186  1.00  0.00     0.280 HD
HETATM   21  C   UNL     1       9.022  29.367  55.706  1.00  0.00     0.254 C 
HETATM   22  C   UNL     1       7.842  28.437  55.366  1.00  0.00     0.145 C 
BRANCH  19  23
HETATM   23  C   UNL     1      10.669  30.047  57.455  1.00  0.00     0.230 C 
HETATM   24  C   UNL     1      10.234  31.268  58.242  1.00  0.00     0.034 C 
ENDBRANCH  19  23
ENDBRANCH  14  16
ENDBRANCH  13  14
ENDBRANCH  11  13
ENDBRANCH   1  11
BRANCH   3  25
HETATM   25  C   UNL     1       4.969  27.352  49.935  1.00  0.00     0.314 C 
BRANCH  25  26
HETATM   26  N   UNL     1       3.526  27.024  49.552  1.00  0.00    -0.072 N 
HETATM   27  H   UNL     1       3.110  26.655  50.426  1.00  0.00     0.279 HD
HETATM   28  C   UNL     1       2.730  28.248  49.201  1.00  0.00     0.269 C 
HETATM   29  C   UNL     1       3.427  25.959  48.508  1.00  0.00     0.269 C 
ENDBRANCH  25  26
ENDBRANCH   3  25
BRANCH   8  30
HETATM   30  C   UNL     1       8.154  22.952  55.114  1.00  0.00     0.300 C 
HETATM   31  O   UNL     1       9.315  23.119  55.468  1.00  0.00    -0.259 OA
BRANCH  30  32
HETATM   32  O   UNL     1       7.409  21.853  55.425  1.00  0.00    -0.317 OA
BRANCH  32  33
HETATM   33  C   UNL     1       7.991  20.580  55.104  1.00  0.00     0.174 C 
HETATM   34  C   UNL     1       8.100  20.426  53.599  1.00  0.00     0.034 C 
ENDBRANCH  32  33
ENDBRANCH  30  32
ENDBRANCH   8  30
TORSDOF 10
ENDMDL
MODEL 2
REMARK VINA RESULT:      -8.0      1.809      6.923
REMARK  10 active torsions:
REMARK  status: ('A' for Active; 'I' for Inactive)
REMARK    1  A    between atoms: C_2  and  N_3 
REMARK    2  A    between atoms: N_7  and  C_8 
REMARK    3  A    between atoms: C_8  and  C_9 
REMARK    4  A    between atoms: C_9  and  N_10 
REMARK    5  A    between atoms: N_10  and  C_11 
REMARK    6  A    between atoms: C_13  and  C_14 
REMARK    7  A    between atoms: C_14  and  N_15 
REMARK    8  A    between atoms: C_23  and  C_24 
REMARK    9  A    between atoms: C_24  and  O_25 
REMARK   10  A    between atoms: O_25  and  C_26 
ROOT
HETATM    1  C   UNL     1       6.875  26.778  55.075  1.00  0.00     0.139 A 
HETATM    2  N   UNL     1       7.057  27.947  55.741  1.00  0.00    -0.214 NA
HETATM    3  C   UNL     1       7.814  27.971  56.850  1.00  0.00     0.155 A 
HETATM    4  N   UNL     1       8.399  26.918  57.433  1.00  0.00    -0.224 NA
HETATM    5  C   UNL     1       8.199  25.771  56.766  1.00  0.00     0.115 A 
HETATM    6  C   UNL     1       7.493  25.607  55.586  1.00  0.00     0.053 A 
HETATM    7  S   UNL     1       8.852  24.334  57.371  1.00  0.00    -0.063 SA
HETATM    8  C   UNL     1       8.245  23.412  56.065  1.00  0.00     0.089 A 
HETATM    9  C   UNL     1       7.579  24.217  55.138  1.00  0.00    -0.022 A 
HETATM   10  C   UNL     1       7.020  23.707  53.840  1.00  0.00     0.051 C 
ENDROOT
BRANCH   1  11
HETATM   11  N   UNL     1       6.104  26.776  53.917  1.00  0.00    -0.372 N 
HETATM   12  H   UNL     1       5.257  26.226  54.020  1.00  0.00     0.161 HD
BRANCH  11  13
HETATM   13  C   UNL     1       5.907  28.011  53.172  1.00  0.00     0.145 C 
BRANCH  13  14
HETATM   14  C   UNL     1       4.577  28.071  52.371  1.00  0.00     0.092 C 
HETATM   15  C   UNL     1       3.534  28.943  53.093  1.00  0.00     0.033 C 
BRANCH  14  16
HETATM   16  N   UNL     1       4.700  28.461  50.945  1.00  0.00    -0.404 N 
HETATM   17  C   UNL     1       3.528  29.121  50.361  1.00  0.00     0.145 C 
HETATM   18  C   UNL     1       2.561  28.218  49.563  1.00  0.00     0.254 C 
HETATM   19  N   UNL     1       3.311  27.368  48.554  1.00  0.00    -0.068 N 
HETATM   20  H   UNL     1       3.758  28.011  47.885  1.00  0.00     0.280 HD
HETATM   21  C   UNL     1       4.440  26.594  49.225  1.00  0.00     0.254 C 
HETATM   22  C   UNL     1       5.364  27.542  50.013  1.00  0.00     0.145 C 
BRANCH  19  23
HETATM   23  C   UNL     1       2.422  26.429  47.764  1.00  0.00     0.230 C 
HETATM   24  C   UNL     1       3.014  25.035  47.692  1.00  0.00     0.034 C 
ENDBRANCH  19  23
ENDBRANCH  14  16
ENDBRANCH  13  14
ENDBRANCH  11  13
ENDBRANCH   1  11
BRANCH   3  25
HETATM   25  C   UNL     1       8.085  29.309  57.517  1.00  0.00     0.314 C 
BRANCH  25  26
HETATM   26  N   UNL     1       9.568  29.677  57.571  1.00  0.00    -0.072 N 
HETATM   27  H   UNL     1      10.012  28.869  58.040  1.00  0.00     0.279 HD
HETATM   28  C   UNL     1      10.191  29.758  56.207  1.00  0.00     0.269 C 
HETATM   29  C   UNL     1       9.837  30.895  58.395  1.00  0.00     0.269 C 
ENDBRANCH  25  26
ENDBRANCH   3  25
BRANCH   8  30
HETATM   30  C   UNL     1       8.439  21.962  56.023  1.00  0.00     0.300 C 
HETATM   31  O   UNL     1       8.066  21.188  56.895  1.00  0.00    -0.259 OA
BRANCH  30  32
HETATM   32  O   UNL     1       9.076  21.580  54.880  1.00  0.00    -0.317 OA
BRANCH  32  33
HETATM   33  C   UNL     1       8.700  20.303  54.341  1.00  0.00     0.174 C 
HETATM   34  C   UNL     1       8.378  20.440  52.865  1.00  0.00     0.034 C 
ENDBRANCH  32  33
ENDBRANCH  30  32
ENDBRANCH   8  30
TORSDOF 10
ENDMDL
MODEL 3
REMARK VINA RESULT:      -7.6      1.968      2.547
REMARK  10 active torsions:
REMARK  status: ('A' for Active; 'I' for Inactive)
REMARK    1  A    between atoms: C_2  and  N_3 
REMARK    2  A    between atoms: N_7  and  C_8 
REMARK    3  A    between atoms: C_8  and  C_9 
REMARK    4  A    between atoms: C_9  and  N_10 
REMARK    5  A    between atoms: N_10  and  C_11 
REMARK    6  A    between atoms: C_13  and  C_14 
REMARK    7  A    between atoms: C_14  and  N_15 
REMARK    8  A    between atoms: C_23  and  C_24 
REMARK    9  A    between atoms: C_24  and  O_25 
REMARK   10  A    between atoms: O_25  and  C_26 
ROOT
HETATM    1  C   UNL     1       5.867  27.291  54.925  1.00  0.00     0.139 A 
HETATM    2  N   UNL     1       5.462  28.108  53.919  1.00  0.00    -0.214 NA
HETATM    3  C   UNL     1       5.658  27.740  52.642  1.00  0.00     0.155 A 
HETATM    4  N   UNL     1       6.281  26.633  52.222  1.00  0.00    -0.224 NA
HETATM    5  C   UNL     1       6.682  25.843  53.230  1.00  0.00     0.115 A 
HETATM    6  C   UNL     1       6.498  26.065  54.585  1.00  0.00     0.053 A 
HETATM    7  S   UNL     1       7.505  24.408  52.884  1.00  0.00    -0.063 SA
HETATM    8  C   UNL     1       7.637  23.988  54.537  1.00  0.00     0.089 A 
HETATM    9  C   UNL     1       7.007  24.930  55.354  1.00  0.00    -0.022 A 
HETATM   10  C   UNL     1       6.875  24.784  56.843  1.00  0.00     0.051 C 
ENDROOT
BRANCH   1  11
HETATM   11  N   UNL     1       5.638  27.677  56.241  1.00  0.00    -0.372 N 
HETATM   12  H   UNL     1       5.964  26.985  56.907  1.00  0.00     0.161 HD
BRANCH  11  13
HETATM   13  C   UNL     1       5.904  29.049  56.653  1.00  0.00     0.145 C 
BRANCH  13  14
HETATM   14  C   UNL     1       6.981  29.186  57.763  1.00  0.00     0.092 C 
HETATM   15  C   UNL     1       8.091  28.133  57.591  1.00  0.00     0.033 C 
BRANCH  14  16
HETATM   16  N   UNL     1       7.558  30.542  57.938  1.00  0.00    -0.404 N 
HETATM   17  C   UNL     1       8.997  30.592  58.217  1.00  0.00     0.145 C 
HETATM   18  C   UNL     1       9.402  30.719  59.703  1.00  0.00     0.254 C 
HETATM   19  N   UNL     1       8.639  31.841  60.384  1.00  0.00    -0.068 N 
HETATM   20  H   UNL     1       8.902  32.718  59.914  1.00  0.00     0.280 HD
HETATM   21  C   UNL     1       7.137  31.680  60.182  1.00  0.00     0.254 C 
HETATM   22  C   UNL     1       6.794  31.546  58.687  1.00  0.00     0.145 C 
BRANCH  19  23
HETATM   23  C   UNL     1       8.963  31.993  61.856  1.00  0.00     0.230 C 
HETATM   24  C   UNL     1       7.702  32.064  62.696  1.00  0.00     0.034 C 
ENDBRANCH  19  23
ENDBRANCH  14  16
ENDBRANCH  13  14
ENDBRANCH  11  13
ENDBRANCH   1  11
BRANCH   3  25
HETATM   25  C   UNL     1       5.104  28.625  51.538  1.00  0.00     0.314 C 
BRANCH  25  26
HETATM   26  N   UNL     1       3.852  28.056  50.868  1.00  0.00    -0.072 N 
HETATM   27  H   UNL     1       3.541  27.305  51.510  1.00  0.00     0.279 HD
HETATM   28  C   UNL     1       2.726  29.048  50.814  1.00  0.00     0.269 C 
HETATM   29  C   UNL     1       4.134  27.437  49.536  1.00  0.00     0.269 C 
ENDBRANCH  25  26
ENDBRANCH   3  25
BRANCH   8  30
HETATM   30  C   UNL     1       8.354  22.779  54.942  1.00  0.00     0.300 C 
HETATM   31  O   UNL     1       9.505  22.762  55.358  1.00  0.00    -0.259 OA
BRANCH  30  32
HETATM   32  O   UNL     1       7.569  21.670  54.814  1.00  0.00    -0.317 OA
BRANCH  32  33
HETATM   33  C   UNL     1       8.221  20.484  54.336  1.00  0.00     0.174 C 
HETATM   34  C   UNL     1       8.222  20.470  52.819  1.00  0.00     0.034 C 
ENDBRANCH  32  33
ENDBRANCH  30  32
ENDBRANCH   8  30
TORSDOF 10
ENDMDL
MODEL 4
REMARK VINA RESULT:      -7.2      2.654      4.052
REMARK  10 active torsions:
REMARK  status: ('A' for Active; 'I' for Inactive)
REMARK    1  A    between atoms: C_2  and  N_3 
REMARK    2  A    between atoms: N_7  and  C_8 
REMARK    3  A    between atoms: C_8  and  C_9 
REMARK    4  A    between atoms: C_9  and  N_10 
REMARK    5  A    between atoms: N_10  and  C_11 
REMARK    6  A    between atoms: C_13  and  C_14 
REMARK    7  A    between atoms: C_14  and  N_15 
REMARK    8  A    between atoms: C_23  and  C_24 
REMARK    9  A    between atoms: C_24  and  O_25 
REMARK   10  A    between atoms: O_25  and  C_26 
ROOT
HETATM    1  C   UNL     1       6.131  27.653  55.950  1.00  0.00     0.139 A 
HETATM    2  N   UNL     1       5.281  28.566  55.411  1.00  0.00    -0.214 NA
HETATM    3  C   UNL     1       4.645  28.286  54.262  1.00  0.00     0.155 A 
HETATM    4  N   UNL     1       4.794  27.182  53.521  1.00  0.00    -0.224 NA
HETATM    5  C   UNL     1       5.644  26.297  54.065  1.00  0.00     0.115 A 
HETATM    6  C   UNL     1       6.324  26.424  55.265  1.00  0.00     0.053 A 
HETATM    7  S   UNL     1       5.967  24.850  53.254  1.00  0.00    -0.063 SA
HETATM    8  C   UNL     1       7.019  24.298  54.485  1.00  0.00     0.089 A 
HETATM    9  C   UNL     1       7.087  25.208  55.543  1.00  0.00    -0.022 A 
HETATM   10  C   UNL     1       7.854  24.957  56.810  1.00  0.00     0.051 C 
ENDROOT
BRANCH   1  11
HETATM   11  N   UNL     1       6.765  27.951  57.151  1.00  0.00    -0.372 N 
HETATM   12  H   UNL     1       7.656  27.473  57.244  1.00  0.00     0.161 HD
BRANCH  11  13
HETATM   13  C   UNL     1       6.789  29.322  57.641  1.00  0.00     0.145 C 
BRANCH  13  14
HETATM   14  C   UNL     1       8.113  29.726  58.347  1.00  0.00     0.092 C 
HETATM   15  C   UNL     1       9.337  29.305  57.513  1.00  0.00     0.033 C 
BRANCH  14  16
HETATM   16  N   UNL     1       8.216  31.148  58.759  1.00  0.00    -0.404 N 
HETATM   17  C   UNL     1       9.209  31.441  59.797  1.00  0.00     0.145 C 
HETATM   18  C   UNL     1       8.679  31.528  61.247  1.00  0.00     0.254 C 
HETATM   19  N   UNL     1       7.465  32.434  61.332  1.00  0.00    -0.068 N 
HETATM   20  H   UNL     1       7.768  33.379  61.056  1.00  0.00     0.280 HD
HETATM   21  C   UNL     1       6.399  32.015  60.327  1.00  0.00     0.254 C 
HETATM   22  C   UNL     1       6.985  31.934  58.905  1.00  0.00     0.145 C 
BRANCH  19  23
HETATM   23  C   UNL     1       6.873  32.531  62.723  1.00  0.00     0.230 C 
HETATM   24  C   UNL     1       7.939  32.826  63.761  1.00  0.00     0.034 C 
ENDBRANCH  19  23
ENDBRANCH  14  16
ENDBRANCH  13  14
ENDBRANCH  11  13
ENDBRANCH   1  11
BRANCH   3  25
HETATM   25  C   UNL     1       3.624  29.281  53.736  1.00  0.00     0.314 C 
BRANCH  25  26
HETATM   26  N   UNL     1       3.893  30.722  54.171  1.00  0.00    -0.072 N 
HETATM   27  H   UNL     1       4.848  30.692  54.568  1.00  0.00     0.279 HD
HETATM   28  C   UNL     1       3.957  31.672  53.009  1.00  0.00     0.269 C 
HETATM   29  C   UNL     1       2.962  31.191  55.242  1.00  0.00     0.269 C 
ENDBRANCH  25  26
ENDBRANCH   3  25
BRANCH   8  30
HETATM   30  C   UNL     1       7.725  23.025  54.346  1.00  0.00     0.300 C 
HETATM   31  O   UNL     1       8.570  22.791  53.491  1.00  0.00    -0.259 OA
BRANCH  30  32
HETATM   32  O   UNL     1       7.334  22.134  55.302  1.00  0.00    -0.317 OA
BRANCH  32  33
HETATM   33  C   UNL     1       7.886  20.812  55.200  1.00  0.00     0.174 C 
HETATM   34  C   UNL     1       8.774  20.529  56.398  1.00  0.00     0.034 C 
ENDBRANCH  32  33
ENDBRANCH  30  32
ENDBRANCH   8  30
TORSDOF 10
ENDMDL
MODEL 5
REMARK VINA RESULT:      -7.2      3.886      7.053
REMARK  10 active torsions:
REMARK  status: ('A' for Active; 'I' for Inactive)
REMARK    1  A    between atoms: C_2  and  N_3 
REMARK    2  A    between atoms: N_7  and  C_8 
REMARK    3  A    between atoms: C_8  and  C_9 
REMARK    4  A    between atoms: C_9  and  N_10 
REMARK    5  A    between atoms: N_10  and  C_11 
REMARK    6  A    between atoms: C_13  and  C_14 
REMARK    7  A    between atoms: C_14  and  N_15 
REMARK    8  A    between atoms: C_23  and  C_24 
REMARK    9  A    between atoms: C_24  and  O_25 
REMARK   10  A    between atoms: O_25  and  C_26 
ROOT
HETATM    1  C   UNL     1       4.881  28.471  52.719  1.00  0.00     0.139 A 
HETATM    2  N   UNL     1       4.602  29.578  53.454  1.00  0.00    -0.214 NA
HETATM    3  C   UNL     1       4.051  30.649  52.861  1.00  0.00     0.155 A 
HETATM    4  N   UNL     1       3.776  30.781  51.559  1.00  0.00    -0.224 NA
HETATM    5  C   UNL     1       4.067  29.681  50.848  1.00  0.00     0.115 A 
HETATM    6  C   UNL     1       4.583  28.490  51.331  1.00  0.00     0.053 A 
HETATM    7  S   UNL     1       3.801  29.676  49.179  1.00  0.00    -0.063 SA
HETATM    8  C   UNL     1       4.338  28.060  49.014  1.00  0.00     0.089 A 
HETATM    9  C   UNL     1       4.680  27.508  50.251  1.00  0.00    -0.022 A 
HETATM   10  C   UNL     1       5.096  26.077  50.438  1.00  0.00     0.051 C 
ENDROOT
BRANCH   1  11
HETATM   11  N   UNL     1       5.433  27.363  53.353  1.00  0.00    -0.372 N 
HETATM   12  H   UNL     1       4.948  26.503  53.116  1.00  0.00     0.161 HD
BRANCH  11  13
HETATM   13  C   UNL     1       6.879  27.212  53.426  1.00  0.00     0.145 C 
BRANCH  13  14
HETATM   14  C   UNL     1       7.363  26.183  54.484  1.00  0.00     0.092 C 
HETATM   15  C   UNL     1       7.469  26.830  55.877  1.00  0.00     0.033 C 
BRANCH  14  16
HETATM   16  N   UNL     1       6.599  24.913  54.546  1.00  0.00    -0.404 N 
HETATM   17  C   UNL     1       6.771  24.123  55.769  1.00  0.00     0.145 C 
HETATM   18  C   UNL     1       7.803  22.974  55.703  1.00  0.00     0.254 C 
HETATM   19  N   UNL     1       7.579  22.106  54.479  1.00  0.00    -0.068 N 
HETATM   20  H   UNL     1       6.646  21.680  54.573  1.00  0.00     0.280 HD
HETATM   21  C   UNL     1       7.539  22.951  53.211  1.00  0.00     0.254 C 
HETATM   22  C   UNL     1       6.503  24.084  53.338  1.00  0.00     0.145 C 
BRANCH  19  23
HETATM   23  C   UNL     1       8.585  20.983  54.335  1.00  0.00     0.230 C 
HETATM   24  C   UNL     1       8.579  20.410  52.930  1.00  0.00     0.034 C 
ENDBRANCH  19  23
ENDBRANCH  14  16
ENDBRANCH  13  14
ENDBRANCH  11  13
ENDBRANCH   1  11
BRANCH   3  25
HETATM   25  C   UNL     1       3.655  31.835  53.726  1.00  0.00     0.314 C 
BRANCH  25  26
HETATM   26  N   UNL     1       4.848  32.634  54.251  1.00  0.00    -0.072 N 
HETATM   27  H   UNL     1       5.665  32.031  54.048  1.00  0.00     0.279 HD
HETATM   28  C   UNL     1       5.072  33.907  53.485  1.00  0.00     0.269 C 
HETATM   29  C   UNL     1       4.795  32.857  55.728  1.00  0.00     0.269 C 
ENDBRANCH  25  26
ENDBRANCH   3  25
BRANCH   8  30
HETATM   30  C   UNL     1       4.410  27.430  47.696  1.00  0.00     0.300 C 
HETATM   31  O   UNL     1       5.450  27.111  47.135  1.00  0.00    -0.259 OA
BRANCH  30  32
HETATM   32  O   UNL     1       3.165  27.228  47.175  1.00  0.00    -0.317 OA
BRANCH  32  33
HETATM   33  C   UNL     1       2.350  26.253  47.842  1.00  0.00     0.174 C 
HETATM   34  C   UNL     1       2.948  24.870  47.665  1.00  0.00     0.034 C 
ENDBRANCH  32  33
ENDBRANCH  30  32
ENDBRANCH   8  30
TORSDOF 10
ENDMDL
MODEL 6
REMARK VINA RESULT:      -7.2      2.290      6.566
REMARK  10 active torsions:
REMARK  status: ('A' for Active; 'I' for Inactive)
REMARK    1  A    between atoms: C_2  and  N_3 
REMARK    2  A    between atoms: N_7  and  C_8 
REMARK    3  A    between atoms: C_8  and  C_9 
REMARK    4  A    between atoms: C_9  and  N_10 
REMARK    5  A    between atoms: N_10  and  C_11 
REMARK    6  A    between atoms: C_13  and  C_14 
REMARK    7  A    between atoms: C_14  and  N_15 
REMARK    8  A    between atoms: C_23  and  C_24 
REMARK    9  A    between atoms: C_24  and  O_25 
REMARK   10  A    between atoms: O_25  and  C_26 
ROOT
HETATM    1  C   UNL     1       6.854  27.333  54.137  1.00  0.00     0.139 A 
HETATM    2  N   UNL     1       6.701  28.202  55.170  1.00  0.00    -0.214 NA
HETATM    3  C   UNL     1       7.013  27.814  56.417  1.00  0.00     0.155 A 
HETATM    4  N   UNL     1       7.429  26.599  56.790  1.00  0.00    -0.224 NA
HETATM    5  C   UNL     1       7.564  25.752  55.757  1.00  0.00     0.115 A 
HETATM    6  C   UNL     1       7.337  26.028  54.419  1.00  0.00     0.053 A 
HETATM    7  S   UNL     1       8.064  24.164  56.046  1.00  0.00    -0.063 SA
HETATM    8  C   UNL     1       8.030  23.763  54.383  1.00  0.00     0.089 A 
HETATM    9  C   UNL     1       7.677  24.865  53.601  1.00  0.00    -0.022 A 
HETATM   10  C   UNL     1       7.655  24.847  52.099  1.00  0.00     0.051 C 
ENDROOT
BRANCH   1  11
HETATM   11  N   UNL     1       6.546  27.757  52.849  1.00  0.00    -0.372 N 
HETATM   12  H   UNL     1       7.227  27.440  52.167  1.00  0.00     0.161 HD
BRANCH  11  13
HETATM   13  C   UNL     1       5.172  27.692  52.371  1.00  0.00     0.145 C 
BRANCH  13  14
HETATM   14  C   UNL     1       5.032  27.689  50.824  1.00  0.00     0.092 C 
HETATM   15  C   UNL     1       4.916  26.254  50.281  1.00  0.00     0.033 C 
BRANCH  14  16
HETATM   16  N   UNL     1       3.960  28.554  50.272  1.00  0.00    -0.404 N 
HETATM   17  C   UNL     1       4.017  28.798  48.827  1.00  0.00     0.145 C 
HETATM   18  C   UNL     1       4.688  30.117  48.382  1.00  0.00     0.254 C 
HETATM   19  N   UNL     1       4.130  31.301  49.148  1.00  0.00    -0.068 N 
HETATM   20  H   UNL     1       3.129  31.370  48.919  1.00  0.00     0.280 HD
HETATM   21  C   UNL     1       4.210  31.065  50.652  1.00  0.00     0.254 C 
HETATM   22  C   UNL     1       3.537  29.733  51.035  1.00  0.00     0.145 C 
BRANCH  19  23
HETATM   23  C   UNL     1       4.776  32.623  48.785  1.00  0.00     0.230 C 
HETATM   24  C   UNL     1       6.282  32.571  48.960  1.00  0.00     0.034 C 
ENDBRANCH  19  23
ENDBRANCH  14  16
ENDBRANCH  13  14
ENDBRANCH  11  13
ENDBRANCH   1  11
BRANCH   3  25
HETATM   25  C   UNL     1       6.930  28.837  57.538  1.00  0.00     0.314 C 
BRANCH  25  26
HETATM   26  N   UNL     1       8.289  29.202  58.136  1.00  0.00    -0.072 N 
HETATM   27  H   UNL     1       8.644  28.309  58.519  1.00  0.00     0.279 HD
HETATM   28  C   UNL     1       9.281  29.629  57.092  1.00  0.00     0.269 C 
HETATM   29  C   UNL     1       8.187  30.180  59.262  1.00  0.00     0.269 C 
ENDBRANCH  25  26
ENDBRANCH   3  25
BRANCH   8  30
HETATM   30  C   UNL     1       8.333  22.402  53.939  1.00  0.00     0.300 C 
HETATM   31  O   UNL     1       7.837  21.868  52.956  1.00  0.00    -0.259 OA
BRANCH  30  32
HETATM   32  O   UNL     1       9.253  21.809  54.753  1.00  0.00    -0.317 OA
BRANCH  32  33
HETATM   33  C   UNL     1       8.994  20.443  55.113  1.00  0.00     0.174 C 
HETATM   34  C   UNL     1       7.904  20.384  56.167  1.00  0.00     0.034 C 
ENDBRANCH  32  33
ENDBRANCH  30  32
ENDBRANCH   8  30
TORSDOF 10
ENDMDL
MODEL 7
REMARK VINA RESULT:      -6.8      3.267      5.890
REMARK  10 active torsions:
REMARK  status: ('A' for Active; 'I' for Inactive)
REMARK    1  A    between atoms: C_2  and  N_3 
REMARK    2  A    between atoms: N_7  and  C_8 
REMARK    3  A    between atoms: C_8  and  C_9 
REMARK    4  A    between atoms: C_9  and  N_10 
REMARK    5  A    between atoms: N_10  and  C_11 
REMARK    6  A    between atoms: C_13  and  C_14 
REMARK    7  A    between atoms: C_14  and  N_15 
REMARK    8  A    between atoms: C_23  and  C_24 
REMARK    9  A    between atoms: C_24  and  O_25 
REMARK   10  A    between atoms: O_25  and  C_26 
ROOT
HETATM    1  C   UNL     1       5.468  26.138  54.100  1.00  0.00     0.139 A 
HETATM    2  N   UNL     1       6.331  25.090  54.059  1.00  0.00    -0.214 NA
HETATM    3  C   UNL     1       6.813  24.670  52.878  1.00  0.00     0.155 A 
HETATM    4  N   UNL     1       6.490  25.153  51.673  1.00  0.00    -0.224 NA
HETATM    5  C   UNL     1       5.629  26.181  51.733  1.00  0.00     0.115 A 
HETATM    6  C   UNL     1       5.096  26.754  52.876  1.00  0.00     0.053 A 
HETATM    7  S   UNL     1       5.096  26.903  50.301  1.00  0.00    -0.063 SA
HETATM    8  C   UNL     1       4.139  28.048  51.138  1.00  0.00     0.089 A 
HETATM    9  C   UNL     1       4.264  27.904  52.521  1.00  0.00    -0.022 A 
HETATM   10  C   UNL     1       3.619  28.825  53.517  1.00  0.00     0.051 C 
ENDROOT
BRANCH   1  11
HETATM   11  N   UNL     1       4.994  26.572  55.333  1.00  0.00    -0.372 N 
HETATM   12  H   UNL     1       3.990  26.723  55.328  1.00  0.00     0.161 HD
BRANCH  11  13
HETATM   13  C   UNL     1       5.482  25.955  56.559  1.00  0.00     0.145 C 
BRANCH  13  14
HETATM   14  C   UNL     1       6.619  26.743  57.264  1.00  0.00     0.092 C 
HETATM   15  C   UNL     1       7.898  25.893  57.373  1.00  0.00     0.033 C 
BRANCH  14  16
HETATM   16  N   UNL     1       6.920  28.084  56.703  1.00  0.00    -0.404 N 
HETATM   17  C   UNL     1       8.254  28.246  56.118  1.00  0.00     0.145 C 
HETATM   18  C   UNL     1       9.328  28.884  57.028  1.00  0.00     0.254 C 
HETATM   19  N   UNL     1       8.815  30.161  57.667  1.00  0.00    -0.068 N 
HETATM   20  H   UNL     1       8.619  30.826  56.906  1.00  0.00     0.280 HD
HETATM   21  C   UNL     1       7.489  29.921  58.380  1.00  0.00     0.254 C 
HETATM   22  C   UNL     1       6.464  29.275  57.429  1.00  0.00     0.145 C 
BRANCH  19  23
HETATM   23  C   UNL     1       9.809  30.816  58.604  1.00  0.00     0.230 C 
HETATM   24  C   UNL     1       9.140  31.855  59.484  1.00  0.00     0.034 C 
ENDBRANCH  19  23
ENDBRANCH  14  16
ENDBRANCH  13  14
ENDBRANCH  11  13
ENDBRANCH   1  11
BRANCH   3  25
HETATM   25  C   UNL     1       7.854  23.564  52.870  1.00  0.00     0.314 C 
BRANCH  25  26
HETATM   26  N   UNL     1       7.819  22.682  54.118  1.00  0.00    -0.072 N 
HETATM   27  H   UNL     1       6.905  22.895  54.553  1.00  0.00     0.279 HD
HETATM   28  C   UNL     1       7.789  21.217  53.788  1.00  0.00     0.269 C 
HETATM   29  C   UNL     1       8.890  23.024  55.104  1.00  0.00     0.269 C 
ENDBRANCH  25  26
ENDBRANCH   3  25
BRANCH   8  30
HETATM   30  C   UNL     1       3.313  29.007  50.403  1.00  0.00     0.300 C 
HETATM   31  O   UNL     1       2.093  29.069  50.475  1.00  0.00    -0.259 OA
BRANCH  30  32
HETATM   32  O   UNL     1       4.079  29.836  49.638  1.00  0.00    -0.317 OA
BRANCH  32  33
HETATM   33  C   UNL     1       4.062  31.226  49.997  1.00  0.00     0.174 C 
HETATM   34  C   UNL     1       5.445  31.663  50.443  1.00  0.00     0.034 C 
ENDBRANCH  32  33
ENDBRANCH  30  32
ENDBRANCH   8  30
TORSDOF 10
ENDMDL
MODEL 8
REMARK VINA RESULT:      -6.8      2.210      2.962
REMARK  10 active torsions:
REMARK  status: ('A' for Active; 'I' for Inactive)
REMARK    1  A    between atoms: C_2  and  N_3 
REMARK    2  A    between atoms: N_7  and  C_8 
REMARK    3  A    between atoms: C_8  and  C_9 
REMARK    4  A    between atoms: C_9  and  N_10 
REMARK    5  A    between atoms: N_10  and  C_11 
REMARK    6  A    between atoms: C_13  and  C_14 
REMARK    7  A    between atoms: C_14  and  N_15 
REMARK    8  A    between atoms: C_23  and  C_24 
REMARK    9  A    between atoms: C_24  and  O_25 
REMARK   10  A    between atoms: O_25  and  C_26 
ROOT
HETATM    1  C   UNL     1       4.769  27.370  53.950  1.00  0.00     0.139 A 
HETATM    2  N   UNL     1       4.392  28.084  52.858  1.00  0.00    -0.214 NA
HETATM    3  C   UNL     1       4.850  27.736  51.645  1.00  0.00     0.155 A 
HETATM    4  N   UNL     1       5.717  26.753  51.376  1.00  0.00    -0.224 NA
HETATM    5  C   UNL     1       6.086  26.066  52.469  1.00  0.00     0.115 A 
HETATM    6  C   UNL     1       5.653  26.273  53.768  1.00  0.00     0.053 A 
HETATM    7  S   UNL     1       7.193  24.798  52.318  1.00  0.00    -0.063 SA
HETATM    8  C   UNL     1       7.132  24.436  53.989  1.00  0.00     0.089 A 
HETATM    9  C   UNL     1       6.225  25.262  54.656  1.00  0.00    -0.022 A 
HETATM   10  C   UNL     1       5.884  25.121  56.113  1.00  0.00     0.051 C 
ENDROOT
BRANCH   1  11
HETATM   11  N   UNL     1       4.269  27.731  55.196  1.00  0.00    -0.372 N 
HETATM   12  H   UNL     1       4.697  27.203  55.950  1.00  0.00     0.161 HD
BRANCH  11  13
HETATM   13  C   UNL     1       4.062  29.136  55.518  1.00  0.00     0.145 C 
BRANCH  13  14
HETATM   14  C   UNL     1       4.770  29.607  56.818  1.00  0.00     0.092 C 
HETATM   15  C   UNL     1       5.703  28.513  57.368  1.00  0.00     0.033 C 
BRANCH  14  16
HETATM   16  N   UNL     1       5.474  30.910  56.733  1.00  0.00    -0.404 N 
HETATM   17  C   UNL     1       6.262  31.288  57.912  1.00  0.00     0.145 C 
HETATM   18  C   UNL     1       5.573  32.237  58.919  1.00  0.00     0.254 C 
HETATM   19  N   UNL     1       4.969  33.437  58.216  1.00  0.00    -0.068 N 
HETATM   20  H   UNL     1       5.742  33.958  57.779  1.00  0.00     0.280 HD
HETATM   21  C   UNL     1       4.051  33.000  57.080  1.00  0.00     0.254 C 
HETATM   22  C   UNL     1       4.785  32.050  56.116  1.00  0.00     0.145 C 
BRANCH  19  23
HETATM   23  C   UNL     1       4.244  34.388  59.146  1.00  0.00     0.230 C 
HETATM   24  C   UNL     1       4.454  34.011  60.600  1.00  0.00     0.034 C 
ENDBRANCH  19  23
ENDBRANCH  14  16
ENDBRANCH  13  14
ENDBRANCH  11  13
ENDBRANCH   1  11
BRANCH   3  25
HETATM   25  C   UNL     1       4.332  28.486  50.429  1.00  0.00     0.314 C 
BRANCH  25  26
HETATM   26  N   UNL     1       2.989  27.967  49.916  1.00  0.00    -0.072 N 
HETATM   27  H   UNL     1       2.734  27.220  50.586  1.00  0.00     0.279 HD
HETATM   28  C   UNL     1       1.899  28.997  50.010  1.00  0.00     0.269 C 
HETATM   29  C   UNL     1       3.081  27.355  48.556  1.00  0.00     0.269 C 
ENDBRANCH  25  26
ENDBRANCH   3  25
BRANCH   8  30
HETATM   30  C   UNL     1       7.977  23.384  54.554  1.00  0.00     0.300 C 
HETATM   31  O   UNL     1       8.936  23.585  55.288  1.00  0.00    -0.259 OA
BRANCH  30  32
HETATM   32  O   UNL     1       7.550  22.146  54.171  1.00  0.00    -0.317 OA
BRANCH  32  33
HETATM   33  C   UNL     1       8.570  21.220  53.770  1.00  0.00     0.174 C 
HETATM   34  C   UNL     1       8.630  20.060  54.746  1.00  0.00     0.034 C 
ENDBRANCH  32  33
ENDBRANCH  30  32
ENDBRANCH   8  30
TORSDOF 10
ENDMDL
MODEL 9
REMARK VINA RESULT:      -6.7      4.569      8.408
REMARK  10 active torsions:
REMARK  status: ('A' for Active; 'I' for Inactive)
REMARK    1  A    between atoms: C_2  and  N_3 
REMARK    2  A    between atoms: N_7  and  C_8 
REMARK    3  A    between atoms: C_8  and  C_9 
REMARK    4  A    between atoms: C_9  and  N_10 
REMARK    5  A    between atoms: N_10  and  C_11 
REMARK    6  A    between atoms: C_13  and  C_14 
REMARK    7  A    between atoms: C_14  and  N_15 
REMARK    8  A    between atoms: C_23  and  C_24 
REMARK    9  A    between atoms: C_24  and  O_25 
REMARK   10  A    between atoms: O_25  and  C_26 
ROOT
HETATM    1  C   UNL     1       6.462  30.084  56.684  1.00  0.00     0.139 A 
HETATM    2  N   UNL     1       5.271  30.167  56.038  1.00  0.00    -0.214 NA
HETATM    3  C   UNL     1       4.324  31.005  56.491  1.00  0.00     0.155 A 
HETATM    4  N   UNL     1       4.400  31.768  57.588  1.00  0.00    -0.224 NA
HETATM    5  C   UNL     1       5.580  31.665  58.218  1.00  0.00     0.115 A 
HETATM    6  C   UNL     1       6.663  30.890  57.836  1.00  0.00     0.053 A 
HETATM    7  S   UNL     1       5.844  32.547  59.635  1.00  0.00    -0.063 SA
HETATM    8  C   UNL     1       7.442  31.959  59.802  1.00  0.00     0.089 A 
HETATM    9  C   UNL     1       7.789  31.118  58.741  1.00  0.00    -0.022 A 
HETATM   10  C   UNL     1       9.157  30.525  58.561  1.00  0.00     0.051 C 
ENDROOT
BRANCH   1  11
HETATM   11  N   UNL     1       7.439  29.227  56.190  1.00  0.00    -0.372 N 
HETATM   12  H   UNL     1       8.102  28.946  56.905  1.00  0.00     0.161 HD
BRANCH  11  13
HETATM   13  C   UNL     1       7.068  28.146  55.286  1.00  0.00     0.145 C 
BRANCH  13  14
HETATM   14  C   UNL     1       7.539  26.738  55.745  1.00  0.00     0.092 C 
HETATM   15  C   UNL     1       7.616  26.653  57.280  1.00  0.00     0.033 C 
BRANCH  14  16
HETATM   16  N   UNL     1       6.781  25.591  55.187  1.00  0.00    -0.404 N 
HETATM   17  C   UNL     1       6.723  24.394  56.032  1.00  0.00     0.145 C 
HETATM   18  C   UNL     1       7.753  23.285  55.719  1.00  0.00     0.254 C 
HETATM   19  N   UNL     1       7.766  22.951  54.238  1.00  0.00    -0.068 N 
HETATM   20  H   UNL     1       6.834  22.585  54.000  1.00  0.00     0.280 HD
HETATM   21  C   UNL     1       7.962  24.207  53.397  1.00  0.00     0.254 C 
HETATM   22  C   UNL     1       6.917  25.279  53.760  1.00  0.00     0.145 C 
BRANCH  19  23
HETATM   23  C   UNL     1       8.785  21.896  53.859  1.00  0.00     0.230 C 
HETATM   24  C   UNL     1       8.174  20.831  52.968  1.00  0.00     0.034 C 
ENDBRANCH  19  23
ENDBRANCH  14  16
ENDBRANCH  13  14
ENDBRANCH  11  13
ENDBRANCH   1  11
BRANCH   3  25
HETATM   25  C   UNL     1       3.041  31.153  55.691  1.00  0.00     0.314 C 
BRANCH  25  26
HETATM   26  N   UNL     1       3.006  32.409  54.820  1.00  0.00    -0.072 N 
HETATM   27  H   UNL     1       2.431  32.135  54.003  1.00  0.00     0.279 HD
HETATM   28  C   UNL     1       2.275  33.546  55.477  1.00  0.00     0.269 C 
HETATM   29  C   UNL     1       4.356  32.812  54.320  1.00  0.00     0.269 C 
ENDBRANCH  25  26
ENDBRANCH   3  25
BRANCH   8  30
HETATM   30  C   UNL     1       8.257  32.336  60.956  1.00  0.00     0.300 C 
HETATM   31  O   UNL     1       9.479  32.413  60.946  1.00  0.00    -0.259 OA
BRANCH  30  32
HETATM   32  O   UNL     1       7.481  32.608  62.044  1.00  0.00    -0.317 OA
BRANCH  32  33
HETATM   33  C   UNL     1       8.063  32.323  63.325  1.00  0.00     0.174 C 
HETATM   34  C   UNL     1       7.514  33.281  64.367  1.00  0.00     0.034 C 
ENDBRANCH  32  33
ENDBRANCH  30  32
ENDBRANCH   8  30
TORSDOF 10
ENDMDL
MODEL 10
REMARK VINA RESULT:      -6.7      4.098      7.438
REMARK  10 active torsions:
REMARK  status: ('A' for Active; 'I' for Inactive)
REMARK    1  A    between atoms: C_2  and  N_3 
REMARK    2  A    between atoms: N_7  and  C_8 
REMARK    3  A    between atoms: C_8  and  C_9 
REMARK    4  A    between atoms: C_9  and  N_10 
REMARK    5  A    between atoms: N_10  and  C_11 
REMARK    6  A    between atoms: C_13  and  C_14 
REMARK    7  A    between atoms: C_14  and  N_15 
REMARK    8  A    between atoms: C_23  and  C_24 
REMARK    9  A    between atoms: C_24  and  O_25 
REMARK   10  A    between atoms: O_25  and  C_26 
ROOT
HETATM    1  C   UNL     1       4.220  28.098  54.077  1.00  0.00     0.139 A 
HETATM    2  N   UNL     1       3.867  27.995  52.770  1.00  0.00    -0.214 NA
HETATM    3  C   UNL     1       3.390  29.070  52.122  1.00  0.00     0.155 A 
HETATM    4  N   UNL     1       3.161  30.278  52.651  1.00  0.00    -0.224 NA
HETATM    5  C   UNL     1       3.507  30.357  53.945  1.00  0.00     0.115 A 
HETATM    6  C   UNL     1       4.061  29.354  54.722  1.00  0.00     0.053 A 
HETATM    7  S   UNL     1       3.270  31.807  54.781  1.00  0.00    -0.063 SA
HETATM    8  C   UNL     1       3.925  31.176  56.229  1.00  0.00     0.089 A 
HETATM    9  C   UNL     1       4.370  29.863  56.058  1.00  0.00    -0.022 A 
HETATM   10  C   UNL     1       5.078  29.077  57.124  1.00  0.00     0.051 C 
ENDROOT
BRANCH   1  11
HETATM   11  N   UNL     1       4.732  26.981  54.727  1.00  0.00    -0.372 N 
HETATM   12  H   UNL     1       4.068  26.213  54.753  1.00  0.00     0.161 HD
BRANCH  11  13
HETATM   13  C   UNL     1       6.101  26.554  54.471  1.00  0.00     0.145 C 
BRANCH  13  14
HETATM   14  C   UNL     1       6.237  25.073  54.024  1.00  0.00     0.092 C 
HETATM   15  C   UNL     1       5.468  24.817  52.715  1.00  0.00     0.033 C 
BRANCH  14  16
HETATM   16  N   UNL     1       7.623  24.551  53.934  1.00  0.00    -0.404 N 
HETATM   17  C   UNL     1       7.906  23.683  52.787  1.00  0.00     0.145 C 
HETATM   18  C   UNL     1       7.830  22.161  53.044  1.00  0.00     0.254 C 
HETATM   19  N   UNL     1       8.628  21.773  54.275  1.00  0.00    -0.068 N 
HETATM   20  H   UNL     1       9.613  22.007  54.087  1.00  0.00     0.280 HD
HETATM   21  C   UNL     1       8.211  22.608  55.481  1.00  0.00     0.254 C 
HETATM   22  C   UNL     1       8.296  24.113  55.163  1.00  0.00     0.145 C 
BRANCH  19  23
HETATM   23  C   UNL     1       8.562  20.296  54.605  1.00  0.00     0.230 C 
HETATM   24  C   UNL     1       8.293  20.069  56.080  1.00  0.00     0.034 C 
ENDBRANCH  19  23
ENDBRANCH  14  16
ENDBRANCH  13  14
ENDBRANCH  11  13
ENDBRANCH   1  11
BRANCH   3  25
HETATM   25  C   UNL     1       3.099  28.954  50.635  1.00  0.00     0.314 C 
BRANCH  25  26
HETATM   26  N   UNL     1       4.293  28.465  49.815  1.00  0.00    -0.072 N 
HETATM   27  H   UNL     1       5.038  28.312  50.519  1.00  0.00     0.279 HD
HETATM   28  C   UNL     1       4.046  27.128  49.177  1.00  0.00     0.269 C 
HETATM   29  C   UNL     1       4.785  29.483  48.837  1.00  0.00     0.269 C 
ENDBRANCH  25  26
ENDBRANCH   3  25
BRANCH   8  30
HETATM   30  C   UNL     1       3.957  31.986  57.447  1.00  0.00     0.300 C 
HETATM   31  O   UNL     1       3.157  31.885  58.368  1.00  0.00    -0.259 OA
BRANCH  30  32
HETATM   32  O   UNL     1       5.004  32.860  57.434  1.00  0.00    -0.317 OA
BRANCH  32  33
HETATM   33  C   UNL     1       4.683  34.239  57.676  1.00  0.00     0.174 C 
HETATM   34  C   UNL     1       4.713  35.014  56.372  1.00  0.00     0.034 C 
ENDBRANCH  32  33
ENDBRANCH  30  32
ENDBRANCH   8  30
TORSDOF 10
ENDMDL
