MODEL 1
REMARK VINA RESULT:      -9.2      0.000      0.000
REMARK  11 active torsions:
REMARK  status: ('A' for Active; 'I' for Inactive)
REMARK    1  A    between atoms: C_3  and  C_4 
REMARK    2  A    between atoms: C_4  and  O_5 
REMARK    3  A    between atoms: C_12  and  C_13 
REMARK    4  A    between atoms: C_13  and  C_14 
REMARK    5  A    between atoms: C_15  and  C_16 
REMARK    6  A    between atoms: C_18  and  N_19 
REMARK    7  A    between atoms: N_25  and  C_26 
REMARK    8  A    between atoms: C_26  and  C_27 
REMARK    9  A    between atoms: C_27  and  C_28 
REMARK   10  A    between atoms: C_28  and  N_29 
REMARK   11  A    between atoms: C_38  and  O_39 
ROOT
HETATM    1  C   UNL     1       7.224  27.342  55.634  1.00  0.00     0.059 A 
HETATM    2  C   UNL     1       6.833  26.887  54.245  1.00  0.00     0.161 A 
HETATM    3  N   UNL     1       6.304  25.562  54.520  1.00  0.00    -0.333 N 
HETATM    4  C   UNL     1       6.344  25.265  55.864  1.00  0.00     0.278 A 
HETATM    5  O   UNL     1       6.095  24.171  56.348  1.00  0.00    -0.265 OA
HETATM    6  C   UNL     1       6.953  26.417  56.570  1.00  0.00     0.146 A 
ENDROOT
BRANCH   1   7
HETATM    7  C   UNL     1       7.984  28.613  55.699  1.00  0.00     0.196 C 
HETATM    8  O   UNL     1       8.758  28.893  54.790  1.00  0.00    -0.287 OA
BRANCH   7   9
HETATM    9  C   UNL     1       7.875  29.416  56.911  1.00  0.00     0.045 A 
HETATM   10  C   UNL     1       8.986  29.966  57.650  1.00  0.00    -0.013 A 
HETATM   11  C   UNL     1      10.430  29.790  57.307  1.00  0.00     0.052 C 
HETATM   12  C   UNL     1       8.465  30.697  58.714  1.00  0.00     0.115 A 
HETATM   13  N   UNL     1       7.094  30.601  58.630  1.00  0.00    -0.354 N 
HETATM   14  H   UNL     1       6.468  31.073  59.274  1.00  0.00     0.166 HD
HETATM   15  C   UNL     1       6.717  29.867  57.534  1.00  0.00     0.020 A 
HETATM   16  C   UNL     1       5.272  29.726  57.203  1.00  0.00     0.069 C 
BRANCH  12  17
HETATM   17  C   UNL     1       9.075  31.482  59.768  1.00  0.00     0.310 C 
HETATM   18  O   UNL     1       9.333  32.674  59.663  1.00  0.00    -0.258 OA
BRANCH  17  19
HETATM   19  O   UNL     1       9.317  30.722  60.867  1.00  0.00    -0.321 OA
HETATM   20  C   UNL     1       8.568  31.106  62.020  1.00  0.00     0.213 C 
ENDBRANCH  17  19
ENDBRANCH  12  17
ENDBRANCH   7   9
ENDBRANCH   1   7
BRANCH   2  21
HETATM   21  C   UNL     1       5.834  27.755  53.498  1.00  0.00    -0.028 A 
HETATM   22  C   UNL     1       6.140  28.384  52.281  1.00  0.00     0.045 A 
HETATM   23  C   UNL     1       5.159  29.122  51.595  1.00  0.00     0.103 A 
HETATM   24  C   UNL     1       3.883  29.293  52.139  1.00  0.00     0.036 A 
HETATM   25  C   UNL     1       3.585  28.708  53.368  1.00  0.00     0.003 A 
HETATM   26  C   UNL     1       4.546  27.940  54.033  1.00  0.00     0.010 A 
BRANCH  23  27
HETATM   27  N   UNL     1       5.474  29.696  50.280  1.00  0.00    -0.116 N 
HETATM   28  O   UNL     1       4.967  29.154  49.287  1.00  0.00    -0.532 OA
HETATM   29  O   UNL     1       6.221  30.682  50.243  1.00  0.00    -0.532 OA
ENDBRANCH  23  27
ENDBRANCH   2  21
BRANCH   6  30
HETATM   30  O   UNL     1       7.289  26.328  57.887  1.00  0.00    -0.355 OA
HETATM   31  H   UNL     1       7.408  25.401  58.156  1.00  0.00     0.218 HD
ENDBRANCH   6  30
BRANCH   3  32
HETATM   32  C   UNL     1       6.113  24.541  53.503  1.00  0.00     0.129 C 
BRANCH  32  33
HETATM   33  C   UNL     1       7.379  24.209  52.701  1.00  0.00     0.048 C 
BRANCH  33  34
HETATM   34  C   UNL     1       8.037  22.845  52.941  1.00  0.00     0.236 C 
BRANCH  34  35
HETATM   35  N   UNL     1       7.878  22.320  54.340  1.00  0.00    -0.067 N 
HETATM   36  H   UNL     1       7.016  22.743  54.744  1.00  0.00     0.280 HD
HETATM   37  C   UNL     1       7.785  20.810  54.449  1.00  0.00     0.261 C 
HETATM   38  C   UNL     1       7.618  20.400  55.917  1.00  0.00     0.195 C 
HETATM   39  O   UNL     1       8.690  20.905  56.720  1.00  0.00    -0.388 OA
HETATM   40  C   UNL     1       8.729  22.338  56.693  1.00  0.00     0.195 C 
HETATM   41  C   UNL     1       8.980  22.843  55.268  1.00  0.00     0.261 C 
ENDBRANCH  34  35
ENDBRANCH  33  34
ENDBRANCH  32  33
ENDBRANCH   3  32
TORSDOF 11
ENDMDL
MODEL 2
REMARK VINA RESULT:      -8.9      1.248      2.033
REMARK  11 active torsions:
REMARK  status: ('A' for Active; 'I' for Inactive)
REMARK    1  A    between atoms: C_3  and  C_4 
REMARK    2  A    between atoms: C_4  and  O_5 
REMARK    3  A    between atoms: C_12  and  C_13 
REMARK    4  A    between atoms: C_13  and  C_14 
REMARK    5  A    between atoms: C_15  and  C_16 
REMARK    6  A    between atoms: C_18  and  N_19 
REMARK    7  A    between atoms: N_25  and  C_26 
REMARK    8  A    between atoms: C_26  and  C_27 
REMARK    9  A    between atoms: C_27  and  C_28 
REMARK   10  A    between atoms: C_28  and  N_29 
REMARK   11  A    between atoms: C_38  and  O_39 
ROOT
HETATM    1  C   UNL     1       7.461  27.506  55.763  1.00  0.00     0.059 A 
HETATM    2  C   UNL     1       6.801  27.013  54.495  1.00  0.00     0.161 A 
HETATM    3  N   UNL     1       6.235  25.752  54.942  1.00  0.00    -0.333 N 
HETATM    4  C   UNL     1       6.489  25.523  56.276  1.00  0.00     0.278 A 
HETATM    5  O   UNL     1       6.251  24.480  56.866  1.00  0.00    -0.265 OA
HETATM    6  C   UNL     1       7.294  26.656  56.791  1.00  0.00     0.146 A 
ENDROOT
BRANCH   1   7
HETATM    7  C   UNL     1       8.310  28.712  55.614  1.00  0.00     0.196 C 
HETATM    8  O   UNL     1       8.913  28.891  54.560  1.00  0.00    -0.287 OA
BRANCH   7   9
HETATM    9  C   UNL     1       8.497  29.568  56.779  1.00  0.00     0.045 A 
HETATM   10  C   UNL     1       7.435  30.127  57.581  1.00  0.00    -0.013 A 
HETATM   11  C   UNL     1       5.972  29.936  57.343  1.00  0.00     0.052 C 
HETATM   12  C   UNL     1       8.023  30.849  58.617  1.00  0.00     0.115 A 
HETATM   13  N   UNL     1       9.386  30.737  58.457  1.00  0.00    -0.354 N 
HETATM   14  H   UNL     1      10.053  31.149  59.101  1.00  0.00     0.166 HD
HETATM   15  C   UNL     1       9.693  29.942  57.381  1.00  0.00     0.020 A 
HETATM   16  C   UNL     1      11.115  29.609  57.092  1.00  0.00     0.069 C 
BRANCH  12  17
HETATM   17  C   UNL     1       7.482  31.599  59.732  1.00  0.00     0.310 C 
HETATM   18  O   UNL     1       7.645  31.284  60.903  1.00  0.00    -0.258 OA
BRANCH  17  19
HETATM   19  O   UNL     1       6.780  32.679  59.302  1.00  0.00    -0.321 OA
HETATM   20  C   UNL     1       5.463  32.774  59.844  1.00  0.00     0.213 C 
ENDBRANCH  17  19
ENDBRANCH  12  17
ENDBRANCH   7   9
ENDBRANCH   1   7
BRANCH   2  21
HETATM   21  C   UNL     1       5.751  27.920  53.874  1.00  0.00    -0.028 A 
HETATM   22  C   UNL     1       5.922  28.528  52.620  1.00  0.00     0.045 A 
HETATM   23  C   UNL     1       4.892  29.304  52.060  1.00  0.00     0.103 A 
HETATM   24  C   UNL     1       3.708  29.535  52.765  1.00  0.00     0.036 A 
HETATM   25  C   UNL     1       3.548  28.972  54.029  1.00  0.00     0.003 A 
HETATM   26  C   UNL     1       4.554  28.166  54.572  1.00  0.00     0.010 A 
BRANCH  23  27
HETATM   27  N   UNL     1       5.056  29.855  50.708  1.00  0.00    -0.116 N 
HETATM   28  O   UNL     1       4.035  29.976  50.015  1.00  0.00    -0.532 OA
HETATM   29  O   UNL     1       6.198  30.165  50.344  1.00  0.00    -0.532 OA
ENDBRANCH  23  27
ENDBRANCH   2  21
BRANCH   6  30
HETATM   30  O   UNL     1       7.849  26.608  58.033  1.00  0.00    -0.355 OA
HETATM   31  H   UNL     1       7.903  27.496  58.427  1.00  0.00     0.218 HD
ENDBRANCH   6  30
BRANCH   3  32
HETATM   32  C   UNL     1       5.795  24.698  54.042  1.00  0.00     0.129 C 
BRANCH  32  33
HETATM   33  C   UNL     1       6.907  24.134  53.146  1.00  0.00     0.048 C 
BRANCH  33  34
HETATM   34  C   UNL     1       8.308  23.994  53.754  1.00  0.00     0.236 C 
BRANCH  34  35
HETATM   35  N   UNL     1       8.762  22.574  53.940  1.00  0.00    -0.067 N 
HETATM   36  H   UNL     1       9.744  22.505  53.598  1.00  0.00     0.280 HD
HETATM   37  C   UNL     1       8.701  22.066  55.369  1.00  0.00     0.261 C 
HETATM   38  C   UNL     1       9.194  20.616  55.431  1.00  0.00     0.195 C 
HETATM   39  O   UNL     1       8.436  19.774  54.555  1.00  0.00    -0.388 OA
HETATM   40  C   UNL     1       8.563  20.196  53.191  1.00  0.00     0.195 C 
HETATM   41  C   UNL     1       8.012  21.614  53.012  1.00  0.00     0.261 C 
ENDBRANCH  34  35
ENDBRANCH  33  34
ENDBRANCH  32  33
ENDBRANCH   3  32
TORSDOF 11
ENDMDL
MODEL 3
REMARK VINA RESULT:      -8.8      2.523      8.763
REMARK  11 active torsions:
REMARK  status: ('A' for Active; 'I' for Inactive)
REMARK    1  A    between atoms: C_3  and  C_4 
REMARK    2  A    between atoms: C_4  and  O_5 
REMARK    3  A    between atoms: C_12  and  C_13 
REMARK    4  A    between atoms: C_13  and  C_14 
REMARK    5  A    between atoms: C_15  and  C_16 
REMARK    6  A    between atoms: C_18  and  N_19 
REMARK    7  A    between atoms: N_25  and  C_26 
REMARK    8  A    between atoms: C_26  and  C_27 
REMARK    9  A    between atoms: C_27  and  C_28 
REMARK   10  A    between atoms: C_28  and  N_29 
REMARK   11  A    between atoms: C_38  and  O_39 
ROOT
HETATM    1  C   UNL     1       5.299  28.654  53.933  1.00  0.00     0.059 A 
HETATM    2  C   UNL     1       5.869  28.555  55.331  1.00  0.00     0.161 A 
HETATM    3  N   UNL     1       4.928  29.373  56.078  1.00  0.00    -0.333 N 
HETATM    4  C   UNL     1       3.931  29.871  55.270  1.00  0.00     0.278 A 
HETATM    5  O   UNL     1       3.098  30.697  55.614  1.00  0.00    -0.265 OA
HETATM    6  C   UNL     1       4.190  29.412  53.886  1.00  0.00     0.146 A 
ENDROOT
BRANCH   1   7
HETATM    7  C   UNL     1       6.138  28.072  52.859  1.00  0.00     0.196 C 
HETATM    8  O   UNL     1       7.327  28.367  52.803  1.00  0.00    -0.287 OA
BRANCH   7   9
HETATM    9  C   UNL     1       5.480  27.271  51.833  1.00  0.00     0.045 A 
HETATM   10  C   UNL     1       5.209  27.705  50.484  1.00  0.00    -0.013 A 
HETATM   11  C   UNL     1       5.541  29.048  49.919  1.00  0.00     0.052 C 
HETATM   12  C   UNL     1       4.608  26.644  49.811  1.00  0.00     0.115 A 
HETATM   13  N   UNL     1       4.516  25.604  50.709  1.00  0.00    -0.354 N 
HETATM   14  H   UNL     1       4.140  24.694  50.463  1.00  0.00     0.166 HD
HETATM   15  C   UNL     1       5.067  25.947  51.919  1.00  0.00     0.020 A 
HETATM   16  C   UNL     1       5.160  24.928  53.001  1.00  0.00     0.069 C 
BRANCH  12  17
HETATM   17  C   UNL     1       4.139  26.473  48.451  1.00  0.00     0.310 C 
HETATM   18  O   UNL     1       4.876  26.473  47.475  1.00  0.00    -0.258 OA
BRANCH  17  19
HETATM   19  O   UNL     1       2.790  26.315  48.415  1.00  0.00    -0.321 OA
HETATM   20  C   UNL     1       2.060  27.541  48.385  1.00  0.00     0.213 C 
ENDBRANCH  17  19
ENDBRANCH  12  17
ENDBRANCH   7   9
ENDBRANCH   1   7
BRANCH   2  21
HETATM   21  C   UNL     1       6.002  27.160  55.917  1.00  0.00    -0.028 A 
HETATM   22  C   UNL     1       7.189  26.414  55.836  1.00  0.00     0.045 A 
HETATM   23  C   UNL     1       7.281  25.154  56.453  1.00  0.00     0.103 A 
HETATM   24  C   UNL     1       6.179  24.595  57.105  1.00  0.00     0.036 A 
HETATM   25  C   UNL     1       4.984  25.310  57.152  1.00  0.00     0.003 A 
HETATM   26  C   UNL     1       4.900  26.581  56.574  1.00  0.00     0.010 A 
BRANCH  23  27
HETATM   27  N   UNL     1       8.561  24.432  56.434  1.00  0.00    -0.116 N 
HETATM   28  O   UNL     1       8.805  23.734  55.439  1.00  0.00    -0.532 OA
HETATM   29  O   UNL     1       9.314  24.565  57.407  1.00  0.00    -0.532 OA
ENDBRANCH  23  27
ENDBRANCH   2  21
BRANCH   6  30
HETATM   30  O   UNL     1       3.468  29.905  52.842  1.00  0.00    -0.355 OA
HETATM   31  H   UNL     1       3.528  29.320  52.067  1.00  0.00     0.218 HD
ENDBRANCH   6  30
BRANCH   3  32
HETATM   32  C   UNL     1       5.197  29.908  57.403  1.00  0.00     0.129 C 
BRANCH  32  33
HETATM   33  C   UNL     1       6.690  30.025  57.741  1.00  0.00     0.048 C 
BRANCH  33  34
HETATM   34  C   UNL     1       7.142  31.247  58.551  1.00  0.00     0.236 C 
BRANCH  34  35
HETATM   35  N   UNL     1       7.446  30.955  59.993  1.00  0.00    -0.067 N 
HETATM   36  H   UNL     1       6.938  30.084  60.256  1.00  0.00     0.280 HD
HETATM   37  C   UNL     1       8.919  30.783  60.314  1.00  0.00     0.261 C 
HETATM   38  C   UNL     1       9.098  30.482  61.807  1.00  0.00     0.195 C 
HETATM   39  O   UNL     1       8.515  31.510  62.614  1.00  0.00    -0.388 OA
HETATM   40  C   UNL     1       7.105  31.617  62.381  1.00  0.00     0.195 C 
HETATM   41  C   UNL     1       6.828  32.002  60.924  1.00  0.00     0.261 C 
ENDBRANCH  34  35
ENDBRANCH  33  34
ENDBRANCH  32  33
ENDBRANCH   3  32
TORSDOF 11
ENDMDL
MODEL 4
REMARK VINA RESULT:      -8.7      2.625      8.373
REMARK  11 active torsions:
REMARK  status: ('A' for Active; 'I' for Inactive)
REMARK    1  A    between atoms: C_3  and  C_4 
REMARK    2  A    between atoms: C_4  and  O_5 
REMARK    3  A    between atoms: C_12  and  C_13 
REMARK    4  A    between atoms: C_13  and  C_14 
REMARK    5  A    between atoms: C_15  and  C_16 
REMARK    6  A    between atoms: C_18  and  N_19 
REMARK    7  A    between atoms: N_25  and  C_26 
REMARK    8  A    between atoms: C_26  and  C_27 
REMARK    9  A    between atoms: C_27  and  C_28 
REMARK   10  A    between atoms: C_28  and  N_29 
REMARK   11  A    between atoms: C_38  and  O_39 
ROOT
HETATM    1  C   UNL     1       5.063  28.721  53.881  1.00  0.00     0.059 A 
HETATM    2  C   UNL     1       5.601  28.623  55.291  1.00  0.00     0.161 A 
HETATM    3  N   UNL     1       4.604  29.381  56.028  1.00  0.00    -0.333 N 
HETATM    4  C   UNL     1       3.605  29.846  55.203  1.00  0.00     0.278 A 
HETATM    5  O   UNL     1       2.725  30.625  55.539  1.00  0.00    -0.265 OA
HETATM    6  C   UNL     1       3.920  29.426  53.817  1.00  0.00     0.146 A 
ENDROOT
BRANCH   1   7
HETATM    7  C   UNL     1       5.956  28.199  52.819  1.00  0.00     0.196 C 
HETATM    8  O   UNL     1       7.133  28.543  52.806  1.00  0.00    -0.287 OA
BRANCH   7   9
HETATM    9  C   UNL     1       5.361  27.400  51.755  1.00  0.00     0.045 A 
HETATM   10  C   UNL     1       5.130  27.850  50.403  1.00  0.00    -0.013 A 
HETATM   11  C   UNL     1       5.446  29.212  49.874  1.00  0.00     0.052 C 
HETATM   12  C   UNL     1       4.586  26.786  49.689  1.00  0.00     0.115 A 
HETATM   13  N   UNL     1       4.488  25.728  50.565  1.00  0.00    -0.354 N 
HETATM   14  H   UNL     1       4.148  24.812  50.289  1.00  0.00     0.166 HD
HETATM   15  C   UNL     1       4.982  26.063  51.802  1.00  0.00     0.020 A 
HETATM   16  C   UNL     1       5.061  25.028  52.869  1.00  0.00     0.069 C 
BRANCH  12  17
HETATM   17  C   UNL     1       4.175  26.626  48.309  1.00  0.00     0.310 C 
HETATM   18  O   UNL     1       4.940  26.320  47.405  1.00  0.00    -0.258 OA
BRANCH  17  19
HETATM   19  O   UNL     1       2.845  26.861  48.165  1.00  0.00    -0.321 OA
HETATM   20  C   UNL     1       2.536  27.973  47.325  1.00  0.00     0.213 C 
ENDBRANCH  17  19
ENDBRANCH  12  17
ENDBRANCH   7   9
ENDBRANCH   1   7
BRANCH   2  21
HETATM   21  C   UNL     1       5.786  27.225  55.856  1.00  0.00    -0.028 A 
HETATM   22  C   UNL     1       6.964  26.483  55.673  1.00  0.00     0.045 A 
HETATM   23  C   UNL     1       7.111  25.220  56.272  1.00  0.00     0.103 A 
HETATM   24  C   UNL     1       6.067  24.654  57.010  1.00  0.00     0.036 A 
HETATM   25  C   UNL     1       4.878  25.364  57.159  1.00  0.00     0.003 A 
HETATM   26  C   UNL     1       4.744  26.638  56.598  1.00  0.00     0.010 A 
BRANCH  23  27
HETATM   27  N   UNL     1       8.386  24.502  56.144  1.00  0.00    -0.116 N 
HETATM   28  O   UNL     1       9.171  24.561  57.101  1.00  0.00    -0.532 OA
HETATM   29  O   UNL     1       8.598  23.884  55.092  1.00  0.00    -0.532 OA
ENDBRANCH  23  27
ENDBRANCH   2  21
BRANCH   6  30
HETATM   30  O   UNL     1       3.202  29.904  52.764  1.00  0.00    -0.355 OA
HETATM   31  H   UNL     1       3.524  29.534  51.924  1.00  0.00     0.218 HD
ENDBRANCH   6  30
BRANCH   3  32
HETATM   32  C   UNL     1       4.813  29.903  57.368  1.00  0.00     0.129 C 
BRANCH  32  33
HETATM   33  C   UNL     1       6.082  30.755  57.518  1.00  0.00     0.048 C 
BRANCH  33  34
HETATM   34  C   UNL     1       7.275  30.130  58.251  1.00  0.00     0.236 C 
BRANCH  34  35
HETATM   35  N   UNL     1       8.605  30.388  57.600  1.00  0.00    -0.067 N 
HETATM   36  H   UNL     1       8.523  31.264  57.042  1.00  0.00     0.280 HD
HETATM   37  C   UNL     1       9.771  30.522  58.560  1.00  0.00     0.261 C 
HETATM   38  C   UNL     1      11.064  30.789  57.780  1.00  0.00     0.195 C 
HETATM   39  O   UNL     1      11.309  29.758  56.817  1.00  0.00    -0.388 OA
HETATM   40  C   UNL     1      10.252  29.686  55.852  1.00  0.00     0.195 C 
HETATM   41  C   UNL     1       8.925  29.336  56.533  1.00  0.00     0.261 C 
ENDBRANCH  34  35
ENDBRANCH  33  34
ENDBRANCH  32  33
ENDBRANCH   3  32
TORSDOF 11
ENDMDL
MODEL 5
REMARK VINA RESULT:      -8.7      1.852      7.632
REMARK  11 active torsions:
REMARK  status: ('A' for Active; 'I' for Inactive)
REMARK    1  A    between atoms: C_3  and  C_4 
REMARK    2  A    between atoms: C_4  and  O_5 
REMARK    3  A    between atoms: C_12  and  C_13 
REMARK    4  A    between atoms: C_13  and  C_14 
REMARK    5  A    between atoms: C_15  and  C_16 
REMARK    6  A    between atoms: C_18  and  N_19 
REMARK    7  A    between atoms: N_25  and  C_26 
REMARK    8  A    between atoms: C_26  and  C_27 
REMARK    9  A    between atoms: C_27  and  C_28 
REMARK   10  A    between atoms: C_28  and  N_29 
REMARK   11  A    between atoms: C_38  and  O_39 
ROOT
HETATM    1  C   UNL     1       6.392  26.839  56.712  1.00  0.00     0.059 A 
HETATM    2  C   UNL     1       5.742  28.131  56.267  1.00  0.00     0.161 A 
HETATM    3  N   UNL     1       6.613  29.114  56.887  1.00  0.00    -0.333 N 
HETATM    4  C   UNL     1       7.644  28.519  57.580  1.00  0.00     0.278 A 
HETATM    5  O   UNL     1       8.431  29.107  58.306  1.00  0.00    -0.265 OA
HETATM    6  C   UNL     1       7.481  27.050  57.471  1.00  0.00     0.146 A 
ENDROOT
BRANCH   1   7
HETATM    7  C   UNL     1       5.636  25.603  56.400  1.00  0.00     0.196 C 
HETATM    8  O   UNL     1       4.645  25.326  57.068  1.00  0.00    -0.287 OA
BRANCH   7   9
HETATM    9  C   UNL     1       6.182  24.700  55.394  1.00  0.00     0.045 A 
HETATM   10  C   UNL     1       7.209  23.714  55.628  1.00  0.00    -0.013 A 
HETATM   11  C   UNL     1       7.894  23.465  56.933  1.00  0.00     0.052 C 
HETATM   12  C   UNL     1       7.422  23.033  54.433  1.00  0.00     0.115 A 
HETATM   13  N   UNL     1       6.562  23.578  53.505  1.00  0.00    -0.354 N 
HETATM   14  H   UNL     1       6.493  23.240  52.551  1.00  0.00     0.166 HD
HETATM   15  C   UNL     1       5.783  24.556  54.071  1.00  0.00     0.020 A 
HETATM   16  C   UNL     1       4.713  25.205  53.262  1.00  0.00     0.069 C 
BRANCH  12  17
HETATM   17  C   UNL     1       8.296  21.940  54.058  1.00  0.00     0.310 C 
HETATM   18  O   UNL     1       9.365  22.094  53.483  1.00  0.00    -0.258 OA
BRANCH  17  19
HETATM   19  O   UNL     1       7.770  20.744  54.428  1.00  0.00    -0.321 OA
HETATM   20  C   UNL     1       8.563  20.022  55.369  1.00  0.00     0.213 C 
ENDBRANCH  17  19
ENDBRANCH  12  17
ENDBRANCH   7   9
ENDBRANCH   1   7
BRANCH   2  21
HETATM   21  C   UNL     1       5.612  28.349  54.769  1.00  0.00    -0.028 A 
HETATM   22  C   UNL     1       4.442  28.851  54.176  1.00  0.00     0.045 A 
HETATM   23  C   UNL     1       4.395  29.098  52.793  1.00  0.00     0.103 A 
HETATM   24  C   UNL     1       5.487  28.794  51.975  1.00  0.00     0.036 A 
HETATM   25  C   UNL     1       6.636  28.254  52.550  1.00  0.00     0.003 A 
HETATM   26  C   UNL     1       6.700  28.044  53.931  1.00  0.00     0.010 A 
BRANCH  23  27
HETATM   27  N   UNL     1       3.194  29.710  52.208  1.00  0.00    -0.116 N 
HETATM   28  O   UNL     1       2.974  30.900  52.474  1.00  0.00    -0.532 OA
HETATM   29  O   UNL     1       2.479  29.002  51.486  1.00  0.00    -0.532 OA
ENDBRANCH  23  27
ENDBRANCH   2  21
BRANCH   6  30
HETATM   30  O   UNL     1       8.251  26.207  58.213  1.00  0.00    -0.355 OA
HETATM   31  H   UNL     1       7.903  26.119  59.117  1.00  0.00     0.218 HD
ENDBRANCH   6  30
BRANCH   3  32
HETATM   32  C   UNL     1       6.251  30.509  57.079  1.00  0.00     0.129 C 
BRANCH  32  33
HETATM   33  C   UNL     1       5.404  30.771  58.334  1.00  0.00     0.048 C 
BRANCH  33  34
HETATM   34  C   UNL     1       5.866  31.882  59.284  1.00  0.00     0.236 C 
BRANCH  34  35
HETATM   35  N   UNL     1       7.045  31.514  60.139  1.00  0.00    -0.067 N 
HETATM   36  H   UNL     1       7.174  30.482  60.079  1.00  0.00     0.280 HD
HETATM   37  C   UNL     1       8.346  32.197  59.762  1.00  0.00     0.261 C 
HETATM   38  C   UNL     1       9.470  31.736  60.698  1.00  0.00     0.195 C 
HETATM   39  O   UNL     1       9.138  31.988  62.067  1.00  0.00    -0.388 OA
HETATM   40  C   UNL     1       7.958  31.274  62.456  1.00  0.00     0.195 C 
HETATM   41  C   UNL     1       6.754  31.733  61.627  1.00  0.00     0.261 C 
ENDBRANCH  34  35
ENDBRANCH  33  34
ENDBRANCH  32  33
ENDBRANCH   3  32
TORSDOF 11
ENDMDL
MODEL 6
REMARK VINA RESULT:      -8.6      2.234      7.675
REMARK  11 active torsions:
REMARK  status: ('A' for Active; 'I' for Inactive)
REMARK    1  A    between atoms: C_3  and  C_4 
REMARK    2  A    between atoms: C_4  and  O_5 
REMARK    3  A    between atoms: C_12  and  C_13 
REMARK    4  A    between atoms: C_13  and  C_14 
REMARK    5  A    between atoms: C_15  and  C_16 
REMARK    6  A    between atoms: C_18  and  N_19 
REMARK    7  A    between atoms: N_25  and  C_26 
REMARK    8  A    between atoms: C_26  and  C_27 
REMARK    9  A    between atoms: C_27  and  C_28 
REMARK   10  A    between atoms: C_28  and  N_29 
REMARK   11  A    between atoms: C_38  and  O_39 
ROOT
HETATM    1  C   UNL     1       6.169  26.831  53.807  1.00  0.00     0.059 A 
HETATM    2  C   UNL     1       6.342  28.317  54.029  1.00  0.00     0.161 A 
HETATM    3  N   UNL     1       4.987  28.796  53.811  1.00  0.00    -0.333 N 
HETATM    4  C   UNL     1       4.122  27.764  53.525  1.00  0.00     0.278 A 
HETATM    5  O   UNL     1       2.963  27.902  53.162  1.00  0.00    -0.265 OA
HETATM    6  C   UNL     1       4.899  26.503  53.510  1.00  0.00     0.146 A 
ENDROOT
BRANCH   1   7
HETATM    7  C   UNL     1       7.422  26.041  53.770  1.00  0.00     0.196 C 
HETATM    8  O   UNL     1       8.351  26.427  53.069  1.00  0.00    -0.287 OA
BRANCH   7   9
HETATM    9  C   UNL     1       7.447  24.763  54.472  1.00  0.00     0.045 A 
HETATM   10  C   UNL     1       7.559  23.469  53.843  1.00  0.00    -0.013 A 
HETATM   11  C   UNL     1       7.650  23.222  52.372  1.00  0.00     0.052 C 
HETATM   12  C   UNL     1       7.587  22.510  54.852  1.00  0.00     0.115 A 
HETATM   13  N   UNL     1       7.498  23.187  56.048  1.00  0.00    -0.354 N 
HETATM   14  H   UNL     1       7.527  22.721  56.949  1.00  0.00     0.166 HD
HETATM   15  C   UNL     1       7.449  24.543  55.844  1.00  0.00     0.020 A 
HETATM   16  C   UNL     1       7.452  25.465  57.015  1.00  0.00     0.069 C 
BRANCH  12  17
HETATM   17  C   UNL     1       7.709  21.066  54.843  1.00  0.00     0.310 C 
HETATM   18  O   UNL     1       7.676  20.390  53.823  1.00  0.00    -0.258 OA
BRANCH  17  19
HETATM   19  O   UNL     1       7.861  20.579  56.102  1.00  0.00    -0.321 OA
HETATM   20  C   UNL     1       9.212  20.287  56.456  1.00  0.00     0.213 C 
ENDBRANCH  17  19
ENDBRANCH  12  17
ENDBRANCH   7   9
ENDBRANCH   1   7
BRANCH   2  21
HETATM   21  C   UNL     1       6.886  28.746  55.381  1.00  0.00    -0.028 A 
HETATM   22  C   UNL     1       8.219  29.148  55.568  1.00  0.00     0.045 A 
HETATM   23  C   UNL     1       8.656  29.600  56.826  1.00  0.00     0.103 A 
HETATM   24  C   UNL     1       7.793  29.601  57.925  1.00  0.00     0.036 A 
HETATM   25  C   UNL     1       6.481  29.162  57.758  1.00  0.00     0.003 A 
HETATM   26  C   UNL     1       6.031  28.750  56.499  1.00  0.00     0.010 A 
BRANCH  23  27
HETATM   27  N   UNL     1      10.029  30.102  56.976  1.00  0.00    -0.116 N 
HETATM   28  O   UNL     1      10.209  31.036  57.771  1.00  0.00    -0.532 OA
HETATM   29  O   UNL     1      10.918  29.563  56.305  1.00  0.00    -0.532 OA
ENDBRANCH  23  27
ENDBRANCH   2  21
BRANCH   6  30
HETATM   30  O   UNL     1       4.337  25.343  53.072  1.00  0.00    -0.355 OA
HETATM   31  H   UNL     1       4.991  24.789  52.611  1.00  0.00     0.218 HD
ENDBRANCH   6  30
BRANCH   3  32
HETATM   32  C   UNL     1       4.653  30.187  53.553  1.00  0.00     0.129 C 
BRANCH  32  33
HETATM   33  C   UNL     1       4.320  30.490  52.085  1.00  0.00     0.048 C 
BRANCH  33  34
HETATM   34  C   UNL     1       5.341  30.067  51.022  1.00  0.00     0.236 C 
BRANCH  34  35
HETATM   35  N   UNL     1       4.780  29.183  49.944  1.00  0.00    -0.067 N 
HETATM   36  H   UNL     1       5.061  29.583  49.024  1.00  0.00     0.280 HD
HETATM   37  C   UNL     1       5.226  27.734  50.009  1.00  0.00     0.261 C 
HETATM   38  C   UNL     1       4.596  26.940  48.858  1.00  0.00     0.195 C 
HETATM   39  O   UNL     1       3.168  27.037  48.884  1.00  0.00    -0.388 OA
HETATM   40  C   UNL     1       2.737  28.396  48.732  1.00  0.00     0.195 C 
HETATM   41  C   UNL     1       3.250  29.256  49.892  1.00  0.00     0.261 C 
ENDBRANCH  34  35
ENDBRANCH  33  34
ENDBRANCH  32  33
ENDBRANCH   3  32
TORSDOF 11
ENDMDL
MODEL 7
REMARK VINA RESULT:      -8.6      2.540      8.567
REMARK  11 active torsions:
REMARK  status: ('A' for Active; 'I' for Inactive)
REMARK    1  A    between atoms: C_3  and  C_4 
REMARK    2  A    between atoms: C_4  and  O_5 
REMARK    3  A    between atoms: C_12  and  C_13 
REMARK    4  A    between atoms: C_13  and  C_14 
REMARK    5  A    between atoms: C_15  and  C_16 
REMARK    6  A    between atoms: C_18  and  N_19 
REMARK    7  A    between atoms: N_25  and  C_26 
REMARK    8  A    between atoms: C_26  and  C_27 
REMARK    9  A    between atoms: C_27  and  C_28 
REMARK   10  A    between atoms: C_28  and  N_29 
REMARK   11  A    between atoms: C_38  and  O_39 
ROOT
HETATM    1  C   UNL     1       6.482  27.396  55.437  1.00  0.00     0.059 A 
HETATM    2  C   UNL     1       6.781  28.876  55.350  1.00  0.00     0.161 A 
HETATM    3  N   UNL     1       5.573  29.444  55.926  1.00  0.00    -0.333 N 
HETATM    4  C   UNL     1       4.689  28.465  56.322  1.00  0.00     0.278 A 
HETATM    5  O   UNL     1       3.546  28.668  56.703  1.00  0.00    -0.265 OA
HETATM    6  C   UNL     1       5.281  27.149  55.987  1.00  0.00     0.146 A 
ENDROOT
BRANCH   1   7
HETATM    7  C   UNL     1       7.450  26.508  54.752  1.00  0.00     0.196 C 
HETATM    8  O   UNL     1       7.953  26.874  53.694  1.00  0.00    -0.287 OA
BRANCH   7   9
HETATM    9  C   UNL     1       7.666  25.175  55.302  1.00  0.00     0.045 A 
HETATM   10  C   UNL     1       7.616  23.944  54.550  1.00  0.00    -0.013 A 
HETATM   11  C   UNL     1       7.320  23.830  53.089  1.00  0.00     0.052 C 
HETATM   12  C   UNL     1       7.913  22.902  55.423  1.00  0.00     0.115 A 
HETATM   13  N   UNL     1       8.136  23.469  56.659  1.00  0.00    -0.354 N 
HETATM   14  H   UNL     1       8.402  22.927  57.474  1.00  0.00     0.166 HD
HETATM   15  C   UNL     1       8.028  24.836  56.600  1.00  0.00     0.020 A 
HETATM   16  C   UNL     1       8.332  25.651  57.809  1.00  0.00     0.069 C 
BRANCH  12  17
HETATM   17  C   UNL     1       8.036  21.469  55.249  1.00  0.00     0.310 C 
HETATM   18  O   UNL     1       7.320  20.654  55.815  1.00  0.00    -0.258 OA
BRANCH  17  19
HETATM   19  O   UNL     1       9.041  21.165  54.388  1.00  0.00    -0.321 OA
HETATM   20  C   UNL     1       8.628  20.400  53.255  1.00  0.00     0.213 C 
ENDBRANCH  17  19
ENDBRANCH  12  17
ENDBRANCH   7   9
ENDBRANCH   1   7
BRANCH   2  21
HETATM   21  C   UNL     1       8.033  29.363  56.061  1.00  0.00    -0.028 A 
HETATM   22  C   UNL     1       8.003  29.930  57.345  1.00  0.00     0.045 A 
HETATM   23  C   UNL     1       9.198  30.303  57.986  1.00  0.00     0.103 A 
HETATM   24  C   UNL     1      10.428  30.173  57.336  1.00  0.00     0.036 A 
HETATM   25  C   UNL     1      10.462  29.652  56.044  1.00  0.00     0.003 A 
HETATM   26  C   UNL     1       9.280  29.242  55.419  1.00  0.00     0.010 A 
BRANCH  23  27
HETATM   27  N   UNL     1       9.151  30.809  59.365  1.00  0.00    -0.116 N 
HETATM   28  O   UNL     1       9.512  31.979  59.553  1.00  0.00    -0.532 OA
HETATM   29  O   UNL     1       8.754  30.039  60.249  1.00  0.00    -0.532 OA
ENDBRANCH  23  27
ENDBRANCH   2  21
BRANCH   6  30
HETATM   30  O   UNL     1       4.547  26.007  56.096  1.00  0.00    -0.355 OA
HETATM   31  H   UNL     1       3.645  26.199  56.407  1.00  0.00     0.218 HD
ENDBRANCH   6  30
BRANCH   3  32
HETATM   32  C   UNL     1       5.177  30.833  55.766  1.00  0.00     0.129 C 
BRANCH  32  33
HETATM   33  C   UNL     1       5.333  31.680  57.037  1.00  0.00     0.048 C 
BRANCH  33  34
HETATM   34  C   UNL     1       4.170  31.686  58.036  1.00  0.00     0.236 C 
BRANCH  34  35
HETATM   35  N   UNL     1       4.593  31.687  59.477  1.00  0.00    -0.067 N 
HETATM   36  H   UNL     1       4.695  30.695  59.782  1.00  0.00     0.280 HD
HETATM   37  C   UNL     1       5.886  32.426  59.763  1.00  0.00     0.261 C 
HETATM   38  C   UNL     1       6.214  32.350  61.259  1.00  0.00     0.195 C 
HETATM   39  O   UNL     1       5.141  32.872  62.051  1.00  0.00    -0.388 OA
HETATM   40  C   UNL     1       3.937  32.120  61.853  1.00  0.00     0.195 C 
HETATM   41  C   UNL     1       3.481  32.209  60.393  1.00  0.00     0.261 C 
ENDBRANCH  34  35
ENDBRANCH  33  34
ENDBRANCH  32  33
ENDBRANCH   3  32
TORSDOF 11
ENDMDL
MODEL 8
REMARK VINA RESULT:      -8.2      2.537      7.907
REMARK  11 active torsions:
REMARK  status: ('A' for Active; 'I' for Inactive)
REMARK    1  A    between atoms: C_3  and  C_4 
REMARK    2  A    between atoms: C_4  and  O_5 
REMARK    3  A    between atoms: C_12  and  C_13 
REMARK    4  A    between atoms: C_13  and  C_14 
REMARK    5  A    between atoms: C_15  and  C_16 
REMARK    6  A    between atoms: C_18  and  N_19 
REMARK    7  A    between atoms: N_25  and  C_26 
REMARK    8  A    between atoms: C_26  and  C_27 
REMARK    9  A    between atoms: C_27  and  C_28 
REMARK   10  A    between atoms: C_28  and  N_29 
REMARK   11  A    between atoms: C_38  and  O_39 
ROOT
HETATM    1  C   UNL     1       6.325  26.631  56.778  1.00  0.00     0.059 A 
HETATM    2  C   UNL     1       5.648  27.915  56.353  1.00  0.00     0.161 A 
HETATM    3  N   UNL     1       6.461  28.905  57.039  1.00  0.00    -0.333 N 
HETATM    4  C   UNL     1       7.485  28.320  57.750  1.00  0.00     0.278 A 
HETATM    5  O   UNL     1       8.224  28.908  58.525  1.00  0.00    -0.265 OA
HETATM    6  C   UNL     1       7.377  26.851  57.585  1.00  0.00     0.146 A 
ENDROOT
BRANCH   1   7
HETATM    7  C   UNL     1       5.624  25.383  56.397  1.00  0.00     0.196 C 
HETATM    8  O   UNL     1       4.635  25.034  57.033  1.00  0.00    -0.287 OA
BRANCH   7   9
HETATM    9  C   UNL     1       6.221  24.551  55.359  1.00  0.00     0.045 A 
HETATM   10  C   UNL     1       7.280  23.592  55.564  1.00  0.00    -0.013 A 
HETATM   11  C   UNL     1       7.950  23.304  56.869  1.00  0.00     0.052 C 
HETATM   12  C   UNL     1       7.539  22.979  54.342  1.00  0.00     0.115 A 
HETATM   13  N   UNL     1       6.676  23.538  53.425  1.00  0.00    -0.354 N 
HETATM   14  H   UNL     1       6.637  23.244  52.455  1.00  0.00     0.166 HD
HETATM   15  C   UNL     1       5.851  24.458  54.022  1.00  0.00     0.020 A 
HETATM   16  C   UNL     1       4.773  25.107  53.225  1.00  0.00     0.069 C 
BRANCH  12  17
HETATM   17  C   UNL     1       8.460  21.938  53.931  1.00  0.00     0.310 C 
HETATM   18  O   UNL     1       9.567  22.160  53.460  1.00  0.00    -0.258 OA
BRANCH  17  19
HETATM   19  O   UNL     1       7.929  20.705  54.140  1.00  0.00    -0.321 OA
HETATM   20  C   UNL     1       8.490  20.008  55.252  1.00  0.00     0.213 C 
ENDBRANCH  17  19
ENDBRANCH  12  17
ENDBRANCH   7   9
ENDBRANCH   1   7
BRANCH   2  21
HETATM   21  C   UNL     1       5.565  28.182  54.860  1.00  0.00    -0.028 A 
HETATM   22  C   UNL     1       4.395  28.646  54.236  1.00  0.00     0.045 A 
HETATM   23  C   UNL     1       4.390  28.941  52.862  1.00  0.00     0.103 A 
HETATM   24  C   UNL     1       5.528  28.722  52.080  1.00  0.00     0.036 A 
HETATM   25  C   UNL     1       6.680  28.219  52.682  1.00  0.00     0.003 A 
HETATM   26  C   UNL     1       6.700  27.963  54.057  1.00  0.00     0.010 A 
BRANCH  23  27
HETATM   27  N   UNL     1       3.183  29.512  52.249  1.00  0.00    -0.116 N 
HETATM   28  O   UNL     1       2.352  28.719  51.784  1.00  0.00    -0.532 OA
HETATM   29  O   UNL     1       3.069  30.744  52.237  1.00  0.00    -0.532 OA
ENDBRANCH  23  27
ENDBRANCH   2  21
BRANCH   6  30
HETATM   30  O   UNL     1       8.148  26.009  58.327  1.00  0.00    -0.355 OA
HETATM   31  H   UNL     1       7.643  25.635  59.069  1.00  0.00     0.218 HD
ENDBRANCH   6  30
BRANCH   3  32
HETATM   32  C   UNL     1       6.043  30.279  57.264  1.00  0.00     0.129 C 
BRANCH  32  33
HETATM   33  C   UNL     1       4.576  30.427  57.690  1.00  0.00     0.048 C 
BRANCH  33  34
HETATM   34  C   UNL     1       4.096  31.819  58.120  1.00  0.00     0.236 C 
BRANCH  34  35
HETATM   35  N   UNL     1       3.460  32.620  57.019  1.00  0.00    -0.067 N 
HETATM   36  H   UNL     1       2.667  33.156  57.431  1.00  0.00     0.280 HD
HETATM   37  C   UNL     1       4.392  33.585  56.311  1.00  0.00     0.261 C 
HETATM   38  C   UNL     1       3.628  34.346  55.220  1.00  0.00     0.195 C 
HETATM   39  O   UNL     1       3.022  33.443  54.289  1.00  0.00    -0.388 OA
HETATM   40  C   UNL     1       2.073  32.588  54.938  1.00  0.00     0.195 C 
HETATM   41  C   UNL     1       2.764  31.719  55.994  1.00  0.00     0.261 C 
ENDBRANCH  34  35
ENDBRANCH  33  34
ENDBRANCH  32  33
ENDBRANCH   3  32
TORSDOF 11
ENDMDL
MODEL 9
REMARK VINA RESULT:      -8.1      3.514      8.905
REMARK  11 active torsions:
REMARK  status: ('A' for Active; 'I' for Inactive)
REMARK    1  A    between atoms: C_3  and  C_4 
REMARK    2  A    between atoms: C_4  and  O_5 
REMARK    3  A    between atoms: C_12  and  C_13 
REMARK    4  A    between atoms: C_13  and  C_14 
REMARK    5  A    between atoms: C_15  and  C_16 
REMARK    6  A    between atoms: C_18  and  N_19 
REMARK    7  A    between atoms: N_25  and  C_26 
REMARK    8  A    between atoms: C_26  and  C_27 
REMARK    9  A    between atoms: C_27  and  C_28 
REMARK   10  A    between atoms: C_28  and  N_29 
REMARK   11  A    between atoms: C_38  and  O_39 
ROOT
HETATM    1  C   UNL     1       7.832  29.985  58.168  1.00  0.00     0.059 A 
HETATM    2  C   UNL     1       6.589  30.605  58.767  1.00  0.00     0.161 A 
HETATM    3  N   UNL     1       7.134  31.811  59.367  1.00  0.00    -0.333 N 
HETATM    4  C   UNL     1       8.489  31.921  59.149  1.00  0.00     0.278 A 
HETATM    5  O   UNL     1       9.216  32.760  59.661  1.00  0.00    -0.265 OA
HETATM    6  C   UNL     1       8.930  30.729  58.387  1.00  0.00     0.146 A 
ENDROOT
BRANCH   1   7
HETATM    7  C   UNL     1       7.664  28.617  57.624  1.00  0.00     0.196 C 
HETATM    8  O   UNL     1       7.790  27.656  58.374  1.00  0.00    -0.287 OA
BRANCH   7   9
HETATM    9  C   UNL     1       7.484  28.470  56.184  1.00  0.00     0.045 A 
HETATM   10  C   UNL     1       6.274  28.023  55.536  1.00  0.00    -0.013 A 
HETATM   11  C   UNL     1       5.012  27.623  56.232  1.00  0.00     0.052 C 
HETATM   12  C   UNL     1       6.493  28.056  54.162  1.00  0.00     0.115 A 
HETATM   13  N   UNL     1       7.782  28.504  53.975  1.00  0.00    -0.354 N 
HETATM   14  H   UNL     1       8.187  28.650  53.056  1.00  0.00     0.166 HD
HETATM   15  C   UNL     1       8.383  28.793  55.175  1.00  0.00     0.020 A 
HETATM   16  C   UNL     1       9.748  29.388  55.190  1.00  0.00     0.069 C 
BRANCH  12  17
HETATM   17  C   UNL     1       5.657  27.750  53.019  1.00  0.00     0.310 C 
HETATM   18  O   UNL     1       5.628  26.654  52.475  1.00  0.00    -0.258 OA
BRANCH  17  19
HETATM   19  O   UNL     1       4.927  28.831  52.643  1.00  0.00    -0.321 OA
HETATM   20  C   UNL     1       3.537  28.734  52.954  1.00  0.00     0.213 C 
ENDBRANCH  17  19
ENDBRANCH  12  17
ENDBRANCH   7   9
ENDBRANCH   1   7
BRANCH   2  21
HETATM   21  C   UNL     1       5.449  30.911  57.810  1.00  0.00    -0.028 A 
HETATM   22  C   UNL     1       5.612  31.714  56.669  1.00  0.00     0.045 A 
HETATM   23  C   UNL     1       4.543  31.912  55.779  1.00  0.00     0.103 A 
HETATM   24  C   UNL     1       3.283  31.365  56.042  1.00  0.00     0.036 A 
HETATM   25  C   UNL     1       3.101  30.604  57.195  1.00  0.00     0.003 A 
HETATM   26  C   UNL     1       4.174  30.372  58.062  1.00  0.00     0.010 A 
BRANCH  23  27
HETATM   27  N   UNL     1       4.761  32.679  54.545  1.00  0.00    -0.116 N 
HETATM   28  O   UNL     1       5.333  33.774  54.650  1.00  0.00    -0.532 OA
HETATM   29  O   UNL     1       4.363  32.188  53.481  1.00  0.00    -0.532 OA
ENDBRANCH  23  27
ENDBRANCH   2  21
BRANCH   6  30
HETATM   30  O   UNL     1      10.253  30.478  58.189  1.00  0.00    -0.355 OA
HETATM   31  H   UNL     1      10.792  30.852  58.908  1.00  0.00     0.218 HD
ENDBRANCH   6  30
BRANCH   3  32
HETATM   32  C   UNL     1       6.442  32.598  60.374  1.00  0.00     0.129 C 
BRANCH  32  33
HETATM   33  C   UNL     1       6.479  31.987  61.782  1.00  0.00     0.048 C 
BRANCH  33  34
HETATM   34  C   UNL     1       5.173  31.968  62.585  1.00  0.00     0.236 C 
BRANCH  34  35
HETATM   35  N   UNL     1       5.268  32.618  63.936  1.00  0.00    -0.067 N 
HETATM   36  H   UNL     1       4.993  31.911  64.651  1.00  0.00     0.280 HD
HETATM   37  C   UNL     1       6.638  33.167  64.286  1.00  0.00     0.261 C 
HETATM   38  C   UNL     1       6.610  33.795  65.685  1.00  0.00     0.195 C 
HETATM   39  O   UNL     1       5.611  34.817  65.773  1.00  0.00    -0.388 OA
HETATM   40  C   UNL     1       4.302  34.286  65.531  1.00  0.00     0.195 C 
HETATM   41  C   UNL     1       4.207  33.709  64.115  1.00  0.00     0.261 C 
ENDBRANCH  34  35
ENDBRANCH  33  34
ENDBRANCH  32  33
ENDBRANCH   3  32
TORSDOF 11
ENDMDL
MODEL 10
REMARK VINA RESULT:      -8.1      2.122      8.521
REMARK  11 active torsions:
REMARK  status: ('A' for Active; 'I' for Inactive)
REMARK    1  A    between atoms: C_3  and  C_4 
REMARK    2  A    between atoms: C_4  and  O_5 
REMARK    3  A    between atoms: C_12  and  C_13 
REMARK    4  A    between atoms: C_13  and  C_14 
REMARK    5  A    between atoms: C_15  and  C_16 
REMARK    6  A    between atoms: C_18  and  N_19 
REMARK    7  A    between atoms: N_25  and  C_26 
REMARK    8  A    between atoms: C_26  and  C_27 
REMARK    9  A    between atoms: C_27  and  C_28 
REMARK   10  A    between atoms: C_28  and  N_29 
REMARK   11  A    between atoms: C_38  and  O_39 
ROOT
HETATM    1  C   UNL     1       5.665  27.417  54.866  1.00  0.00     0.059 A 
HETATM    2  C   UNL     1       7.160  27.316  55.068  1.00  0.00     0.161 A 
HETATM    3  N   UNL     1       7.421  28.508  55.856  1.00  0.00    -0.333 N 
HETATM    4  C   UNL     1       6.266  29.212  56.113  1.00  0.00     0.278 A 
HETATM    5  O   UNL     1       6.221  30.319  56.630  1.00  0.00    -0.265 OA
HETATM    6  C   UNL     1       5.142  28.506  55.456  1.00  0.00     0.146 A 
ENDROOT
BRANCH   1   7
HETATM    7  C   UNL     1       5.079  26.434  53.924  1.00  0.00     0.196 C 
HETATM    8  O   UNL     1       4.608  25.391  54.367  1.00  0.00    -0.287 OA
BRANCH   7   9
HETATM    9  C   UNL     1       5.208  26.691  52.495  1.00  0.00     0.045 A 
HETATM   10  C   UNL     1       4.441  27.662  51.751  1.00  0.00    -0.013 A 
HETATM   11  C   UNL     1       3.380  28.550  52.315  1.00  0.00     0.052 C 
HETATM   12  C   UNL     1       4.886  27.630  50.432  1.00  0.00     0.115 A 
HETATM   13  N   UNL     1       5.883  26.682  50.370  1.00  0.00    -0.354 N 
HETATM   14  H   UNL     1       6.401  26.480  49.521  1.00  0.00     0.166 HD
HETATM   15  C   UNL     1       6.117  26.132  51.606  1.00  0.00     0.020 A 
HETATM   16  C   UNL     1       7.228  25.155  51.778  1.00  0.00     0.069 C 
BRANCH  12  17
HETATM   17  C   UNL     1       4.521  28.378  49.245  1.00  0.00     0.310 C 
HETATM   18  O   UNL     1       4.891  29.523  49.026  1.00  0.00    -0.258 OA
BRANCH  17  19
HETATM   19  O   UNL     1       3.723  27.641  48.429  1.00  0.00    -0.321 OA
HETATM   20  C   UNL     1       2.326  27.846  48.637  1.00  0.00     0.213 C 
ENDBRANCH  17  19
ENDBRANCH  12  17
ENDBRANCH   7   9
ENDBRANCH   1   7
BRANCH   2  21
HETATM   21  C   UNL     1       7.673  26.059  55.750  1.00  0.00    -0.028 A 
HETATM   22  C   UNL     1       7.965  24.879  55.046  1.00  0.00     0.045 A 
HETATM   23  C   UNL     1       8.500  23.765  55.714  1.00  0.00     0.103 A 
HETATM   24  C   UNL     1       8.695  23.788  57.098  1.00  0.00     0.036 A 
HETATM   25  C   UNL     1       8.367  24.938  57.812  1.00  0.00     0.003 A 
HETATM   26  C   UNL     1       7.872  26.063  57.143  1.00  0.00     0.010 A 
BRANCH  23  27
HETATM   27  N   UNL     1       8.883  22.574  54.943  1.00  0.00    -0.116 N 
HETATM   28  O   UNL     1       8.770  22.634  53.711  1.00  0.00    -0.532 OA
HETATM   29  O   UNL     1       9.295  21.589  55.569  1.00  0.00    -0.532 OA
ENDBRANCH  23  27
ENDBRANCH   2  21
BRANCH   6  30
HETATM   30  O   UNL     1       3.907  29.075  55.387  1.00  0.00    -0.355 OA
HETATM   31  H   UNL     1       3.316  28.561  54.809  1.00  0.00     0.218 HD
ENDBRANCH   6  30
BRANCH   3  32
HETATM   32  C   UNL     1       8.742  29.089  56.030  1.00  0.00     0.129 C 
BRANCH  32  33
HETATM   33  C   UNL     1       9.218  29.141  57.489  1.00  0.00     0.048 C 
BRANCH  33  34
HETATM   34  C   UNL     1       9.360  30.522  58.142  1.00  0.00     0.236 C 
BRANCH  34  35
HETATM   35  N   UNL     1       8.537  30.704  59.386  1.00  0.00    -0.067 N 
HETATM   36  H   UNL     1       7.834  29.936  59.420  1.00  0.00     0.280 HD
HETATM   37  C   UNL     1       9.327  30.708  60.681  1.00  0.00     0.261 C 
HETATM   38  C   UNL     1       8.380  30.893  61.872  1.00  0.00     0.195 C 
HETATM   39  O   UNL     1       7.611  32.093  61.739  1.00  0.00    -0.388 OA
HETATM   40  C   UNL     1       6.793  32.058  60.563  1.00  0.00     0.195 C 
HETATM   41  C   UNL     1       7.662  31.960  59.305  1.00  0.00     0.261 C 
ENDBRANCH  34  35
ENDBRANCH  33  34
ENDBRANCH  32  33
ENDBRANCH   3  32
TORSDOF 11
ENDMDL
