MODEL 1
REMARK VINA RESULT:     -10.6      0.000      0.000
REMARK  4 active torsions:
REMARK  status: ('A' for Active; 'I' for Inactive)
REMARK    1  A    between atoms: N_8  and  C_9 
REMARK    2  A    between atoms: C_19  and  C_20 
REMARK    3  A    between atoms: C_20  and  C_21 
REMARK    4  A    between atoms: C_24  and  C_25 
ROOT
HETATM    1  C   UNL     1       4.707  28.707  54.493  1.00  0.00     0.069 C 
HETATM    2  C   UNL     1       5.829  28.918  55.478  1.00  0.00     0.017 C 
HETATM    3  N   UNL     1       5.450  29.527  56.668  1.00  0.00    -0.348 N 
HETATM    4  C   UNL     1       6.362  29.933  57.600  1.00  0.00     0.119 A 
HETATM    5  C   UNL     1       7.660  29.617  57.480  1.00  0.00     0.124 A 
HETATM    6  C   UNL     1       8.341  30.136  58.675  1.00  0.00     0.280 A 
HETATM    7  O   UNL     1       9.531  30.024  58.911  1.00  0.00    -0.265 OA
HETATM    8  N   UNL     1       7.336  30.764  59.429  1.00  0.00    -0.236 N 
HETATM    9  N   UNL     1       6.105  30.662  58.747  1.00  0.00    -0.179 NA
HETATM   10  C   UNL     1       8.134  28.844  56.333  1.00  0.00     0.199 C 
HETATM   11  O   UNL     1       9.283  28.427  56.257  1.00  0.00    -0.287 OA
HETATM   12  C   UNL     1       7.121  28.577  55.239  1.00  0.00     0.020 C 
HETATM   13  H   UNL     1       4.536  29.967  56.704  1.00  0.00     0.167 HD
HETATM   14  H   UNL     1       5.390  30.196  59.307  1.00  0.00     0.155 HD
ENDROOT
BRANCH  12  15
HETATM   15  C   UNL     1       7.682  27.958  53.981  1.00  0.00     0.083 C 
BRANCH  15  16
HETATM   16  C   UNL     1       7.578  26.448  53.995  1.00  0.00    -0.054 A 
HETATM   17  C   UNL     1       7.242  25.771  55.174  1.00  0.00     0.008 A 
HETATM   18  C   UNL     1       7.218  24.375  55.215  1.00  0.00     0.008 A 
HETATM   19  C   UNL     1       7.530  23.620  54.076  1.00  0.00    -0.055 A 
HETATM   20  C   UNL     1       7.847  24.299  52.891  1.00  0.00     0.008 A 
HETATM   21  C   UNL     1       7.871  25.696  52.851  1.00  0.00     0.008 A 
BRANCH  19  22
HETATM   22  C   UNL     1       7.533  22.104  54.155  1.00  0.00     0.010 C 
HETATM   23  C   UNL     1       8.436  21.481  53.089  1.00  0.00     0.015 C 
HETATM   24  C   UNL     1       7.927  21.623  55.555  1.00  0.00     0.015 C 
ENDBRANCH  19  22
ENDBRANCH  15  16
ENDBRANCH  12  15
BRANCH   8  25
HETATM   25  C   UNL     1       7.436  31.500  60.630  1.00  0.00     0.055 A 
HETATM   26  C   UNL     1       6.651  32.640  60.852  1.00  0.00     0.034 A 
HETATM   27  C   UNL     1       6.757  33.366  62.043  1.00  0.00     0.044 A 
HETATM   28  C   UNL     1       7.648  32.950  63.023  1.00  0.00     0.116 A 
HETATM   29  F   UNL     1       7.749  33.642  64.165  1.00  0.00    -0.206 F 
HETATM   30  C   UNL     1       8.433  31.822  62.833  1.00  0.00     0.044 A 
HETATM   31  C   UNL     1       8.327  31.099  61.641  1.00  0.00     0.034 A 
ENDBRANCH   8  25
TORSDOF 4
ENDMDL
MODEL 2
REMARK VINA RESULT:     -10.0      2.674      2.926
REMARK  4 active torsions:
REMARK  status: ('A' for Active; 'I' for Inactive)
REMARK    1  A    between atoms: N_8  and  C_9 
REMARK    2  A    between atoms: C_19  and  C_20 
REMARK    3  A    between atoms: C_20  and  C_21 
REMARK    4  A    between atoms: C_24  and  C_25 
ROOT
HETATM    1  C   UNL     1       4.560  26.395  53.208  1.00  0.00     0.069 C 
HETATM    2  C   UNL     1       5.222  27.257  54.253  1.00  0.00     0.017 C 
HETATM    3  N   UNL     1       4.344  27.973  55.057  1.00  0.00    -0.348 N 
HETATM    4  C   UNL     1       4.776  28.917  55.945  1.00  0.00     0.119 A 
HETATM    5  C   UNL     1       6.083  29.082  56.197  1.00  0.00     0.124 A 
HETATM    6  C   UNL     1       6.193  30.111  57.241  1.00  0.00     0.280 A 
HETATM    7  O   UNL     1       7.237  30.511  57.727  1.00  0.00    -0.265 OA
HETATM    8  N   UNL     1       4.872  30.499  57.517  1.00  0.00    -0.236 N 
HETATM    9  N   UNL     1       3.988  29.775  56.690  1.00  0.00    -0.179 NA
HETATM   10  C   UNL     1       7.081  28.266  55.508  1.00  0.00     0.199 C 
HETATM   11  O   UNL     1       8.269  28.297  55.807  1.00  0.00    -0.287 OA
HETATM   12  C   UNL     1       6.567  27.366  54.404  1.00  0.00     0.020 C 
HETATM   13  H   UNL     1       3.377  28.038  54.759  1.00  0.00     0.167 HD
HETATM   14  H   UNL     1       3.302  29.244  57.229  1.00  0.00     0.155 HD
ENDROOT
BRANCH  12  15
HETATM   15  C   UNL     1       7.634  26.690  53.577  1.00  0.00     0.083 C 
BRANCH  15  16
HETATM   16  C   UNL     1       7.602  25.183  53.729  1.00  0.00    -0.054 A 
HETATM   17  C   UNL     1       7.541  24.601  55.001  1.00  0.00     0.008 A 
HETATM   18  C   UNL     1       7.589  23.213  55.154  1.00  0.00     0.008 A 
HETATM   19  C   UNL     1       7.698  22.372  54.037  1.00  0.00    -0.055 A 
HETATM   20  C   UNL     1       7.740  22.956  52.764  1.00  0.00     0.008 A 
HETATM   21  C   UNL     1       7.693  24.345  52.611  1.00  0.00     0.008 A 
BRANCH  19  22
HETATM   22  C   UNL     1       7.785  20.870  54.232  1.00  0.00     0.010 C 
HETATM   23  C   UNL     1       8.751  20.223  53.238  1.00  0.00     0.015 C 
HETATM   24  C   UNL     1       8.166  20.518  55.673  1.00  0.00     0.015 C 
ENDBRANCH  19  22
ENDBRANCH  15  16
ENDBRANCH  12  15
BRANCH   8  25
HETATM   25  C   UNL     1       4.389  31.508  58.379  1.00  0.00     0.055 A 
HETATM   26  C   UNL     1       4.756  32.850  58.205  1.00  0.00     0.034 A 
HETATM   27  C   UNL     1       4.276  33.844  59.065  1.00  0.00     0.044 A 
HETATM   28  C   UNL     1       3.422  33.500  60.102  1.00  0.00     0.116 A 
HETATM   29  F   UNL     1       2.959  34.450  60.924  1.00  0.00    -0.206 F 
HETATM   30  C   UNL     1       3.037  32.181  60.295  1.00  0.00     0.044 A 
HETATM   31  C   UNL     1       3.518  31.188  59.437  1.00  0.00     0.034 A 
ENDBRANCH   8  25
TORSDOF 4
ENDMDL
MODEL 3
REMARK VINA RESULT:      -9.9      1.904      3.154
REMARK  4 active torsions:
REMARK  status: ('A' for Active; 'I' for Inactive)
REMARK    1  A    between atoms: N_8  and  C_9 
REMARK    2  A    between atoms: C_19  and  C_20 
REMARK    3  A    between atoms: C_20  and  C_21 
REMARK    4  A    between atoms: C_24  and  C_25 
ROOT
HETATM    1  C   UNL     1       5.605  30.841  56.439  1.00  0.00     0.069 C 
HETATM    2  C   UNL     1       6.359  30.839  57.744  1.00  0.00     0.017 C 
HETATM    3  N   UNL     1       5.663  31.381  58.818  1.00  0.00    -0.348 N 
HETATM    4  C   UNL     1       6.251  31.599  60.031  1.00  0.00     0.119 A 
HETATM    5  C   UNL     1       7.488  31.151  60.290  1.00  0.00     0.124 A 
HETATM    6  C   UNL     1       7.782  31.484  61.691  1.00  0.00     0.280 A 
HETATM    7  O   UNL     1       8.818  31.219  62.274  1.00  0.00    -0.265 OA
HETATM    8  N   UNL     1       6.639  32.154  62.158  1.00  0.00    -0.236 N 
HETATM    9  N   UNL     1       5.693  32.251  61.116  1.00  0.00    -0.179 NA
HETATM   10  C   UNL     1       8.247  30.432  59.267  1.00  0.00     0.199 C 
HETATM   11  O   UNL     1       9.322  29.896  59.509  1.00  0.00    -0.287 OA
HETATM   12  C   UNL     1       7.627  30.376  57.887  1.00  0.00     0.020 C 
HETATM   13  H   UNL     1       4.824  31.916  58.616  1.00  0.00     0.167 HD
HETATM   14  H   UNL     1       4.801  31.821  61.364  1.00  0.00     0.155 HD
ENDROOT
BRANCH  12  15
HETATM   15  C   UNL     1       8.516  29.809  56.806  1.00  0.00     0.083 C 
BRANCH  15  16
HETATM   16  C   UNL     1       8.074  28.428  56.372  1.00  0.00    -0.054 A 
HETATM   17  C   UNL     1       8.171  27.343  57.252  1.00  0.00     0.008 A 
HETATM   18  C   UNL     1       7.837  26.052  56.836  1.00  0.00     0.008 A 
HETATM   19  C   UNL     1       7.397  25.813  55.526  1.00  0.00    -0.055 A 
HETATM   20  C   UNL     1       7.282  26.903  54.652  1.00  0.00     0.008 A 
HETATM   21  C   UNL     1       7.617  28.194  55.069  1.00  0.00     0.008 A 
BRANCH  19  22
HETATM   22  C   UNL     1       7.075  24.397  55.087  1.00  0.00     0.010 C 
HETATM   23  C   UNL     1       7.580  24.113  53.671  1.00  0.00     0.015 C 
HETATM   24  C   UNL     1       7.626  23.369  56.080  1.00  0.00     0.015 C 
ENDBRANCH  19  22
ENDBRANCH  15  16
ENDBRANCH  12  15
BRANCH   8  25
HETATM   25  C   UNL     1       6.401  32.767  63.407  1.00  0.00     0.055 A 
HETATM   26  C   UNL     1       5.097  32.967  63.883  1.00  0.00     0.034 A 
HETATM   27  C   UNL     1       4.868  33.577  65.121  1.00  0.00     0.044 A 
HETATM   28  C   UNL     1       5.945  33.988  65.893  1.00  0.00     0.116 A 
HETATM   29  F   UNL     1       5.728  34.570  67.079  1.00  0.00    -0.206 F 
HETATM   30  C   UNL     1       7.247  33.798  65.451  1.00  0.00     0.044 A 
HETATM   31  C   UNL     1       7.474  33.189  64.213  1.00  0.00     0.034 A 
ENDBRANCH   8  25
TORSDOF 4
ENDMDL
MODEL 4
REMARK VINA RESULT:      -9.7      5.650      7.807
REMARK  4 active torsions:
REMARK  status: ('A' for Active; 'I' for Inactive)
REMARK    1  A    between atoms: N_8  and  C_9 
REMARK    2  A    between atoms: C_19  and  C_20 
REMARK    3  A    between atoms: C_20  and  C_21 
REMARK    4  A    between atoms: C_24  and  C_25 
ROOT
HETATM    1  C   UNL     1       4.966  26.208  56.951  1.00  0.00     0.069 C 
HETATM    2  C   UNL     1       5.262  26.980  55.689  1.00  0.00     0.017 C 
HETATM    3  N   UNL     1       4.154  27.580  55.103  1.00  0.00    -0.348 N 
HETATM    4  C   UNL     1       4.216  28.183  53.879  1.00  0.00     0.119 A 
HETATM    5  C   UNL     1       5.389  28.362  53.255  1.00  0.00     0.124 A 
HETATM    6  C   UNL     1       5.109  29.097  52.014  1.00  0.00     0.280 A 
HETATM    7  O   UNL     1       5.945  29.444  51.198  1.00  0.00    -0.265 OA
HETATM    8  N   UNL     1       3.717  29.282  52.001  1.00  0.00    -0.236 N 
HETATM    9  N   UNL     1       3.154  28.688  53.151  1.00  0.00    -0.179 NA
HETATM   10  C   UNL     1       6.634  27.897  53.866  1.00  0.00     0.199 C 
HETATM   11  O   UNL     1       7.732  28.159  53.390  1.00  0.00    -0.287 OA
HETATM   12  C   UNL     1       6.495  27.076  55.131  1.00  0.00     0.020 C 
HETATM   13  H   UNL     1       3.235  27.291  55.422  1.00  0.00     0.167 HD
HETATM   14  H   UNL     1       2.629  29.358  53.713  1.00  0.00     0.155 HD
ENDROOT
BRANCH  12  15
HETATM   15  C   UNL     1       7.772  26.440  55.627  1.00  0.00     0.083 C 
BRANCH  15  16
HETATM   16  C   UNL     1       7.853  24.972  55.264  1.00  0.00    -0.054 A 
HETATM   17  C   UNL     1       7.841  24.572  53.922  1.00  0.00     0.008 A 
HETATM   18  C   UNL     1       7.839  23.218  53.579  1.00  0.00     0.008 A 
HETATM   19  C   UNL     1       7.850  22.228  54.572  1.00  0.00    -0.055 A 
HETATM   20  C   UNL     1       7.882  22.630  55.914  1.00  0.00     0.008 A 
HETATM   21  C   UNL     1       7.883  23.985  56.257  1.00  0.00     0.008 A 
BRANCH  19  22
HETATM   22  C   UNL     1       7.810  20.764  54.175  1.00  0.00     0.010 C 
HETATM   23  C   UNL     1       8.319  20.547  52.749  1.00  0.00     0.015 C 
HETATM   24  C   UNL     1       8.588  19.898  55.171  1.00  0.00     0.015 C 
ENDBRANCH  19  22
ENDBRANCH  15  16
ENDBRANCH  12  15
BRANCH   8  25
HETATM   25  C   UNL     1       2.892  29.855  51.009  1.00  0.00     0.055 A 
HETATM   26  C   UNL     1       2.756  31.246  50.891  1.00  0.00     0.034 A 
HETATM   27  C   UNL     1       1.934  31.807  49.907  1.00  0.00     0.044 A 
HETATM   28  C   UNL     1       1.247  30.978  49.032  1.00  0.00     0.116 A 
HETATM   29  F   UNL     1       0.463  31.513  48.088  1.00  0.00    -0.206 F 
HETATM   30  C   UNL     1       1.367  29.598  49.121  1.00  0.00     0.044 A 
HETATM   31  C   UNL     1       2.187  29.038  50.106  1.00  0.00     0.034 A 
ENDBRANCH   8  25
TORSDOF 4
ENDMDL
MODEL 5
REMARK VINA RESULT:      -9.6      1.967      2.463
REMARK  4 active torsions:
REMARK  status: ('A' for Active; 'I' for Inactive)
REMARK    1  A    between atoms: N_8  and  C_9 
REMARK    2  A    between atoms: C_19  and  C_20 
REMARK    3  A    between atoms: C_20  and  C_21 
REMARK    4  A    between atoms: C_24  and  C_25 
ROOT
HETATM    1  C   UNL     1       8.061  27.838  53.920  1.00  0.00     0.069 C 
HETATM    2  C   UNL     1       7.041  28.435  54.857  1.00  0.00     0.017 C 
HETATM    3  N   UNL     1       7.540  29.407  55.715  1.00  0.00    -0.348 N 
HETATM    4  C   UNL     1       6.793  29.935  56.729  1.00  0.00     0.119 A 
HETATM    5  C   UNL     1       5.487  29.655  56.843  1.00  0.00     0.124 A 
HETATM    6  C   UNL     1       4.976  30.437  57.979  1.00  0.00     0.280 A 
HETATM    7  O   UNL     1       3.822  30.438  58.370  1.00  0.00    -0.265 OA
HETATM    8  N   UNL     1       6.090  31.133  58.476  1.00  0.00    -0.236 N 
HETATM    9  N   UNL     1       7.230  30.801  57.715  1.00  0.00    -0.179 NA
HETATM   10  C   UNL     1       4.833  28.757  55.892  1.00  0.00     0.199 C 
HETATM   11  O   UNL     1       3.621  28.582  55.886  1.00  0.00    -0.287 OA
HETATM   12  C   UNL     1       5.739  28.055  54.901  1.00  0.00     0.020 C 
HETATM   13  H   UNL     1       8.548  29.487  55.803  1.00  0.00     0.167 HD
HETATM   14  H   UNL     1       7.666  31.623  57.294  1.00  0.00     0.155 HD
ENDROOT
BRANCH  12  15
HETATM   15  C   UNL     1       5.073  26.986  54.068  1.00  0.00     0.083 C 
BRANCH  15  16
HETATM   16  C   UNL     1       5.793  25.657  54.168  1.00  0.00    -0.054 A 
HETATM   17  C   UNL     1       6.142  25.133  55.418  1.00  0.00     0.008 A 
HETATM   18  C   UNL     1       6.874  23.946  55.516  1.00  0.00     0.008 A 
HETATM   19  C   UNL     1       7.274  23.254  54.365  1.00  0.00    -0.055 A 
HETATM   20  C   UNL     1       6.907  23.771  53.115  1.00  0.00     0.008 A 
HETATM   21  C   UNL     1       6.176  24.959  53.017  1.00  0.00     0.008 A 
BRANCH  19  22
HETATM   22  C   UNL     1       8.100  21.987  54.497  1.00  0.00     0.010 C 
HETATM   23  C   UNL     1       7.676  21.157  55.710  1.00  0.00     0.015 C 
HETATM   24  C   UNL     1       8.042  21.152  53.215  1.00  0.00     0.015 C 
ENDBRANCH  19  22
ENDBRANCH  15  16
ENDBRANCH  12  15
BRANCH   8  25
HETATM   25  C   UNL     1       6.197  31.972  59.607  1.00  0.00     0.055 A 
HETATM   26  C   UNL     1       5.203  32.912  59.913  1.00  0.00     0.034 A 
HETATM   27  C   UNL     1       5.318  33.741  61.035  1.00  0.00     0.044 A 
HETATM   28  C   UNL     1       6.428  33.630  61.859  1.00  0.00     0.116 A 
HETATM   29  F   UNL     1       6.539  34.421  62.934  1.00  0.00    -0.206 F 
HETATM   30  C   UNL     1       7.425  32.705  61.584  1.00  0.00     0.044 A 
HETATM   31  C   UNL     1       7.310  31.878  60.462  1.00  0.00     0.034 A 
ENDBRANCH   8  25
TORSDOF 4
ENDMDL
MODEL 6
REMARK VINA RESULT:      -9.6      3.628      9.676
REMARK  4 active torsions:
REMARK  status: ('A' for Active; 'I' for Inactive)
REMARK    1  A    between atoms: N_8  and  C_9 
REMARK    2  A    between atoms: C_19  and  C_20 
REMARK    3  A    between atoms: C_20  and  C_21 
REMARK    4  A    between atoms: C_24  and  C_25 
ROOT
HETATM    1  C   UNL     1       9.724  31.495  58.623  1.00  0.00     0.069 C 
HETATM    2  C   UNL     1       8.631  30.529  58.239  1.00  0.00     0.017 C 
HETATM    3  N   UNL     1       9.078  29.277  57.836  1.00  0.00    -0.348 N 
HETATM    4  C   UNL     1       8.237  28.339  57.308  1.00  0.00     0.119 A 
HETATM    5  C   UNL     1       6.910  28.527  57.301  1.00  0.00     0.124 A 
HETATM    6  C   UNL     1       6.306  27.311  56.738  1.00  0.00     0.280 A 
HETATM    7  O   UNL     1       5.111  27.123  56.589  1.00  0.00    -0.265 OA
HETATM    8  N   UNL     1       7.389  26.472  56.427  1.00  0.00    -0.236 N 
HETATM    9  N   UNL     1       8.596  27.123  56.756  1.00  0.00    -0.179 NA
HETATM   10  C   UNL     1       6.330  29.755  57.844  1.00  0.00     0.199 C 
HETATM   11  O   UNL     1       5.121  29.904  57.974  1.00  0.00    -0.287 OA
HETATM   12  C   UNL     1       7.309  30.837  58.248  1.00  0.00     0.020 C 
HETATM   13  H   UNL     1      10.066  29.173  57.626  1.00  0.00     0.167 HD
HETATM   14  H   UNL     1       9.155  26.586  57.420  1.00  0.00     0.155 HD
ENDROOT
BRANCH  12  15
HETATM   15  C   UNL     1       6.686  32.164  58.612  1.00  0.00     0.083 C 
BRANCH  15  16
HETATM   16  C   UNL     1       6.532  32.328  60.110  1.00  0.00    -0.054 A 
HETATM   17  C   UNL     1       5.266  32.518  60.676  1.00  0.00     0.008 A 
HETATM   18  C   UNL     1       5.122  32.747  62.047  1.00  0.00     0.008 A 
HETATM   19  C   UNL     1       6.244  32.791  62.887  1.00  0.00    -0.055 A 
HETATM   20  C   UNL     1       7.509  32.582  62.321  1.00  0.00     0.008 A 
HETATM   21  C   UNL     1       7.652  32.354  60.949  1.00  0.00     0.008 A 
BRANCH  19  22
HETATM   22  C   UNL     1       6.066  33.078  64.366  1.00  0.00     0.010 C 
HETATM   23  C   UNL     1       7.227  33.899  64.930  1.00  0.00     0.015 C 
HETATM   24  C   UNL     1       4.725  33.766  64.640  1.00  0.00     0.015 C 
ENDBRANCH  19  22
ENDBRANCH  15  16
ENDBRANCH  12  15
BRANCH   8  25
HETATM   25  C   UNL     1       7.399  25.212  55.790  1.00  0.00     0.055 A 
HETATM   26  C   UNL     1       7.737  24.045  56.492  1.00  0.00     0.034 A 
HETATM   27  C   UNL     1       7.748  22.800  55.853  1.00  0.00     0.044 A 
HETATM   28  C   UNL     1       7.416  22.715  54.509  1.00  0.00     0.116 A 
HETATM   29  F   UNL     1       7.423  21.524  53.897  1.00  0.00    -0.206 F 
HETATM   30  C   UNL     1       7.072  23.851  53.791  1.00  0.00     0.044 A 
HETATM   31  C   UNL     1       7.063  25.096  54.429  1.00  0.00     0.034 A 
ENDBRANCH   8  25
TORSDOF 4
ENDMDL
MODEL 7
REMARK VINA RESULT:      -9.4      2.119      3.292
REMARK  4 active torsions:
REMARK  status: ('A' for Active; 'I' for Inactive)
REMARK    1  A    between atoms: N_8  and  C_9 
REMARK    2  A    between atoms: C_19  and  C_20 
REMARK    3  A    between atoms: C_20  and  C_21 
REMARK    4  A    between atoms: C_24  and  C_25 
ROOT
HETATM    1  C   UNL     1       9.944  29.286  57.149  1.00  0.00     0.069 C 
HETATM    2  C   UNL     1       8.773  29.997  57.779  1.00  0.00     0.017 C 
HETATM    3  N   UNL     1       9.037  30.562  59.021  1.00  0.00    -0.348 N 
HETATM    4  C   UNL     1       8.053  31.104  59.797  1.00  0.00     0.119 A 
HETATM    5  C   UNL     1       6.808  31.260  59.326  1.00  0.00     0.124 A 
HETATM    6  C   UNL     1       6.030  31.933  60.377  1.00  0.00     0.280 A 
HETATM    7  O   UNL     1       4.855  32.244  60.292  1.00  0.00    -0.265 OA
HETATM    8  N   UNL     1       6.927  32.108  61.443  1.00  0.00    -0.236 N 
HETATM    9  N   UNL     1       8.182  31.567  61.094  1.00  0.00    -0.179 NA
HETATM   10  C   UNL     1       6.468  30.833  57.969  1.00  0.00     0.199 C 
HETATM   11  O   UNL     1       5.380  31.078  57.461  1.00  0.00    -0.287 OA
HETATM   12  C   UNL     1       7.540  30.074  57.216  1.00  0.00     0.020 C 
HETATM   13  H   UNL     1       9.889  30.283  59.496  1.00  0.00     0.167 HD
HETATM   14  H   UNL     1       8.930  32.261  61.147  1.00  0.00     0.155 HD
ENDROOT
BRANCH  12  15
HETATM   15  C   UNL     1       7.099  29.470  55.904  1.00  0.00     0.083 C 
BRANCH  15  16
HETATM   16  C   UNL     1       7.188  27.958  55.916  1.00  0.00    -0.054 A 
HETATM   17  C   UNL     1       7.512  27.258  54.747  1.00  0.00     0.008 A 
HETATM   18  C   UNL     1       7.521  25.861  54.730  1.00  0.00     0.008 A 
HETATM   19  C   UNL     1       7.208  25.129  55.883  1.00  0.00    -0.055 A 
HETATM   20  C   UNL     1       6.904  25.831  57.057  1.00  0.00     0.008 A 
HETATM   21  C   UNL     1       6.893  27.229  57.074  1.00  0.00     0.008 A 
BRANCH  19  22
HETATM   22  C   UNL     1       7.190  23.612  55.830  1.00  0.00     0.010 C 
HETATM   23  C   UNL     1       7.290  23.093  54.394  1.00  0.00     0.015 C 
HETATM   24  C   UNL     1       8.293  23.012  56.706  1.00  0.00     0.015 C 
ENDBRANCH  19  22
ENDBRANCH  15  16
ENDBRANCH  12  15
BRANCH   8  25
HETATM   25  C   UNL     1       6.700  32.628  62.736  1.00  0.00     0.055 A 
HETATM   26  C   UNL     1       5.400  32.797  63.234  1.00  0.00     0.034 A 
HETATM   27  C   UNL     1       5.183  33.315  64.516  1.00  0.00     0.044 A 
HETATM   28  C   UNL     1       6.268  33.662  65.308  1.00  0.00     0.116 A 
HETATM   29  F   UNL     1       6.062  34.156  66.536  1.00  0.00    -0.206 F 
HETATM   30  C   UNL     1       7.565  33.500  64.845  1.00  0.00     0.044 A 
HETATM   31  C   UNL     1       7.781  32.984  63.563  1.00  0.00     0.034 A 
ENDBRANCH   8  25
TORSDOF 4
ENDMDL
MODEL 8
REMARK VINA RESULT:      -9.4      6.232      8.800
REMARK  4 active torsions:
REMARK  status: ('A' for Active; 'I' for Inactive)
REMARK    1  A    between atoms: N_8  and  C_9 
REMARK    2  A    between atoms: C_19  and  C_20 
REMARK    3  A    between atoms: C_20  and  C_21 
REMARK    4  A    between atoms: C_24  and  C_25 
ROOT
HETATM    1  C   UNL     1       5.436  27.789  55.069  1.00  0.00     0.069 C 
HETATM    2  C   UNL     1       5.399  27.823  53.562  1.00  0.00     0.017 C 
HETATM    3  N   UNL     1       5.716  29.054  53.001  1.00  0.00    -0.348 N 
HETATM    4  C   UNL     1       5.579  29.301  51.664  1.00  0.00     0.119 A 
HETATM    5  C   UNL     1       5.284  28.315  50.806  1.00  0.00     0.124 A 
HETATM    6  C   UNL     1       5.286  28.902  49.458  1.00  0.00     0.280 A 
HETATM    7  O   UNL     1       5.067  28.293  48.426  1.00  0.00    -0.265 OA
HETATM    8  N   UNL     1       5.580  30.262  49.650  1.00  0.00    -0.236 N 
HETATM    9  N   UNL     1       5.736  30.519  51.028  1.00  0.00    -0.179 NA
HETATM   10  C   UNL     1       5.081  26.948  51.285  1.00  0.00     0.199 C 
HETATM   11  O   UNL     1       4.940  26.002  50.520  1.00  0.00    -0.287 OA
HETATM   12  C   UNL     1       5.062  26.760  52.788  1.00  0.00     0.020 C 
HETATM   13  H   UNL     1       5.732  29.862  53.614  1.00  0.00     0.167 HD
HETATM   14  H   UNL     1       6.652  30.914  51.245  1.00  0.00     0.155 HD
ENDROOT
BRANCH  12  15
HETATM   15  C   UNL     1       4.650  25.385  53.258  1.00  0.00     0.083 C 
BRANCH  15  16
HETATM   16  C   UNL     1       5.845  24.515  53.588  1.00  0.00    -0.054 A 
HETATM   17  C   UNL     1       6.573  23.895  52.565  1.00  0.00     0.008 A 
HETATM   18  C   UNL     1       7.629  23.030  52.862  1.00  0.00     0.008 A 
HETATM   19  C   UNL     1       7.984  22.764  54.192  1.00  0.00    -0.055 A 
HETATM   20  C   UNL     1       7.267  23.401  55.214  1.00  0.00     0.008 A 
HETATM   21  C   UNL     1       6.209  24.266  54.916  1.00  0.00     0.008 A 
BRANCH  19  22
HETATM   22  C   UNL     1       9.111  21.793  54.491  1.00  0.00     0.010 C 
HETATM   23  C   UNL     1       9.059  21.289  55.934  1.00  0.00     0.015 C 
HETATM   24  C   UNL     1       9.111  20.623  53.503  1.00  0.00     0.015 C 
ENDBRANCH  19  22
ENDBRANCH  15  16
ENDBRANCH  12  15
BRANCH   8  25
HETATM   25  C   UNL     1       5.632  31.314  48.710  1.00  0.00     0.055 A 
HETATM   26  C   UNL     1       4.823  31.307  47.564  1.00  0.00     0.034 A 
HETATM   27  C   UNL     1       4.882  32.352  46.636  1.00  0.00     0.044 A 
HETATM   28  C   UNL     1       5.749  33.413  46.851  1.00  0.00     0.116 A 
HETATM   29  F   UNL     1       5.806  34.416  45.965  1.00  0.00    -0.206 F 
HETATM   30  C   UNL     1       6.558  33.450  47.978  1.00  0.00     0.044 A 
HETATM   31  C   UNL     1       6.500  32.404  48.905  1.00  0.00     0.034 A 
ENDBRANCH   8  25
TORSDOF 4
ENDMDL
MODEL 9
REMARK VINA RESULT:      -9.1      3.142      5.213
REMARK  4 active torsions:
REMARK  status: ('A' for Active; 'I' for Inactive)
REMARK    1  A    between atoms: N_8  and  C_9 
REMARK    2  A    between atoms: C_19  and  C_20 
REMARK    3  A    between atoms: C_20  and  C_21 
REMARK    4  A    between atoms: C_24  and  C_25 
ROOT
HETATM    1  C   UNL     1       4.336  32.345  58.025  1.00  0.00     0.069 C 
HETATM    2  C   UNL     1       5.212  32.217  59.246  1.00  0.00     0.017 C 
HETATM    3  N   UNL     1       4.619  32.632  60.432  1.00  0.00    -0.348 N 
HETATM    4  C   UNL     1       5.320  32.730  61.601  1.00  0.00     0.119 A 
HETATM    5  C   UNL     1       6.578  32.276  61.692  1.00  0.00     0.124 A 
HETATM    6  C   UNL     1       7.003  32.465  63.086  1.00  0.00     0.280 A 
HETATM    7  O   UNL     1       8.092  32.155  63.537  1.00  0.00    -0.265 OA
HETATM    8  N   UNL     1       5.907  33.064  63.728  1.00  0.00    -0.236 N 
HETATM    9  N   UNL     1       4.866  33.256  62.796  1.00  0.00    -0.179 NA
HETATM   10  C   UNL     1       7.239  31.680  60.532  1.00  0.00     0.199 C 
HETATM   11  O   UNL     1       8.335  31.138  60.612  1.00  0.00    -0.287 OA
HETATM   12  C   UNL     1       6.490  31.760  59.218  1.00  0.00     0.020 C 
HETATM   13  H   UNL     1       3.763  33.173  60.368  1.00  0.00     0.167 HD
HETATM   14  H   UNL     1       4.003  32.790  63.081  1.00  0.00     0.155 HD
ENDROOT
BRANCH  12  15
HETATM   15  C   UNL     1       7.274  31.324  58.003  1.00  0.00     0.083 C 
BRANCH  15  16
HETATM   16  C   UNL     1       7.096  29.849  57.711  1.00  0.00    -0.054 A 
HETATM   17  C   UNL     1       5.843  29.347  57.338  1.00  0.00     0.008 A 
HETATM   18  C   UNL     1       5.652  27.977  57.141  1.00  0.00     0.008 A 
HETATM   19  C   UNL     1       6.711  27.074  57.312  1.00  0.00    -0.055 A 
HETATM   20  C   UNL     1       7.969  27.581  57.667  1.00  0.00     0.008 A 
HETATM   21  C   UNL     1       8.159  28.951  57.865  1.00  0.00     0.008 A 
BRANCH  19  22
HETATM   22  C   UNL     1       6.470  25.587  57.128  1.00  0.00     0.010 C 
HETATM   23  C   UNL     1       4.978  25.246  57.152  1.00  0.00     0.015 C 
HETATM   24  C   UNL     1       7.128  25.073  55.845  1.00  0.00     0.015 C 
ENDBRANCH  19  22
ENDBRANCH  15  16
ENDBRANCH  12  15
BRANCH   8  25
HETATM   25  C   UNL     1       5.787  33.539  65.052  1.00  0.00     0.055 A 
HETATM   26  C   UNL     1       6.919  33.810  65.834  1.00  0.00     0.034 A 
HETATM   27  C   UNL     1       6.791  34.278  67.147  1.00  0.00     0.044 A 
HETATM   28  C   UNL     1       5.528  34.481  67.683  1.00  0.00     0.116 A 
HETATM   29  F   UNL     1       5.404  34.931  68.938  1.00  0.00    -0.206 F 
HETATM   30  C   UNL     1       4.390  34.226  66.931  1.00  0.00     0.044 A 
HETATM   31  C   UNL     1       4.518  33.757  65.620  1.00  0.00     0.034 A 
ENDBRANCH   8  25
TORSDOF 4
ENDMDL
MODEL 10
REMARK VINA RESULT:      -9.1      6.081      9.964
REMARK  4 active torsions:
REMARK  status: ('A' for Active; 'I' for Inactive)
REMARK    1  A    between atoms: N_8  and  C_9 
REMARK    2  A    between atoms: C_19  and  C_20 
REMARK    3  A    between atoms: C_20  and  C_21 
REMARK    4  A    between atoms: C_24  and  C_25 
ROOT
HETATM    1  C   UNL     1       7.607  24.565  52.572  1.00  0.00     0.069 C 
HETATM    2  C   UNL     1       6.517  25.585  52.358  1.00  0.00     0.017 C 
HETATM    3  N   UNL     1       6.276  25.906  51.027  1.00  0.00    -0.348 N 
HETATM    4  C   UNL     1       5.436  26.920  50.664  1.00  0.00     0.119 A 
HETATM    5  C   UNL     1       4.681  27.552  51.574  1.00  0.00     0.124 A 
HETATM    6  C   UNL     1       3.851  28.522  50.845  1.00  0.00     0.280 A 
HETATM    7  O   UNL     1       3.033  29.269  51.353  1.00  0.00    -0.265 OA
HETATM    8  N   UNL     1       4.222  28.386  49.498  1.00  0.00    -0.236 N 
HETATM    9  N   UNL     1       5.231  27.406  49.385  1.00  0.00    -0.179 NA
HETATM   10  C   UNL     1       4.753  27.180  52.986  1.00  0.00     0.199 C 
HETATM   11  O   UNL     1       3.987  27.643  53.823  1.00  0.00    -0.287 OA
HETATM   12  C   UNL     1       5.827  26.181  53.363  1.00  0.00     0.020 C 
HETATM   13  H   UNL     1       6.962  25.614  50.339  1.00  0.00     0.167 HD
HETATM   14  H   UNL     1       4.962  26.646  48.759  1.00  0.00     0.155 HD
ENDROOT
BRANCH  12  15
HETATM   15  C   UNL     1       6.015  25.969  54.847  1.00  0.00     0.083 C 
BRANCH  15  16
HETATM   16  C   UNL     1       6.993  26.959  55.443  1.00  0.00    -0.054 A 
HETATM   17  C   UNL     1       7.194  27.010  56.829  1.00  0.00     0.008 A 
HETATM   18  C   UNL     1       8.035  27.971  57.394  1.00  0.00     0.008 A 
HETATM   19  C   UNL     1       8.699  28.906  56.587  1.00  0.00    -0.055 A 
HETATM   20  C   UNL     1       8.512  28.841  55.199  1.00  0.00     0.008 A 
HETATM   21  C   UNL     1       7.669  27.880  54.634  1.00  0.00     0.008 A 
BRANCH  19  22
HETATM   22  C   UNL     1       9.580  29.963  57.228  1.00  0.00     0.010 C 
HETATM   23  C   UNL     1       9.258  30.147  58.712  1.00  0.00     0.015 C 
HETATM   24  C   UNL     1      11.064  29.645  57.026  1.00  0.00     0.015 C 
ENDBRANCH  19  22
ENDBRANCH  15  16
ENDBRANCH  12  15
BRANCH   8  25
HETATM   25  C   UNL     1       3.804  29.123  48.368  1.00  0.00     0.055 A 
HETATM   26  C   UNL     1       4.650  30.059  47.757  1.00  0.00     0.034 A 
HETATM   27  C   UNL     1       4.227  30.788  46.639  1.00  0.00     0.044 A 
HETATM   28  C   UNL     1       2.956  30.580  46.125  1.00  0.00     0.116 A 
HETATM   29  F   UNL     1       2.551  31.274  45.054  1.00  0.00    -0.206 F 
HETATM   30  C   UNL     1       2.099  29.656  46.705  1.00  0.00     0.044 A 
HETATM   31  C   UNL     1       2.521  28.929  47.823  1.00  0.00     0.034 A 
ENDBRANCH   8  25
TORSDOF 4
ENDMDL
