MODEL 1
REMARK VINA RESULT:     -10.1      0.000      0.000
REMARK  11 active torsions:
REMARK  status: ('A' for Active; 'I' for Inactive)
REMARK    1  A    between atoms: C_2  and  C_3 
REMARK    2  A    between atoms: C_3  and  C_4 
REMARK       I    between atoms: C_4  and  N_6 
REMARK    3  A    between atoms: N_6  and  C_7 
REMARK    4  A    between atoms: C_11  and  C_13 
REMARK    5  A    between atoms: C_15  and  N_16 
REMARK    6  A    between atoms: N_16  and  C_17 
REMARK    7  A    between atoms: C_29  and  O_30 
REMARK    8  A    between atoms: O_30  and  C_31 
REMARK    9  A    between atoms: C_31  and  C_32 
REMARK   10  A    between atoms: C_32  and  N_33 
REMARK   11  A    between atoms: C_41  and  O_42 
ROOT
HETATM    1  C   UNL     1       6.856  31.301  58.939  1.00  0.00     0.162 A 
HETATM    2  N   UNL     1       7.627  30.549  58.142  1.00  0.00    -0.215 NA
HETATM    3  C   UNL     1       7.111  30.123  56.983  1.00  0.00     0.122 A 
HETATM    4  C   UNL     1       5.805  30.450  56.592  1.00  0.00     0.036 A 
HETATM    5  C   UNL     1       5.193  30.008  55.392  1.00  0.00     0.057 A 
HETATM    6  C   UNL     1       3.884  30.370  55.080  1.00  0.00     0.103 A 
HETATM    7  C   UNL     1       3.209  31.240  55.939  1.00  0.00     0.103 A 
HETATM    8  C   UNL     1       3.811  31.658  57.130  1.00  0.00     0.072 A 
HETATM    9  C   UNL     1       5.100  31.278  57.474  1.00  0.00     0.075 A 
HETATM   10  N   UNL     1       5.613  31.705  58.631  1.00  0.00    -0.228 NA
ENDROOT
BRANCH   1  11
HETATM   11  C   UNL     1       7.390  31.624  60.272  1.00  0.00     0.014 A 
HETATM   12  C   UNL     1       8.625  31.131  60.722  1.00  0.00     0.015 A 
HETATM   13  C   UNL     1       9.105  31.452  61.993  1.00  0.00     0.003 A 
HETATM   14  C   UNL     1       8.366  32.291  62.831  1.00  0.00     0.029 A 
HETATM   15  C   UNL     1       7.147  32.823  62.404  1.00  0.00     0.035 A 
HETATM   16  C   UNL     1       6.668  32.472  61.141  1.00  0.00     0.044 A 
BRANCH  15  17
HETATM   17  N   UNL     1       6.457  33.683  63.286  1.00  0.00    -0.327 N 
HETATM   18  C   UNL     1       5.394  33.348  64.113  1.00  0.00     0.222 C 
HETATM   19  O   UNL     1       4.814  32.268  64.151  1.00  0.00    -0.273 OA
HETATM   20  H   UNL     1       6.725  34.658  63.261  1.00  0.00     0.169 HD
BRANCH  18  21
HETATM   21  C   UNL     1       4.980  34.514  64.997  1.00  0.00     0.103 C 
BRANCH  21  22
HETATM   22  C   UNL     1       5.115  34.181  66.483  1.00  0.00     0.005 C 
HETATM   23  C   UNL     1       6.569  34.102  66.912  1.00  0.00     0.005 C 
ENDBRANCH  21  22
ENDBRANCH  18  21
ENDBRANCH  15  17
ENDBRANCH   1  11
BRANCH   3  24
HETATM   24  N   UNL     1       7.885  29.243  56.175  1.00  0.00    -0.243 NA
HETATM   25  H   UNL     1       7.874  29.614  55.230  1.00  0.00     0.135 HD
BRANCH  24  26
HETATM   26  C   UNL     1       7.786  27.827  56.157  1.00  0.00     0.015 A 
HETATM   27  C   UNL     1       7.849  27.119  57.368  1.00  0.00     0.026 A 
HETATM   28  C   UNL     1       7.688  25.728  57.430  1.00  0.00     0.034 A 
HETATM   29  C   UNL     1       7.424  25.068  56.229  1.00  0.00     0.061 A 
HETATM   30  N   UNL     1       7.220  23.744  55.936  1.00  0.00    -0.278 N 
HETATM   31  C   UNL     1       7.314  25.731  55.014  1.00  0.00     0.013 A 
HETATM   32  H   UNL     1       7.239  22.960  56.576  1.00  0.00     0.189 HD
HETATM   33  N   UNL     1       6.961  23.502  54.639  1.00  0.00    -0.186 NA
HETATM   34  C   UNL     1       7.029  24.712  54.079  1.00  0.00     0.152 A 
HETATM   35  C   UNL     1       7.483  27.127  54.975  1.00  0.00     0.039 A 
ENDBRANCH  24  26
ENDBRANCH   3  24
BRANCH   7  36
HETATM   36  O   UNL     1       1.920  31.666  55.742  1.00  0.00    -0.353 OA
HETATM   37  C   UNL     1       1.844  32.957  55.141  1.00  0.00     0.210 C 
ENDBRANCH   7  36
BRANCH   6  38
HETATM   38  O   UNL     1       3.232  29.930  53.960  1.00  0.00    -0.347 OA
BRANCH  38  39
HETATM   39  C   UNL     1       3.635  28.642  53.480  1.00  0.00     0.206 C 
BRANCH  39  40
HETATM   40  C   UNL     1       3.857  28.773  51.963  1.00  0.00     0.299 C 
BRANCH  40  41
HETATM   41  N   UNL     1       5.250  28.555  51.522  1.00  0.00     0.093 N 
HETATM   42  C   UNL     1       5.581  29.237  50.255  1.00  0.00     0.300 C 
HETATM   43  C   UNL     1       4.965  28.605  48.989  1.00  0.00     0.264 C 
HETATM   44  N   UNL     1       5.314  27.126  48.920  1.00  0.00    -0.072 N 
HETATM   45  H   UNL     1       6.339  27.069  48.845  1.00  0.00     0.279 HD
HETATM   46  C   UNL     1       4.736  26.468  47.704  1.00  0.00     0.269 C 
HETATM   47  C   UNL     1       4.933  26.400  50.201  1.00  0.00     0.264 C 
HETATM   48  C   UNL     1       5.558  27.112  51.419  1.00  0.00     0.300 C 
ENDBRANCH  40  41
ENDBRANCH  39  40
ENDBRANCH  38  39
ENDBRANCH   6  38
TORSDOF 11
ENDMDL
MODEL 2
REMARK VINA RESULT:      -9.9      2.627     10.688
REMARK  11 active torsions:
REMARK  status: ('A' for Active; 'I' for Inactive)
REMARK    1  A    between atoms: C_2  and  C_3 
REMARK    2  A    between atoms: C_3  and  C_4 
REMARK       I    between atoms: C_4  and  N_6 
REMARK    3  A    between atoms: N_6  and  C_7 
REMARK    4  A    between atoms: C_11  and  C_13 
REMARK    5  A    between atoms: C_15  and  N_16 
REMARK    6  A    between atoms: N_16  and  C_17 
REMARK    7  A    between atoms: C_29  and  O_30 
REMARK    8  A    between atoms: O_30  and  C_31 
REMARK    9  A    between atoms: C_31  and  C_32 
REMARK   10  A    between atoms: C_32  and  N_33 
REMARK   11  A    between atoms: C_41  and  O_42 
ROOT
HETATM    1  C   UNL     1       5.367  27.137  51.457  1.00  0.00     0.162 A 
HETATM    2  N   UNL     1       6.362  26.289  51.752  1.00  0.00    -0.215 NA
HETATM    3  C   UNL     1       6.889  26.338  52.982  1.00  0.00     0.122 A 
HETATM    4  C   UNL     1       6.421  27.238  53.950  1.00  0.00     0.036 A 
HETATM    5  C   UNL     1       6.955  27.356  55.258  1.00  0.00     0.057 A 
HETATM    6  C   UNL     1       6.439  28.286  56.160  1.00  0.00     0.103 A 
HETATM    7  C   UNL     1       5.334  29.048  55.775  1.00  0.00     0.103 A 
HETATM    8  C   UNL     1       4.824  28.940  54.477  1.00  0.00     0.072 A 
HETATM    9  C   UNL     1       5.349  28.046  53.555  1.00  0.00     0.075 A 
HETATM   10  N   UNL     1       4.821  27.999  52.329  1.00  0.00    -0.228 NA
ENDROOT
BRANCH   1  11
HETATM   11  C   UNL     1       4.914  27.170  50.056  1.00  0.00     0.014 A 
HETATM   12  C   UNL     1       4.276  26.077  49.451  1.00  0.00     0.015 A 
HETATM   13  C   UNL     1       3.859  26.137  48.120  1.00  0.00     0.003 A 
HETATM   14  C   UNL     1       4.055  27.302  47.375  1.00  0.00     0.029 A 
HETATM   15  C   UNL     1       4.660  28.420  47.956  1.00  0.00     0.035 A 
HETATM   16  C   UNL     1       5.095  28.335  49.279  1.00  0.00     0.044 A 
BRANCH  15  17
HETATM   17  N   UNL     1       4.811  29.577  47.160  1.00  0.00    -0.327 N 
HETATM   18  C   UNL     1       3.854  30.552  46.920  1.00  0.00     0.222 C 
HETATM   19  O   UNL     1       2.683  30.529  47.284  1.00  0.00    -0.273 OA
HETATM   20  H   UNL     1       5.688  29.666  46.663  1.00  0.00     0.169 HD
BRANCH  18  21
HETATM   21  C   UNL     1       4.417  31.702  46.099  1.00  0.00     0.103 C 
BRANCH  21  22
HETATM   22  C   UNL     1       5.184  32.701  46.965  1.00  0.00     0.005 C 
HETATM   23  C   UNL     1       6.394  33.262  46.241  1.00  0.00     0.005 C 
ENDBRANCH  21  22
ENDBRANCH  18  21
ENDBRANCH  15  17
ENDBRANCH   1  11
BRANCH   3  24
HETATM   24  N   UNL     1       8.011  25.513  53.276  1.00  0.00    -0.243 NA
HETATM   25  H   UNL     1       8.673  25.622  52.512  1.00  0.00     0.135 HD
BRANCH  24  26
HETATM   26  C   UNL     1       7.961  24.160  53.703  1.00  0.00     0.015 A 
HETATM   27  C   UNL     1       7.826  23.143  52.744  1.00  0.00     0.026 A 
HETATM   28  C   UNL     1       7.841  21.784  53.090  1.00  0.00     0.034 A 
HETATM   29  C   UNL     1       8.030  21.477  54.438  1.00  0.00     0.061 A 
HETATM   30  N   UNL     1       8.093  20.281  55.105  1.00  0.00    -0.278 N 
HETATM   31  C   UNL     1       8.206  22.449  55.414  1.00  0.00     0.013 A 
HETATM   32  H   UNL     1       7.993  19.351  54.717  1.00  0.00     0.189 HD
HETATM   33  N   UNL     1       8.322  20.399  56.425  1.00  0.00    -0.186 NA
HETATM   34  C   UNL     1       8.379  21.720  56.612  1.00  0.00     0.152 A 
HETATM   35  C   UNL     1       8.185  23.806  55.045  1.00  0.00     0.039 A 
ENDBRANCH  24  26
ENDBRANCH   3  24
BRANCH   7  36
HETATM   36  O   UNL     1       4.741  29.994  56.571  1.00  0.00    -0.353 OA
HETATM   37  C   UNL     1       4.950  31.326  56.106  1.00  0.00     0.210 C 
ENDBRANCH   7  36
BRANCH   6  38
HETATM   38  O   UNL     1       6.949  28.472  57.416  1.00  0.00    -0.347 OA
BRANCH  38  39
HETATM   39  C   UNL     1       8.141  29.265  57.484  1.00  0.00     0.206 C 
BRANCH  39  40
HETATM   40  C   UNL     1       8.173  29.915  58.877  1.00  0.00     0.299 C 
BRANCH  40  41
HETATM   41  N   UNL     1       8.250  31.391  58.868  1.00  0.00     0.093 N 
HETATM   42  C   UNL     1       9.444  31.924  59.554  1.00  0.00     0.300 C 
HETATM   43  C   UNL     1       9.414  31.826  61.094  1.00  0.00     0.264 C 
HETATM   44  N   UNL     1       8.144  32.464  61.634  1.00  0.00    -0.072 N 
HETATM   45  H   UNL     1       8.181  33.459  61.374  1.00  0.00     0.279 HD
HETATM   46  C   UNL     1       8.070  32.393  63.129  1.00  0.00     0.269 C 
HETATM   47  C   UNL     1       6.902  31.889  60.971  1.00  0.00     0.264 C 
HETATM   48  C   UNL     1       7.025  31.993  59.436  1.00  0.00     0.300 C 
ENDBRANCH  40  41
ENDBRANCH  39  40
ENDBRANCH  38  39
ENDBRANCH   6  38
TORSDOF 11
ENDMDL
MODEL 3
REMARK VINA RESULT:      -9.8      3.166     11.041
REMARK  11 active torsions:
REMARK  status: ('A' for Active; 'I' for Inactive)
REMARK    1  A    between atoms: C_2  and  C_3 
REMARK    2  A    between atoms: C_3  and  C_4 
REMARK       I    between atoms: C_4  and  N_6 
REMARK    3  A    between atoms: N_6  and  C_7 
REMARK    4  A    between atoms: C_11  and  C_13 
REMARK    5  A    between atoms: C_15  and  N_16 
REMARK    6  A    between atoms: N_16  and  C_17 
REMARK    7  A    between atoms: C_29  and  O_30 
REMARK    8  A    between atoms: O_30  and  C_31 
REMARK    9  A    between atoms: C_31  and  C_32 
REMARK   10  A    between atoms: C_32  and  N_33 
REMARK   11  A    between atoms: C_41  and  O_42 
ROOT
HETATM    1  C   UNL     1       6.376  27.963  55.757  1.00  0.00     0.162 A 
HETATM    2  N   UNL     1       5.340  28.495  56.419  1.00  0.00    -0.215 NA
HETATM    3  C   UNL     1       5.588  29.473  57.298  1.00  0.00     0.122 A 
HETATM    4  C   UNL     1       6.887  29.947  57.529  1.00  0.00     0.036 A 
HETATM    5  C   UNL     1       7.217  30.959  58.465  1.00  0.00     0.057 A 
HETATM    6  C   UNL     1       8.538  31.368  58.643  1.00  0.00     0.103 A 
HETATM    7  C   UNL     1       9.524  30.813  57.824  1.00  0.00     0.103 A 
HETATM    8  C   UNL     1       9.196  29.801  56.916  1.00  0.00     0.072 A 
HETATM    9  C   UNL     1       7.892  29.357  56.753  1.00  0.00     0.075 A 
HETATM   10  N   UNL     1       7.647  28.381  55.873  1.00  0.00    -0.228 NA
ENDROOT
BRANCH   1  11
HETATM   11  C   UNL     1       6.097  26.788  54.915  1.00  0.00     0.014 A 
HETATM   12  C   UNL     1       5.058  26.774  53.971  1.00  0.00     0.015 A 
HETATM   13  C   UNL     1       4.816  25.644  53.189  1.00  0.00     0.003 A 
HETATM   14  C   UNL     1       5.622  24.511  53.322  1.00  0.00     0.029 A 
HETATM   15  C   UNL     1       6.684  24.502  54.231  1.00  0.00     0.035 A 
HETATM   16  C   UNL     1       6.897  25.630  55.025  1.00  0.00     0.044 A 
BRANCH  15  17
HETATM   17  N   UNL     1       7.478  23.337  54.305  1.00  0.00    -0.327 N 
HETATM   18  C   UNL     1       7.939  22.716  55.457  1.00  0.00     0.222 C 
HETATM   19  O   UNL     1       7.812  23.126  56.606  1.00  0.00    -0.273 OA
HETATM   20  H   UNL     1       7.797  22.956  53.424  1.00  0.00     0.169 HD
BRANCH  18  21
HETATM   21  C   UNL     1       8.677  21.424  55.143  1.00  0.00     0.103 C 
BRANCH  21  22
HETATM   22  C   UNL     1       7.874  20.519  54.209  1.00  0.00     0.005 C 
HETATM   23  C   UNL     1       8.513  20.419  52.835  1.00  0.00     0.005 C 
ENDBRANCH  21  22
ENDBRANCH  18  21
ENDBRANCH  15  17
ENDBRANCH   1  11
BRANCH   3  24
HETATM   24  N   UNL     1       4.510  29.977  58.079  1.00  0.00    -0.243 NA
HETATM   25  H   UNL     1       3.709  29.374  57.911  1.00  0.00     0.135 HD
BRANCH  24  26
HETATM   26  C   UNL     1       4.105  31.335  58.162  1.00  0.00     0.015 A 
HETATM   27  C   UNL     1       3.878  32.055  56.977  1.00  0.00     0.026 A 
HETATM   28  C   UNL     1       3.409  33.377  56.986  1.00  0.00     0.034 A 
HETATM   29  C   UNL     1       3.140  33.944  58.231  1.00  0.00     0.061 A 
HETATM   30  N   UNL     1       2.683  35.185  58.593  1.00  0.00    -0.278 N 
HETATM   31  C   UNL     1       3.312  33.256  59.425  1.00  0.00     0.013 A 
HETATM   32  H   UNL     1       2.459  35.963  57.984  1.00  0.00     0.189 HD
HETATM   33  N   UNL     1       2.520  35.346  59.918  1.00  0.00    -0.186 NA
HETATM   34  C   UNL     1       2.914  34.174  60.423  1.00  0.00     0.152 A 
HETATM   35  C   UNL     1       3.787  31.933  59.394  1.00  0.00     0.039 A 
ENDBRANCH  24  26
ENDBRANCH   3  24
BRANCH   7  36
HETATM   36  O   UNL     1      10.856  31.131  57.905  1.00  0.00    -0.353 OA
HETATM   37  C   UNL     1      11.707  30.105  57.395  1.00  0.00     0.210 C 
ENDBRANCH   7  36
BRANCH   6  38
HETATM   38  O   UNL     1       8.914  32.305  59.566  1.00  0.00    -0.347 OA
BRANCH  38  39
HETATM   39  C   UNL     1       9.016  31.833  60.914  1.00  0.00     0.206 C 
BRANCH  39  40
HETATM   40  C   UNL     1       8.061  32.685  61.766  1.00  0.00     0.299 C 
BRANCH  40  41
HETATM   41  N   UNL     1       7.601  32.038  63.012  1.00  0.00     0.093 N 
HETATM   42  C   UNL     1       6.249  31.453  62.909  1.00  0.00     0.300 C 
HETATM   43  C   UNL     1       5.093  32.474  62.884  1.00  0.00     0.264 C 
HETATM   44  N   UNL     1       5.194  33.408  64.080  1.00  0.00    -0.072 N 
HETATM   45  H   UNL     1       5.090  32.823  64.920  1.00  0.00     0.279 HD
HETATM   46  C   UNL     1       4.088  34.420  64.099  1.00  0.00     0.269 C 
HETATM   47  C   UNL     1       6.566  34.057  64.171  1.00  0.00     0.264 C 
HETATM   48  C   UNL     1       7.665  32.973  64.156  1.00  0.00     0.300 C 
ENDBRANCH  40  41
ENDBRANCH  39  40
ENDBRANCH  38  39
ENDBRANCH   6  38
TORSDOF 11
ENDMDL
MODEL 4
REMARK VINA RESULT:      -9.6      2.841     10.677
REMARK  11 active torsions:
REMARK  status: ('A' for Active; 'I' for Inactive)
REMARK    1  A    between atoms: C_2  and  C_3 
REMARK    2  A    between atoms: C_3  and  C_4 
REMARK       I    between atoms: C_4  and  N_6 
REMARK    3  A    between atoms: N_6  and  C_7 
REMARK    4  A    between atoms: C_11  and  C_13 
REMARK    5  A    between atoms: C_15  and  N_16 
REMARK    6  A    between atoms: N_16  and  C_17 
REMARK    7  A    between atoms: C_29  and  O_30 
REMARK    8  A    between atoms: O_30  and  C_31 
REMARK    9  A    between atoms: C_31  and  C_32 
REMARK   10  A    between atoms: C_32  and  N_33 
REMARK   11  A    between atoms: C_41  and  O_42 
ROOT
HETATM    1  C   UNL     1       4.779  27.423  51.355  1.00  0.00     0.162 A 
HETATM    2  N   UNL     1       5.857  26.717  51.726  1.00  0.00    -0.215 NA
HETATM    3  C   UNL     1       6.366  26.937  52.944  1.00  0.00     0.122 A 
HETATM    4  C   UNL     1       5.798  27.869  53.824  1.00  0.00     0.036 A 
HETATM    5  C   UNL     1       6.306  28.166  55.114  1.00  0.00     0.057 A 
HETATM    6  C   UNL     1       5.688  29.116  55.926  1.00  0.00     0.103 A 
HETATM    7  C   UNL     1       4.512  29.717  55.474  1.00  0.00     0.103 A 
HETATM    8  C   UNL     1       4.026  29.434  54.193  1.00  0.00     0.072 A 
HETATM    9  C   UNL     1       4.649  28.519  53.357  1.00  0.00     0.075 A 
HETATM   10  N   UNL     1       4.138  28.301  52.142  1.00  0.00    -0.228 NA
ENDROOT
BRANCH   1  11
HETATM   11  C   UNL     1       4.336  27.276  49.958  1.00  0.00     0.014 A 
HETATM   12  C   UNL     1       4.848  26.281  49.112  1.00  0.00     0.015 A 
HETATM   13  C   UNL     1       4.410  26.168  47.791  1.00  0.00     0.003 A 
HETATM   14  C   UNL     1       3.435  27.038  47.298  1.00  0.00     0.029 A 
HETATM   15  C   UNL     1       2.882  28.021  48.123  1.00  0.00     0.035 A 
HETATM   16  C   UNL     1       3.349  28.138  49.433  1.00  0.00     0.044 A 
BRANCH  15  17
HETATM   17  N   UNL     1       1.883  28.856  47.575  1.00  0.00    -0.327 N 
HETATM   18  C   UNL     1       0.606  28.479  47.184  1.00  0.00     0.222 C 
HETATM   19  O   UNL     1       0.158  27.338  47.161  1.00  0.00    -0.273 OA
HETATM   20  H   UNL     1       2.153  29.813  47.390  1.00  0.00     0.169 HD
BRANCH  18  21
HETATM   21  C   UNL     1      -0.221  29.675  46.740  1.00  0.00     0.103 C 
BRANCH  21  22
HETATM   22  C   UNL     1       0.051  30.910  47.598  1.00  0.00     0.005 C 
HETATM   23  C   UNL     1      -1.197  31.754  47.783  1.00  0.00     0.005 C 
ENDBRANCH  21  22
ENDBRANCH  18  21
ENDBRANCH  15  17
ENDBRANCH   1  11
BRANCH   3  24
HETATM   24  N   UNL     1       7.567  26.267  53.312  1.00  0.00    -0.243 NA
HETATM   25  H   UNL     1       8.246  26.441  52.576  1.00  0.00     0.135 HD
BRANCH  24  26
HETATM   26  C   UNL     1       7.665  24.930  53.777  1.00  0.00     0.015 A 
HETATM   27  C   UNL     1       7.370  24.648  55.121  1.00  0.00     0.026 A 
HETATM   28  C   UNL     1       7.378  23.341  55.629  1.00  0.00     0.034 A 
HETATM   29  C   UNL     1       7.662  22.314  54.728  1.00  0.00     0.061 A 
HETATM   30  N   UNL     1       7.753  20.956  54.886  1.00  0.00    -0.278 N 
HETATM   31  C   UNL     1       7.921  22.543  53.383  1.00  0.00     0.013 A 
HETATM   32  H   UNL     1       7.636  20.423  55.740  1.00  0.00     0.189 HD
HETATM   33  N   UNL     1       8.022  20.286  53.751  1.00  0.00    -0.186 NA
HETATM   34  C   UNL     1       8.135  21.257  52.840  1.00  0.00     0.152 A 
HETATM   35  C   UNL     1       7.911  23.862  52.895  1.00  0.00     0.039 A 
ENDBRANCH  24  26
ENDBRANCH   3  24
BRANCH   7  36
HETATM   36  O   UNL     1       3.815  30.666  56.178  1.00  0.00    -0.353 OA
HETATM   37  C   UNL     1       2.865  31.368  55.380  1.00  0.00     0.210 C 
ENDBRANCH   7  36
BRANCH   6  38
HETATM   38  O   UNL     1       6.166  29.473  57.158  1.00  0.00    -0.347 OA
BRANCH  38  39
HETATM   39  C   UNL     1       7.563  29.233  57.368  1.00  0.00     0.206 C 
BRANCH  39  40
HETATM   40  C   UNL     1       7.930  29.855  58.726  1.00  0.00     0.299 C 
BRANCH  40  41
HETATM   41  N   UNL     1       8.096  31.323  58.708  1.00  0.00     0.093 N 
HETATM   42  C   UNL     1       9.352  31.782  59.336  1.00  0.00     0.300 C 
HETATM   43  C   UNL     1       9.387  31.687  60.876  1.00  0.00     0.264 C 
HETATM   44  N   UNL     1       8.185  32.402  61.472  1.00  0.00    -0.072 N 
HETATM   45  H   UNL     1       8.271  33.393  61.207  1.00  0.00     0.279 HD
HETATM   46  C   UNL     1       8.178  32.337  62.970  1.00  0.00     0.269 C 
HETATM   47  C   UNL     1       6.881  31.904  60.870  1.00  0.00     0.264 C 
HETATM   48  C   UNL     1       6.938  32.000  59.330  1.00  0.00     0.300 C 
ENDBRANCH  40  41
ENDBRANCH  39  40
ENDBRANCH  38  39
ENDBRANCH   6  38
TORSDOF 11
ENDMDL
MODEL 5
REMARK VINA RESULT:      -9.3      2.516     10.005
REMARK  11 active torsions:
REMARK  status: ('A' for Active; 'I' for Inactive)
REMARK    1  A    between atoms: C_2  and  C_3 
REMARK    2  A    between atoms: C_3  and  C_4 
REMARK       I    between atoms: C_4  and  N_6 
REMARK    3  A    between atoms: N_6  and  C_7 
REMARK    4  A    between atoms: C_11  and  C_13 
REMARK    5  A    between atoms: C_15  and  N_16 
REMARK    6  A    between atoms: N_16  and  C_17 
REMARK    7  A    between atoms: C_29  and  O_30 
REMARK    8  A    between atoms: O_30  and  C_31 
REMARK    9  A    between atoms: C_31  and  C_32 
REMARK   10  A    between atoms: C_32  and  N_33 
REMARK   11  A    between atoms: C_41  and  O_42 
ROOT
HETATM    1  C   UNL     1       4.423  28.534  54.187  1.00  0.00     0.162 A 
HETATM    2  N   UNL     1       4.931  28.368  55.416  1.00  0.00    -0.215 NA
HETATM    3  C   UNL     1       4.728  29.335  56.318  1.00  0.00     0.122 A 
HETATM    4  C   UNL     1       4.000  30.493  56.010  1.00  0.00     0.036 A 
HETATM    5  C   UNL     1       3.774  31.562  56.912  1.00  0.00     0.057 A 
HETATM    6  C   UNL     1       3.048  32.686  56.523  1.00  0.00     0.103 A 
HETATM    7  C   UNL     1       2.480  32.706  55.248  1.00  0.00     0.103 A 
HETATM    8  C   UNL     1       2.721  31.656  54.355  1.00  0.00     0.072 A 
HETATM    9  C   UNL     1       3.474  30.547  54.713  1.00  0.00     0.075 A 
HETATM   10  N   UNL     1       3.674  29.583  53.810  1.00  0.00    -0.228 NA
ENDROOT
BRANCH   1  11
HETATM   11  C   UNL     1       4.793  27.534  53.172  1.00  0.00     0.014 A 
HETATM   12  C   UNL     1       4.599  27.755  51.799  1.00  0.00     0.015 A 
HETATM   13  C   UNL     1       4.958  26.787  50.860  1.00  0.00     0.003 A 
HETATM   14  C   UNL     1       5.536  25.585  51.276  1.00  0.00     0.029 A 
HETATM   15  C   UNL     1       5.771  25.345  52.632  1.00  0.00     0.035 A 
HETATM   16  C   UNL     1       5.382  26.312  53.561  1.00  0.00     0.044 A 
BRANCH  15  17
HETATM   17  N   UNL     1       6.379  24.122  52.990  1.00  0.00    -0.327 N 
HETATM   18  C   UNL     1       7.250  23.904  54.048  1.00  0.00     0.222 C 
HETATM   19  O   UNL     1       7.713  24.757  54.798  1.00  0.00    -0.273 OA
HETATM   20  H   UNL     1       6.211  23.341  52.370  1.00  0.00     0.169 HD
BRANCH  18  21
HETATM   21  C   UNL     1       7.616  22.434  54.183  1.00  0.00     0.103 C 
BRANCH  21  22
HETATM   22  C   UNL     1       8.093  21.840  52.858  1.00  0.00     0.005 C 
HETATM   23  C   UNL     1       8.297  20.339  52.955  1.00  0.00     0.005 C 
ENDBRANCH  21  22
ENDBRANCH  18  21
ENDBRANCH  15  17
ENDBRANCH   1  11
BRANCH   3  24
HETATM   24  N   UNL     1       5.346  29.216  57.595  1.00  0.00    -0.243 NA
HETATM   25  H   UNL     1       4.653  29.475  58.291  1.00  0.00     0.135 HD
BRANCH  24  26
HETATM   26  C   UNL     1       6.624  29.721  57.952  1.00  0.00     0.015 A 
HETATM   27  C   UNL     1       7.762  29.236  57.287  1.00  0.00     0.026 A 
HETATM   28  C   UNL     1       9.046  29.741  57.539  1.00  0.00     0.034 A 
HETATM   29  C   UNL     1       9.146  30.781  58.464  1.00  0.00     0.061 A 
HETATM   30  N   UNL     1      10.222  31.487  58.936  1.00  0.00    -0.278 N 
HETATM   31  C   UNL     1       8.043  31.317  59.116  1.00  0.00     0.013 A 
HETATM   32  H   UNL     1      11.198  31.363  58.692  1.00  0.00     0.189 HD
HETATM   33  N   UNL     1       9.903  32.452  59.816  1.00  0.00    -0.186 NA
HETATM   34  C   UNL     1       8.577  32.339  59.932  1.00  0.00     0.152 A 
HETATM   35  C   UNL     1       6.765  30.793  58.850  1.00  0.00     0.039 A 
ENDBRANCH  24  26
ENDBRANCH   3  24
BRANCH   7  36
HETATM   36  O   UNL     1       1.747  33.753  54.750  1.00  0.00    -0.353 OA
HETATM   37  C   UNL     1       0.339  33.538  54.831  1.00  0.00     0.210 C 
ENDBRANCH   7  36
BRANCH   6  38
HETATM   38  O   UNL     1       2.843  33.765  57.340  1.00  0.00    -0.347 OA
BRANCH  38  39
HETATM   39  C   UNL     1       4.016  34.285  57.977  1.00  0.00     0.206 C 
BRANCH  39  40
HETATM   40  C   UNL     1       3.636  34.607  59.432  1.00  0.00     0.299 C 
BRANCH  40  41
HETATM   41  N   UNL     1       2.865  33.550  60.117  1.00  0.00     0.093 N 
HETATM   42  C   UNL     1       2.112  34.035  61.292  1.00  0.00     0.300 C 
HETATM   43  C   UNL     1       2.971  34.364  62.531  1.00  0.00     0.264 C 
HETATM   44  N   UNL     1       3.841  33.171  62.895  1.00  0.00    -0.072 N 
HETATM   45  H   UNL     1       3.201  32.404  63.140  1.00  0.00     0.279 HD
HETATM   46  C   UNL     1       4.695  33.444  64.097  1.00  0.00     0.269 C 
HETATM   47  C   UNL     1       4.660  32.691  61.707  1.00  0.00     0.264 C 
HETATM   48  C   UNL     1       3.734  32.418  60.503  1.00  0.00     0.300 C 
ENDBRANCH  40  41
ENDBRANCH  39  40
ENDBRANCH  38  39
ENDBRANCH   6  38
TORSDOF 11
ENDMDL
MODEL 6
REMARK VINA RESULT:      -9.2      1.967      2.485
REMARK  11 active torsions:
REMARK  status: ('A' for Active; 'I' for Inactive)
REMARK    1  A    between atoms: C_2  and  C_3 
REMARK    2  A    between atoms: C_3  and  C_4 
REMARK       I    between atoms: C_4  and  N_6 
REMARK    3  A    between atoms: N_6  and  C_7 
REMARK    4  A    between atoms: C_11  and  C_13 
REMARK    5  A    between atoms: C_15  and  N_16 
REMARK    6  A    between atoms: N_16  and  C_17 
REMARK    7  A    between atoms: C_29  and  O_30 
REMARK    8  A    between atoms: O_30  and  C_31 
REMARK    9  A    between atoms: C_31  and  C_32 
REMARK   10  A    between atoms: C_32  and  N_33 
REMARK   11  A    between atoms: C_41  and  O_42 
ROOT
HETATM    1  C   UNL     1       6.671  29.916  57.632  1.00  0.00     0.162 A 
HETATM    2  N   UNL     1       6.578  28.580  57.580  1.00  0.00    -0.215 NA
HETATM    3  C   UNL     1       5.851  28.036  56.597  1.00  0.00     0.122 A 
HETATM    4  C   UNL     1       5.203  28.823  55.635  1.00  0.00     0.036 A 
HETATM    5  C   UNL     1       4.398  28.308  54.588  1.00  0.00     0.057 A 
HETATM    6  C   UNL     1       3.778  29.161  53.676  1.00  0.00     0.103 A 
HETATM    7  C   UNL     1       4.027  30.532  53.768  1.00  0.00     0.103 A 
HETATM    8  C   UNL     1       4.807  31.036  54.814  1.00  0.00     0.072 A 
HETATM    9  C   UNL     1       5.402  30.204  55.752  1.00  0.00     0.075 A 
HETATM   10  N   UNL     1       6.128  30.750  56.731  1.00  0.00    -0.228 NA
ENDROOT
BRANCH   1  11
HETATM   11  C   UNL     1       7.344  30.492  58.808  1.00  0.00     0.014 A 
HETATM   12  C   UNL     1       8.676  30.191  59.129  1.00  0.00     0.015 A 
HETATM   13  C   UNL     1       9.287  30.751  60.253  1.00  0.00     0.003 A 
HETATM   14  C   UNL     1       8.581  31.641  61.066  1.00  0.00     0.029 A 
HETATM   15  C   UNL     1       7.263  31.986  60.758  1.00  0.00     0.035 A 
HETATM   16  C   UNL     1       6.657  31.398  59.646  1.00  0.00     0.044 A 
BRANCH  15  17
HETATM   17  N   UNL     1       6.607  32.908  61.603  1.00  0.00    -0.327 N 
HETATM   18  C   UNL     1       5.761  32.611  62.661  1.00  0.00     0.222 C 
HETATM   19  O   UNL     1       5.365  31.496  62.986  1.00  0.00    -0.273 OA
HETATM   20  H   UNL     1       6.717  33.886  61.368  1.00  0.00     0.169 HD
BRANCH  18  21
HETATM   21  C   UNL     1       5.329  33.864  63.406  1.00  0.00     0.103 C 
BRANCH  21  22
HETATM   22  C   UNL     1       5.637  33.777  64.900  1.00  0.00     0.005 C 
HETATM   23  C   UNL     1       7.125  33.617  65.160  1.00  0.00     0.005 C 
ENDBRANCH  21  22
ENDBRANCH  18  21
ENDBRANCH  15  17
ENDBRANCH   1  11
BRANCH   3  24
HETATM   24  N   UNL     1       5.663  26.625  56.590  1.00  0.00    -0.243 NA
HETATM   25  H   UNL     1       5.283  26.367  57.497  1.00  0.00     0.135 HD
BRANCH  24  26
HETATM   26  C   UNL     1       6.610  25.661  56.153  1.00  0.00     0.015 A 
HETATM   27  C   UNL     1       7.608  25.230  57.041  1.00  0.00     0.026 A 
HETATM   28  C   UNL     1       8.530  24.230  56.699  1.00  0.00     0.034 A 
HETATM   29  C   UNL     1       8.395  23.650  55.438  1.00  0.00     0.061 A 
HETATM   30  N   UNL     1       9.111  22.671  54.798  1.00  0.00    -0.278 N 
HETATM   31  C   UNL     1       7.399  24.018  54.542  1.00  0.00     0.013 A 
HETATM   32  H   UNL     1       9.923  22.174  55.142  1.00  0.00     0.189 HD
HETATM   33  N   UNL     1       8.644  22.358  53.576  1.00  0.00    -0.186 NA
HETATM   34  C   UNL     1       7.609  23.188  53.419  1.00  0.00     0.152 A 
HETATM   35  C   UNL     1       6.487  25.025  54.905  1.00  0.00     0.039 A 
ENDBRANCH  24  26
ENDBRANCH   3  24
BRANCH   7  36
HETATM   36  O   UNL     1       3.475  31.469  52.932  1.00  0.00    -0.353 OA
HETATM   37  C   UNL     1       2.623  32.390  53.612  1.00  0.00     0.210 C 
ENDBRANCH   7  36
BRANCH   6  38
HETATM   38  O   UNL     1       2.953  28.718  52.678  1.00  0.00    -0.347 OA
BRANCH  38  39
HETATM   39  C   UNL     1       3.613  28.268  51.489  1.00  0.00     0.206 C 
BRANCH  39  40
HETATM   40  C   UNL     1       2.893  28.921  50.297  1.00  0.00     0.299 C 
BRANCH  40  41
HETATM   41  N   UNL     1       3.507  28.649  48.981  1.00  0.00     0.093 N 
HETATM   42  C   UNL     1       3.080  29.590  47.925  1.00  0.00     0.300 C 
HETATM   43  C   UNL     1       1.637  29.393  47.416  1.00  0.00     0.264 C 
HETATM   44  N   UNL     1       1.429  27.952  46.979  1.00  0.00    -0.072 N 
HETATM   45  H   UNL     1       2.074  27.785  46.195  1.00  0.00     0.279 HD
HETATM   46  C   UNL     1       0.037  27.712  46.474  1.00  0.00     0.269 C 
HETATM   47  C   UNL     1       1.817  26.972  48.075  1.00  0.00     0.264 C 
HETATM   48  C   UNL     1       3.257  27.256  48.553  1.00  0.00     0.300 C 
ENDBRANCH  40  41
ENDBRANCH  39  40
ENDBRANCH  38  39
ENDBRANCH   6  38
TORSDOF 11
ENDMDL
MODEL 7
REMARK VINA RESULT:      -9.2      2.589      4.612
REMARK  11 active torsions:
REMARK  status: ('A' for Active; 'I' for Inactive)
REMARK    1  A    between atoms: C_2  and  C_3 
REMARK    2  A    between atoms: C_3  and  C_4 
REMARK       I    between atoms: C_4  and  N_6 
REMARK    3  A    between atoms: N_6  and  C_7 
REMARK    4  A    between atoms: C_11  and  C_13 
REMARK    5  A    between atoms: C_15  and  N_16 
REMARK    6  A    between atoms: N_16  and  C_17 
REMARK    7  A    between atoms: C_29  and  O_30 
REMARK    8  A    between atoms: O_30  and  C_31 
REMARK    9  A    between atoms: C_31  and  C_32 
REMARK   10  A    between atoms: C_32  and  N_33 
REMARK   11  A    between atoms: C_41  and  O_42 
ROOT
HETATM    1  C   UNL     1       4.653  34.308  60.636  1.00  0.00     0.162 A 
HETATM    2  N   UNL     1       5.524  33.292  60.705  1.00  0.00    -0.215 NA
HETATM    3  C   UNL     1       5.583  32.441  59.674  1.00  0.00     0.122 A 
HETATM    4  C   UNL     1       4.771  32.594  58.542  1.00  0.00     0.036 A 
HETATM    5  C   UNL     1       4.767  31.712  57.432  1.00  0.00     0.057 A 
HETATM    6  C   UNL     1       3.919  31.929  56.348  1.00  0.00     0.103 A 
HETATM    7  C   UNL     1       3.125  33.077  56.341  1.00  0.00     0.103 A 
HETATM    8  C   UNL     1       3.118  33.934  57.446  1.00  0.00     0.072 A 
HETATM    9  C   UNL     1       3.929  33.713  58.550  1.00  0.00     0.075 A 
HETATM   10  N   UNL     1       3.868  34.565  59.577  1.00  0.00    -0.228 NA
ENDROOT
BRANCH   1  11
HETATM   11  C   UNL     1       4.496  35.135  61.844  1.00  0.00     0.014 A 
HETATM   12  C   UNL     1       3.594  36.208  61.904  1.00  0.00     0.015 A 
HETATM   13  C   UNL     1       3.469  36.976  63.063  1.00  0.00     0.003 A 
HETATM   14  C   UNL     1       4.232  36.672  64.193  1.00  0.00     0.029 A 
HETATM   15  C   UNL     1       5.118  35.592  64.177  1.00  0.00     0.035 A 
HETATM   16  C   UNL     1       5.251  34.850  63.003  1.00  0.00     0.044 A 
BRANCH  15  17
HETATM   17  N   UNL     1       5.845  35.319  65.357  1.00  0.00    -0.327 N 
HETATM   18  C   UNL     1       5.496  34.430  66.363  1.00  0.00     0.222 C 
HETATM   19  O   UNL     1       4.448  33.797  66.444  1.00  0.00    -0.273 OA
HETATM   20  H   UNL     1       6.674  35.879  65.511  1.00  0.00     0.169 HD
BRANCH  18  21
HETATM   21  C   UNL     1       6.580  34.327  67.424  1.00  0.00     0.103 C 
BRANCH  21  22
HETATM   22  C   UNL     1       5.995  34.259  68.835  1.00  0.00     0.005 C 
HETATM   23  C   UNL     1       7.077  34.083  69.885  1.00  0.00     0.005 C 
ENDBRANCH  21  22
ENDBRANCH  18  21
ENDBRANCH  15  17
ENDBRANCH   1  11
BRANCH   3  24
HETATM   24  N   UNL     1       6.432  31.303  59.778  1.00  0.00    -0.243 NA
HETATM   25  H   UNL     1       6.481  31.053  60.762  1.00  0.00     0.135 HD
BRANCH  24  26
HETATM   26  C   UNL     1       7.702  31.153  59.161  1.00  0.00     0.015 A 
HETATM   27  C   UNL     1       8.763  31.977  59.568  1.00  0.00     0.026 A 
HETATM   28  C   UNL     1      10.059  31.835  59.051  1.00  0.00     0.034 A 
HETATM   29  C   UNL     1      10.264  30.807  58.130  1.00  0.00     0.061 A 
HETATM   30  N   UNL     1      11.378  30.400  57.444  1.00  0.00    -0.278 N 
HETATM   31  C   UNL     1       9.253  29.943  57.729  1.00  0.00     0.013 A 
HETATM   32  H   UNL     1      12.306  30.805  57.474  1.00  0.00     0.189 HD
HETATM   33  N   UNL     1      11.178  29.329  56.654  1.00  0.00    -0.186 NA
HETATM   34  C   UNL     1       9.880  29.061  56.822  1.00  0.00     0.152 A 
HETATM   35  C   UNL     1       7.959  30.107  58.257  1.00  0.00     0.039 A 
ENDBRANCH  24  26
ENDBRANCH   3  24
BRANCH   7  36
HETATM   36  O   UNL     1       2.250  33.398  55.334  1.00  0.00    -0.353 OA
HETATM   37  C   UNL     1       1.478  34.564  55.616  1.00  0.00     0.210 C 
ENDBRANCH   7  36
BRANCH   6  38
HETATM   38  O   UNL     1       3.843  31.082  55.276  1.00  0.00    -0.347 OA
BRANCH  38  39
HETATM   39  C   UNL     1       4.018  29.692  55.577  1.00  0.00     0.206 C 
BRANCH  39  40
HETATM   40  C   UNL     1       5.063  29.143  54.592  1.00  0.00     0.299 C 
BRANCH  40  41
HETATM   41  N   UNL     1       6.309  28.657  55.221  1.00  0.00     0.093 N 
HETATM   42  C   UNL     1       7.311  28.173  54.249  1.00  0.00     0.300 C 
HETATM   43  C   UNL     1       6.984  26.816  53.591  1.00  0.00     0.264 C 
HETATM   44  N   UNL     1       6.709  25.769  54.659  1.00  0.00    -0.072 N 
HETATM   45  H   UNL     1       7.578  25.665  55.199  1.00  0.00     0.279 HD
HETATM   46  C   UNL     1       6.387  24.431  54.065  1.00  0.00     0.269 C 
HETATM   47  C   UNL     1       5.642  26.234  55.638  1.00  0.00     0.264 C 
HETATM   48  C   UNL     1       6.026  27.609  56.225  1.00  0.00     0.300 C 
ENDBRANCH  40  41
ENDBRANCH  39  40
ENDBRANCH  38  39
ENDBRANCH   6  38
TORSDOF 11
ENDMDL
MODEL 8
REMARK VINA RESULT:      -9.2      3.165     10.803
REMARK  11 active torsions:
REMARK  status: ('A' for Active; 'I' for Inactive)
REMARK    1  A    between atoms: C_2  and  C_3 
REMARK    2  A    between atoms: C_3  and  C_4 
REMARK       I    between atoms: C_4  and  N_6 
REMARK    3  A    between atoms: N_6  and  C_7 
REMARK    4  A    between atoms: C_11  and  C_13 
REMARK    5  A    between atoms: C_15  and  N_16 
REMARK    6  A    between atoms: N_16  and  C_17 
REMARK    7  A    between atoms: C_29  and  O_30 
REMARK    8  A    between atoms: O_30  and  C_31 
REMARK    9  A    between atoms: C_31  and  C_32 
REMARK   10  A    between atoms: C_32  and  N_33 
REMARK   11  A    between atoms: C_41  and  O_42 
ROOT
HETATM    1  C   UNL     1       6.888  27.266  54.938  1.00  0.00     0.162 A 
HETATM    2  N   UNL     1       5.639  27.752  54.960  1.00  0.00    -0.215 NA
HETATM    3  C   UNL     1       5.356  28.725  55.835  1.00  0.00     0.122 A 
HETATM    4  C   UNL     1       6.325  29.240  56.706  1.00  0.00     0.036 A 
HETATM    5  C   UNL     1       6.080  30.249  57.672  1.00  0.00     0.057 A 
HETATM    6  C   UNL     1       7.099  30.700  58.510  1.00  0.00     0.103 A 
HETATM    7  C   UNL     1       8.387  30.192  58.329  1.00  0.00     0.103 A 
HETATM    8  C   UNL     1       8.618  29.184  57.388  1.00  0.00     0.072 A 
HETATM    9  C   UNL     1       7.608  28.696  56.571  1.00  0.00     0.075 A 
HETATM   10  N   UNL     1       7.895  27.726  55.699  1.00  0.00    -0.228 NA
ENDROOT
BRANCH   1  11
HETATM   11  C   UNL     1       7.133  26.095  54.081  1.00  0.00     0.014 A 
HETATM   12  C   UNL     1       7.320  26.209  52.695  1.00  0.00     0.015 A 
HETATM   13  C   UNL     1       7.549  25.079  51.907  1.00  0.00     0.003 A 
HETATM   14  C   UNL     1       7.613  23.814  52.496  1.00  0.00     0.029 A 
HETATM   15  C   UNL     1       7.461  23.668  53.877  1.00  0.00     0.035 A 
HETATM   16  C   UNL     1       7.207  24.804  54.648  1.00  0.00     0.044 A 
BRANCH  15  17
HETATM   17  N   UNL     1       7.559  22.367  54.418  1.00  0.00    -0.327 N 
HETATM   18  C   UNL     1       8.602  21.469  54.243  1.00  0.00     0.222 C 
HETATM   19  O   UNL     1       9.576  21.619  53.513  1.00  0.00    -0.273 OA
HETATM   20  H   UNL     1       6.752  22.034  54.931  1.00  0.00     0.169 HD
BRANCH  18  21
HETATM   21  C   UNL     1       8.402  20.207  55.066  1.00  0.00     0.103 C 
BRANCH  21  22
HETATM   22  C   UNL     1       7.590  20.473  56.334  1.00  0.00     0.005 C 
HETATM   23  C   UNL     1       8.435  21.116  57.419  1.00  0.00     0.005 C 
ENDBRANCH  21  22
ENDBRANCH  18  21
ENDBRANCH  15  17
ENDBRANCH   1  11
BRANCH   3  24
HETATM   24  N   UNL     1       4.011  29.179  55.936  1.00  0.00    -0.243 NA
HETATM   25  H   UNL     1       3.411  28.360  55.883  1.00  0.00     0.135 HD
BRANCH  24  26
HETATM   26  C   UNL     1       3.441  30.261  55.215  1.00  0.00     0.015 A 
HETATM   27  C   UNL     1       2.759  31.268  55.917  1.00  0.00     0.026 A 
HETATM   28  C   UNL     1       2.234  32.400  55.277  1.00  0.00     0.034 A 
HETATM   29  C   UNL     1       2.447  32.505  53.902  1.00  0.00     0.061 A 
HETATM   30  N   UNL     1       2.077  33.456  52.987  1.00  0.00    -0.278 N 
HETATM   31  C   UNL     1       3.149  31.553  53.174  1.00  0.00     0.013 A 
HETATM   32  H   UNL     1       1.538  34.298  53.154  1.00  0.00     0.189 HD
HETATM   33  N   UNL     1       2.504  33.212  51.736  1.00  0.00    -0.186 NA
HETATM   34  C   UNL     1       3.147  32.047  51.851  1.00  0.00     0.152 A 
HETATM   35  C   UNL     1       3.664  30.424  53.836  1.00  0.00     0.039 A 
ENDBRANCH  24  26
ENDBRANCH   3  24
BRANCH   7  36
HETATM   36  O   UNL     1       9.468  30.555  59.091  1.00  0.00    -0.353 OA
HETATM   37  C   UNL     1      10.293  31.533  58.460  1.00  0.00     0.210 C 
ENDBRANCH   7  36
BRANCH   6  38
HETATM   38  O   UNL     1       6.903  31.637  59.488  1.00  0.00    -0.347 OA
BRANCH  38  39
HETATM   39  C   UNL     1       5.601  32.234  59.516  1.00  0.00     0.206 C 
BRANCH  39  40
HETATM   40  C   UNL     1       5.230  32.444  60.993  1.00  0.00     0.299 C 
BRANCH  40  41
HETATM   41  N   UNL     1       6.080  33.415  61.712  1.00  0.00     0.093 N 
HETATM   42  C   UNL     1       6.482  32.965  63.059  1.00  0.00     0.300 C 
HETATM   43  C   UNL     1       5.362  32.994  64.121  1.00  0.00     0.264 C 
HETATM   44  N   UNL     1       4.727  34.374  64.174  1.00  0.00    -0.072 N 
HETATM   45  H   UNL     1       5.467  35.027  64.466  1.00  0.00     0.279 HD
HETATM   46  C   UNL     1       3.632  34.451  65.195  1.00  0.00     0.269 C 
HETATM   47  C   UNL     1       4.263  34.831  62.799  1.00  0.00     0.264 C 
HETATM   48  C   UNL     1       5.428  34.740  61.791  1.00  0.00     0.300 C 
ENDBRANCH  40  41
ENDBRANCH  39  40
ENDBRANCH  38  39
ENDBRANCH   6  38
TORSDOF 11
ENDMDL
MODEL 9
REMARK VINA RESULT:      -9.1      3.932      8.902
REMARK  11 active torsions:
REMARK  status: ('A' for Active; 'I' for Inactive)
REMARK    1  A    between atoms: C_2  and  C_3 
REMARK    2  A    between atoms: C_3  and  C_4 
REMARK       I    between atoms: C_4  and  N_6 
REMARK    3  A    between atoms: N_6  and  C_7 
REMARK    4  A    between atoms: C_11  and  C_13 
REMARK    5  A    between atoms: C_15  and  N_16 
REMARK    6  A    between atoms: N_16  and  C_17 
REMARK    7  A    between atoms: C_29  and  O_30 
REMARK    8  A    between atoms: O_30  and  C_31 
REMARK    9  A    between atoms: C_31  and  C_32 
REMARK   10  A    between atoms: C_32  and  N_33 
REMARK   11  A    between atoms: C_41  and  O_42 
ROOT
HETATM    1  C   UNL     1       6.032  26.422  54.698  1.00  0.00     0.162 A 
HETATM    2  N   UNL     1       5.284  27.331  55.339  1.00  0.00    -0.215 NA
HETATM    3  C   UNL     1       4.502  28.133  54.607  1.00  0.00     0.122 A 
HETATM    4  C   UNL     1       4.447  28.037  53.210  1.00  0.00     0.036 A 
HETATM    5  C   UNL     1       3.661  28.875  52.379  1.00  0.00     0.057 A 
HETATM    6  C   UNL     1       3.670  28.720  50.994  1.00  0.00     0.103 A 
HETATM    7  C   UNL     1       4.412  27.673  50.443  1.00  0.00     0.103 A 
HETATM    8  C   UNL     1       5.200  26.862  51.266  1.00  0.00     0.072 A 
HETATM    9  C   UNL     1       5.231  27.025  52.643  1.00  0.00     0.075 A 
HETATM   10  N   UNL     1       6.012  26.221  53.371  1.00  0.00    -0.228 NA
ENDROOT
BRANCH   1  11
HETATM   11  C   UNL     1       6.997  25.661  55.510  1.00  0.00     0.014 A 
HETATM   12  C   UNL     1       7.444  26.115  56.760  1.00  0.00     0.015 A 
HETATM   13  C   UNL     1       8.361  25.372  57.507  1.00  0.00     0.003 A 
HETATM   14  C   UNL     1       8.833  24.150  57.023  1.00  0.00     0.029 A 
HETATM   15  C   UNL     1       8.386  23.654  55.796  1.00  0.00     0.035 A 
HETATM   16  C   UNL     1       7.489  24.420  55.050  1.00  0.00     0.044 A 
BRANCH  15  17
HETATM   17  N   UNL     1       8.881  22.402  55.371  1.00  0.00    -0.327 N 
HETATM   18  C   UNL     1       8.312  21.158  55.606  1.00  0.00     0.222 C 
HETATM   19  O   UNL     1       7.330  20.927  56.304  1.00  0.00    -0.273 OA
HETATM   20  H   UNL     1       9.778  22.411  54.902  1.00  0.00     0.169 HD
BRANCH  18  21
HETATM   21  C   UNL     1       9.075  20.048  54.901  1.00  0.00     0.103 C 
BRANCH  21  22
HETATM   22  C   UNL     1       9.093  20.240  53.385  1.00  0.00     0.005 C 
HETATM   23  C   UNL     1       7.731  20.646  52.852  1.00  0.00     0.005 C 
ENDBRANCH  21  22
ENDBRANCH  18  21
ENDBRANCH  15  17
ENDBRANCH   1  11
BRANCH   3  24
HETATM   24  N   UNL     1       3.780  29.167  55.267  1.00  0.00    -0.243 NA
HETATM   25  H   UNL     1       3.383  29.764  54.547  1.00  0.00     0.135 HD
BRANCH  24  26
HETATM   26  C   UNL     1       4.249  29.945  56.359  1.00  0.00     0.015 A 
HETATM   27  C   UNL     1       3.319  30.515  57.243  1.00  0.00     0.026 A 
HETATM   28  C   UNL     1       3.714  31.234  58.380  1.00  0.00     0.034 A 
HETATM   29  C   UNL     1       5.085  31.334  58.620  1.00  0.00     0.061 A 
HETATM   30  N   UNL     1       5.798  31.952  59.615  1.00  0.00    -0.278 N 
HETATM   31  C   UNL     1       6.038  30.753  57.795  1.00  0.00     0.013 A 
HETATM   32  H   UNL     1       5.436  32.491  60.392  1.00  0.00     0.189 HD
HETATM   33  N   UNL     1       7.130  31.795  59.515  1.00  0.00    -0.186 NA
HETATM   34  C   UNL     1       7.273  31.074  58.400  1.00  0.00     0.152 A 
HETATM   35  C   UNL     1       5.620  30.039  56.658  1.00  0.00     0.039 A 
ENDBRANCH  24  26
ENDBRANCH   3  24
BRANCH   7  36
HETATM   36  O   UNL     1       4.501  27.421  49.097  1.00  0.00    -0.353 OA
HETATM   37  C   UNL     1       3.885  26.192  48.717  1.00  0.00     0.210 C 
ENDBRANCH   7  36
BRANCH   6  38
HETATM   38  O   UNL     1       2.967  29.533  50.146  1.00  0.00    -0.347 OA
BRANCH  38  39
HETATM   39  C   UNL     1       1.652  29.078  49.808  1.00  0.00     0.206 C 
BRANCH  39  40
HETATM   40  C   UNL     1       1.199  29.876  48.573  1.00  0.00     0.299 C 
BRANCH  40  41
HETATM   41  N   UNL     1       1.855  29.482  47.309  1.00  0.00     0.093 N 
HETATM   42  C   UNL     1       1.701  30.478  46.230  1.00  0.00     0.300 C 
HETATM   43  C   UNL     1       0.293  30.554  45.604  1.00  0.00     0.264 C 
HETATM   44  N   UNL     1      -0.148  29.174  45.140  1.00  0.00    -0.072 N 
HETATM   45  H   UNL     1       0.515  28.883  44.410  1.00  0.00     0.279 HD
HETATM   46  C   UNL     1      -1.514  29.198  44.523  1.00  0.00     0.269 C 
HETATM   47  C   UNL     1      -0.042  28.147  46.257  1.00  0.00     0.264 C 
HETATM   48  C   UNL     1       1.382  28.158  46.852  1.00  0.00     0.300 C 
ENDBRANCH  40  41
ENDBRANCH  39  40
ENDBRANCH  38  39
ENDBRANCH   6  38
TORSDOF 11
ENDMDL
MODEL 10
REMARK VINA RESULT:      -9.1      3.469      7.791
REMARK  11 active torsions:
REMARK  status: ('A' for Active; 'I' for Inactive)
REMARK    1  A    between atoms: C_2  and  C_3 
REMARK    2  A    between atoms: C_3  and  C_4 
REMARK       I    between atoms: C_4  and  N_6 
REMARK    3  A    between atoms: N_6  and  C_7 
REMARK    4  A    between atoms: C_11  and  C_13 
REMARK    5  A    between atoms: C_15  and  N_16 
REMARK    6  A    between atoms: N_16  and  C_17 
REMARK    7  A    between atoms: C_29  and  O_30 
REMARK    8  A    between atoms: O_30  and  C_31 
REMARK    9  A    between atoms: C_31  and  C_32 
REMARK   10  A    between atoms: C_32  and  N_33 
REMARK   11  A    between atoms: C_41  and  O_42 
ROOT
HETATM    1  C   UNL     1       4.008  31.051  55.854  1.00  0.00     0.162 A 
HETATM    2  N   UNL     1       3.683  29.919  55.214  1.00  0.00    -0.215 NA
HETATM    3  C   UNL     1       4.471  28.850  55.384  1.00  0.00     0.122 A 
HETATM    4  C   UNL     1       5.604  28.892  56.208  1.00  0.00     0.036 A 
HETATM    5  C   UNL     1       6.492  27.804  56.405  1.00  0.00     0.057 A 
HETATM    6  C   UNL     1       7.605  27.929  57.235  1.00  0.00     0.103 A 
HETATM    7  C   UNL     1       7.788  29.127  57.930  1.00  0.00     0.103 A 
HETATM    8  C   UNL     1       6.920  30.203  57.716  1.00  0.00     0.072 A 
HETATM    9  C   UNL     1       5.828  30.107  56.865  1.00  0.00     0.075 A 
HETATM   10  N   UNL     1       5.043  31.175  56.700  1.00  0.00    -0.228 NA
ENDROOT
BRANCH   1  11
HETATM   11  C   UNL     1       3.218  32.250  55.529  1.00  0.00     0.014 A 
HETATM   12  C   UNL     1       3.771  33.539  55.556  1.00  0.00     0.015 A 
HETATM   13  C   UNL     1       2.996  34.659  55.245  1.00  0.00     0.003 A 
HETATM   14  C   UNL     1       1.657  34.506  54.880  1.00  0.00     0.029 A 
HETATM   15  C   UNL     1       1.083  33.234  54.813  1.00  0.00     0.035 A 
HETATM   16  C   UNL     1       1.862  32.127  55.153  1.00  0.00     0.044 A 
BRANCH  15  17
HETATM   17  N   UNL     1      -0.269  33.140  54.416  1.00  0.00    -0.327 N 
HETATM   18  C   UNL     1      -1.381  33.533  55.148  1.00  0.00     0.222 C 
HETATM   19  O   UNL     1      -1.384  33.944  56.303  1.00  0.00    -0.273 OA
HETATM   20  H   UNL     1      -0.445  32.678  53.533  1.00  0.00     0.169 HD
BRANCH  18  21
HETATM   21  C   UNL     1      -2.665  33.374  54.349  1.00  0.00     0.103 C 
BRANCH  21  22
HETATM   22  C   UNL     1      -3.791  32.772  55.189  1.00  0.00     0.005 C 
HETATM   23  C   UNL     1      -5.155  33.263  54.738  1.00  0.00     0.005 C 
ENDBRANCH  21  22
ENDBRANCH  18  21
ENDBRANCH  15  17
ENDBRANCH   1  11
BRANCH   3  24
HETATM   24  N   UNL     1       4.193  27.673  54.633  1.00  0.00    -0.243 NA
HETATM   25  H   UNL     1       4.452  26.879  55.211  1.00  0.00     0.135 HD
BRANCH  24  26
HETATM   26  C   UNL     1       4.555  27.444  53.279  1.00  0.00     0.015 A 
HETATM   27  C   UNL     1       4.945  26.155  52.883  1.00  0.00     0.026 A 
HETATM   28  C   UNL     1       5.246  25.842  51.550  1.00  0.00     0.034 A 
HETATM   29  C   UNL     1       5.109  26.868  50.613  1.00  0.00     0.061 A 
HETATM   30  N   UNL     1       5.319  26.906  49.259  1.00  0.00    -0.278 N 
HETATM   31  C   UNL     1       4.689  28.147  50.954  1.00  0.00     0.013 A 
HETATM   32  H   UNL     1       5.643  26.155  48.662  1.00  0.00     0.189 HD
HETATM   33  N   UNL     1       5.043  28.095  48.694  1.00  0.00    -0.186 NA
HETATM   34  C   UNL     1       4.670  28.851  49.730  1.00  0.00     0.152 A 
HETATM   35  C   UNL     1       4.395  28.439  52.298  1.00  0.00     0.039 A 
ENDBRANCH  24  26
ENDBRANCH   3  24
BRANCH   7  36
HETATM   36  O   UNL     1       8.844  29.372  58.771  1.00  0.00    -0.353 OA
HETATM   37  C   UNL     1       8.629  30.495  59.624  1.00  0.00     0.210 C 
ENDBRANCH   7  36
BRANCH   6  38
HETATM   38  O   UNL     1       8.517  26.926  57.421  1.00  0.00    -0.347 OA
BRANCH  38  39
HETATM   39  C   UNL     1       8.000  25.727  58.009  1.00  0.00     0.206 C 
BRANCH  39  40
HETATM   40  C   UNL     1       8.773  24.550  57.392  1.00  0.00     0.299 C 
BRANCH  40  41
HETATM   41  N   UNL     1       7.937  23.392  57.013  1.00  0.00     0.093 N 
HETATM   42  C   UNL     1       8.667  22.361  56.249  1.00  0.00     0.300 C 
HETATM   43  C   UNL     1       8.999  22.739  54.790  1.00  0.00     0.264 C 
HETATM   44  N   UNL     1       7.735  23.165  54.060  1.00  0.00    -0.072 N 
HETATM   45  H   UNL     1       7.111  22.347  54.049  1.00  0.00     0.279 HD
HETATM   46  C   UNL     1       8.008  23.542  52.635  1.00  0.00     0.269 C 
HETATM   47  C   UNL     1       6.997  24.263  54.812  1.00  0.00     0.264 C 
HETATM   48  C   UNL     1       6.735  23.823  56.268  1.00  0.00     0.300 C 
ENDBRANCH  40  41
ENDBRANCH  39  40
ENDBRANCH  38  39
ENDBRANCH   6  38
TORSDOF 11
ENDMDL
