MODEL 1
REMARK VINA RESULT:      -8.1      0.000      0.000
REMARK  5 active torsions:
REMARK  status: ('A' for Active; 'I' for Inactive)
REMARK    1  A    between atoms: C_3  and  O_4 
REMARK    2  A    between atoms: O_4  and  C_5 
REMARK    3  A    between atoms: C_6  and  N_7 
REMARK       I    between atoms: N_7  and  C_8 
REMARK       I    between atoms: C_8  and  N_9 
REMARK    4  A    between atoms: N_9  and  C_10 
REMARK    5  A    between atoms: C_11  and  C_12 
ROOT
HETATM    1  C   UNL     1       7.774  24.165  53.285  1.00  0.00     0.014 C 
HETATM    2  C   UNL     1       6.679  24.420  52.864  1.00  0.00    -0.091 C 
HETATM    3  C   UNL     1       5.341  24.729  52.346  1.00  0.00     0.268 C 
ENDROOT
BRANCH   3   4
HETATM    4  O   UNL     1       4.841  25.899  53.005  1.00  0.00    -0.337 OA
BRANCH   4   5
HETATM    5  C   UNL     1       4.940  27.032  52.242  1.00  0.00     0.099 A 
HETATM    6  C   UNL     1       4.830  28.282  52.870  1.00  0.00     0.070 A 
HETATM    7  C   UNL     1       5.096  29.440  52.121  1.00  0.00     0.035 A 
HETATM    8  C   UNL     1       5.361  29.361  50.755  1.00  0.00     0.044 A 
HETATM    9  C   UNL     1       5.380  28.120  50.137  1.00  0.00     0.119 A 
HETATM   10  F   UNL     1       5.617  28.040  48.821  1.00  0.00    -0.206 F 
HETATM   11  C   UNL     1       5.176  26.955  50.865  1.00  0.00     0.081 A 
BRANCH   6  12
HETATM   12  N   UNL     1       4.537  28.485  54.230  1.00  0.00    -0.306 N 
HETATM   13  C   UNL     1       5.161  28.104  55.383  1.00  0.00     0.325 C 
HETATM   14  N   UNL     1       6.290  27.344  55.301  1.00  0.00    -0.305 N 
HETATM   15  O   UNL     1       4.565  28.377  56.430  1.00  0.00    -0.247 OA
HETATM   16  H   UNL     1       6.893  27.445  54.486  1.00  0.00     0.171 HD
HETATM   17  H   UNL     1       3.588  28.763  54.454  1.00  0.00     0.171 HD
BRANCH  14  18
HETATM   18  C   UNL     1       6.804  26.572  56.336  1.00  0.00     0.086 A 
HETATM   19  C   UNL     1       7.770  26.944  57.332  1.00  0.00     0.133 A 
HETATM   20  N   UNL     1       8.032  25.898  58.148  1.00  0.00    -0.171 NA
HETATM   21  N   UNL     1       7.267  24.905  57.677  1.00  0.00    -0.286 N 
HETATM   22  H   UNL     1       7.309  24.004  58.139  1.00  0.00     0.188 HD
HETATM   23  C   UNL     1       6.517  25.254  56.602  1.00  0.00     0.141 A 
BRANCH  19  24
HETATM   24  C   UNL     1       8.426  28.246  57.532  1.00  0.00     0.089 A 
HETATM   25  N   UNL     1       7.961  29.027  58.542  1.00  0.00    -0.259 NA
HETATM   26  C   UNL     1       8.578  30.213  58.737  1.00  0.00     0.117 A 
HETATM   27  C   UNL     1       9.639  30.673  57.977  1.00  0.00     0.019 A 
HETATM   28  C   UNL     1      10.099  29.869  56.944  1.00  0.00     0.004 A 
HETATM   29  C   UNL     1       9.486  28.641  56.714  1.00  0.00     0.034 A 
ENDBRANCH  19  24
ENDBRANCH  14  18
ENDBRANCH   6  12
ENDBRANCH   4   5
ENDBRANCH   3   4
TORSDOF 5
ENDMDL
MODEL 2
REMARK VINA RESULT:      -8.0      2.782      4.591
REMARK  5 active torsions:
REMARK  status: ('A' for Active; 'I' for Inactive)
REMARK    1  A    between atoms: C_3  and  O_4 
REMARK    2  A    between atoms: O_4  and  C_5 
REMARK    3  A    between atoms: C_6  and  N_7 
REMARK       I    between atoms: N_7  and  C_8 
REMARK       I    between atoms: C_8  and  N_9 
REMARK    4  A    between atoms: N_9  and  C_10 
REMARK    5  A    between atoms: C_11  and  C_12 
ROOT
HETATM    1  C   UNL     1       4.625  25.375  53.243  1.00  0.00     0.014 C 
HETATM    2  C   UNL     1       5.785  25.632  53.074  1.00  0.00    -0.091 C 
HETATM    3  C   UNL     1       7.203  25.947  52.861  1.00  0.00     0.268 C 
ENDROOT
BRANCH   3   4
HETATM    4  O   UNL     1       7.934  25.648  54.056  1.00  0.00    -0.337 OA
BRANCH   4   5
HETATM    5  C   UNL     1       8.049  24.305  54.298  1.00  0.00     0.099 A 
HETATM    6  C   UNL     1       8.145  23.862  55.626  1.00  0.00     0.070 A 
HETATM    7  C   UNL     1       8.095  22.483  55.884  1.00  0.00     0.035 A 
HETATM    8  C   UNL     1       8.056  21.562  54.837  1.00  0.00     0.044 A 
HETATM    9  C   UNL     1       8.048  22.021  53.528  1.00  0.00     0.119 A 
HETATM   10  F   UNL     1       8.029  21.140  52.520  1.00  0.00    -0.206 F 
HETATM   11  C   UNL     1       8.040  23.381  53.247  1.00  0.00     0.081 A 
BRANCH   6  12
HETATM   12  N   UNL     1       8.222  24.696  56.756  1.00  0.00    -0.306 N 
HETATM   13  C   UNL     1       7.448  25.727  57.206  1.00  0.00     0.325 C 
HETATM   14  N   UNL     1       6.378  26.121  56.460  1.00  0.00    -0.305 N 
HETATM   15  O   UNL     1       7.867  26.313  58.209  1.00  0.00    -0.247 OA
HETATM   16  H   UNL     1       5.900  25.433  55.881  1.00  0.00     0.171 HD
HETATM   17  H   UNL     1       9.113  24.727  57.237  1.00  0.00     0.171 HD
BRANCH  14  18
HETATM   18  C   UNL     1       5.747  27.356  56.567  1.00  0.00     0.086 A 
HETATM   19  C   UNL     1       6.344  28.662  56.602  1.00  0.00     0.133 A 
HETATM   20  N   UNL     1       5.392  29.611  56.745  1.00  0.00    -0.171 NA
HETATM   21  N   UNL     1       4.243  28.927  56.808  1.00  0.00    -0.286 N 
HETATM   22  H   UNL     1       3.380  29.445  56.927  1.00  0.00     0.188 HD
HETATM   23  C   UNL     1       4.399  27.583  56.706  1.00  0.00     0.141 A 
BRANCH  19  24
HETATM   24  C   UNL     1       7.766  29.023  56.490  1.00  0.00     0.089 A 
HETATM   25  N   UNL     1       8.381  29.478  57.613  1.00  0.00    -0.259 NA
HETATM   26  C   UNL     1       9.692  29.789  57.514  1.00  0.00     0.117 A 
HETATM   27  C   UNL     1      10.434  29.674  56.351  1.00  0.00     0.019 A 
HETATM   28  C   UNL     1       9.792  29.215  55.210  1.00  0.00     0.004 A 
HETATM   29  C   UNL     1       8.441  28.887  55.276  1.00  0.00     0.034 A 
ENDBRANCH  19  24
ENDBRANCH  14  18
ENDBRANCH   6  12
ENDBRANCH   4   5
ENDBRANCH   3   4
TORSDOF 5
ENDMDL
MODEL 3
REMARK VINA RESULT:      -7.9      2.930      7.021
REMARK  5 active torsions:
REMARK  status: ('A' for Active; 'I' for Inactive)
REMARK    1  A    between atoms: C_3  and  O_4 
REMARK    2  A    between atoms: O_4  and  C_5 
REMARK    3  A    between atoms: C_6  and  N_7 
REMARK       I    between atoms: N_7  and  C_8 
REMARK       I    between atoms: C_8  and  N_9 
REMARK    4  A    between atoms: N_9  and  C_10 
REMARK    5  A    between atoms: C_11  and  C_12 
ROOT
HETATM    1  C   UNL     1       6.905  32.919  61.326  1.00  0.00     0.014 C 
HETATM    2  C   UNL     1       7.553  32.033  60.841  1.00  0.00    -0.091 C 
HETATM    3  C   UNL     1       8.350  30.952  60.249  1.00  0.00     0.268 C 
ENDROOT
BRANCH   3   4
HETATM    4  O   UNL     1       7.594  30.331  59.202  1.00  0.00    -0.337 OA
BRANCH   4   5
HETATM    5  C   UNL     1       8.363  29.944  58.137  1.00  0.00     0.099 A 
HETATM    6  C   UNL     1       7.736  29.356  57.028  1.00  0.00     0.070 A 
HETATM    7  C   UNL     1       8.496  29.112  55.873  1.00  0.00     0.035 A 
HETATM    8  C   UNL     1       9.870  29.351  55.858  1.00  0.00     0.044 A 
HETATM    9  C   UNL     1      10.484  29.853  56.996  1.00  0.00     0.119 A 
HETATM   10  F   UNL     1      11.806  30.067  56.993  1.00  0.00    -0.206 F 
HETATM   11  C   UNL     1       9.747  30.155  58.133  1.00  0.00     0.081 A 
BRANCH   6  12
HETATM   12  N   UNL     1       6.368  29.041  56.941  1.00  0.00    -0.306 N 
HETATM   13  C   UNL     1       5.668  28.141  56.190  1.00  0.00     0.325 C 
HETATM   14  N   UNL     1       6.340  27.366  55.293  1.00  0.00    -0.305 N 
HETATM   15  O   UNL     1       4.439  28.196  56.298  1.00  0.00    -0.247 OA
HETATM   16  H   UNL     1       7.310  27.119  55.485  1.00  0.00     0.171 HD
HETATM   17  H   UNL     1       5.720  29.724  57.314  1.00  0.00     0.171 HD
BRANCH  14  18
HETATM   18  C   UNL     1       5.755  26.709  54.217  1.00  0.00     0.086 A 
HETATM   19  C   UNL     1       6.083  25.421  53.671  1.00  0.00     0.133 A 
HETATM   20  N   UNL     1       5.301  25.149  52.602  1.00  0.00    -0.171 NA
HETATM   21  N   UNL     1       4.520  26.229  52.475  1.00  0.00    -0.286 N 
HETATM   22  H   UNL     1       3.847  26.250  51.717  1.00  0.00     0.188 HD
HETATM   23  C   UNL     1       4.749  27.185  53.410  1.00  0.00     0.141 A 
BRANCH  19  24
HETATM   24  C   UNL     1       7.090  24.457  54.141  1.00  0.00     0.089 A 
HETATM   25  N   UNL     1       7.546  24.606  55.412  1.00  0.00    -0.259 NA
HETATM   26  C   UNL     1       8.455  23.707  55.850  1.00  0.00     0.117 A 
HETATM   27  C   UNL     1       8.943  22.659  55.088  1.00  0.00     0.019 A 
HETATM   28  C   UNL     1       8.474  22.523  53.789  1.00  0.00     0.004 A 
HETATM   29  C   UNL     1       7.538  23.432  53.306  1.00  0.00     0.034 A 
ENDBRANCH  19  24
ENDBRANCH  14  18
ENDBRANCH   6  12
ENDBRANCH   4   5
ENDBRANCH   3   4
TORSDOF 5
ENDMDL
MODEL 4
REMARK VINA RESULT:      -7.8      2.903      6.334
REMARK  5 active torsions:
REMARK  status: ('A' for Active; 'I' for Inactive)
REMARK    1  A    between atoms: C_3  and  O_4 
REMARK    2  A    between atoms: O_4  and  C_5 
REMARK    3  A    between atoms: C_6  and  N_7 
REMARK       I    between atoms: N_7  and  C_8 
REMARK       I    between atoms: C_8  and  N_9 
REMARK    4  A    between atoms: N_9  and  C_10 
REMARK    5  A    between atoms: C_11  and  C_12 
ROOT
HETATM    1  C   UNL     1       8.893  24.032  57.090  1.00  0.00     0.014 C 
HETATM    2  C   UNL     1       8.328  25.051  57.377  1.00  0.00    -0.091 C 
HETATM    3  C   UNL     1       7.634  26.295  57.731  1.00  0.00     0.268 C 
ENDROOT
BRANCH   3   4
HETATM    4  O   UNL     1       7.843  27.260  56.694  1.00  0.00    -0.337 OA
BRANCH   4   5
HETATM    5  C   UNL     1       8.031  28.531  57.169  1.00  0.00     0.099 A 
HETATM    6  C   UNL     1       6.907  29.322  57.448  1.00  0.00     0.070 A 
HETATM    7  C   UNL     1       7.092  30.558  58.089  1.00  0.00     0.035 A 
HETATM    8  C   UNL     1       8.373  31.041  58.352  1.00  0.00     0.044 A 
HETATM    9  C   UNL     1       9.474  30.279  57.990  1.00  0.00     0.119 A 
HETATM   10  F   UNL     1      10.707  30.746  58.223  1.00  0.00    -0.206 F 
HETATM   11  C   UNL     1       9.318  29.029  57.405  1.00  0.00     0.081 A 
BRANCH   6  12
HETATM   12  N   UNL     1       5.572  28.954  57.198  1.00  0.00    -0.306 N 
HETATM   13  C   UNL     1       4.948  28.397  56.119  1.00  0.00     0.325 C 
HETATM   14  N   UNL     1       5.678  28.135  54.999  1.00  0.00    -0.305 N 
HETATM   15  O   UNL     1       3.720  28.293  56.206  1.00  0.00    -0.247 OA
HETATM   16  H   UNL     1       6.668  27.917  55.095  1.00  0.00     0.171 HD
HETATM   17  H   UNL     1       4.869  29.357  57.806  1.00  0.00     0.171 HD
BRANCH  14  18
HETATM   18  C   UNL     1       5.142  27.945  53.730  1.00  0.00     0.086 A 
HETATM   19  C   UNL     1       5.382  26.866  52.812  1.00  0.00     0.133 A 
HETATM   20  N   UNL     1       4.694  27.061  51.665  1.00  0.00    -0.171 NA
HETATM   21  N   UNL     1       4.055  28.223  51.851  1.00  0.00    -0.286 N 
HETATM   22  H   UNL     1       3.474  28.579  51.100  1.00  0.00     0.188 HD
HETATM   23  C   UNL     1       4.287  28.789  53.061  1.00  0.00     0.141 A 
BRANCH  19  24
HETATM   24  C   UNL     1       6.220  25.671  53.002  1.00  0.00     0.089 A 
HETATM   25  N   UNL     1       5.978  24.912  54.103  1.00  0.00    -0.259 NA
HETATM   26  C   UNL     1       6.734  23.804  54.264  1.00  0.00     0.117 A 
HETATM   27  C   UNL     1       7.727  23.404  53.387  1.00  0.00     0.019 A 
HETATM   28  C   UNL     1       7.969  24.192  52.271  1.00  0.00     0.004 A 
HETATM   29  C   UNL     1       7.209  25.342  52.074  1.00  0.00     0.034 A 
ENDBRANCH  19  24
ENDBRANCH  14  18
ENDBRANCH   6  12
ENDBRANCH   4   5
ENDBRANCH   3   4
TORSDOF 5
ENDMDL
MODEL 5
REMARK VINA RESULT:      -7.5      4.757      7.408
REMARK  5 active torsions:
REMARK  status: ('A' for Active; 'I' for Inactive)
REMARK    1  A    between atoms: C_3  and  O_4 
REMARK    2  A    between atoms: O_4  and  C_5 
REMARK    3  A    between atoms: C_6  and  N_7 
REMARK       I    between atoms: N_7  and  C_8 
REMARK       I    between atoms: C_8  and  N_9 
REMARK    4  A    between atoms: N_9  and  C_10 
REMARK    5  A    between atoms: C_11  and  C_12 
ROOT
HETATM    1  C   UNL     1       9.321  30.461  61.815  1.00  0.00     0.014 C 
HETATM    2  C   UNL     1       8.909  31.456  61.285  1.00  0.00    -0.091 C 
HETATM    3  C   UNL     1       8.407  32.675  60.641  1.00  0.00     0.268 C 
ENDROOT
BRANCH   3   4
HETATM    4  O   UNL     1       7.437  32.316  59.649  1.00  0.00    -0.337 OA
BRANCH   4   5
HETATM    5  C   UNL     1       6.146  32.407  60.098  1.00  0.00     0.099 A 
HETATM    6  C   UNL     1       5.098  32.158  59.200  1.00  0.00     0.070 A 
HETATM    7  C   UNL     1       3.786  32.087  59.695  1.00  0.00     0.035 A 
HETATM    8  C   UNL     1       3.512  32.363  61.034  1.00  0.00     0.044 A 
HETATM    9  C   UNL     1       4.556  32.691  61.887  1.00  0.00     0.119 A 
HETATM   10  F   UNL     1       4.296  32.974  63.170  1.00  0.00    -0.206 F 
HETATM   11  C   UNL     1       5.868  32.713  61.436  1.00  0.00     0.081 A 
BRANCH   6  12
HETATM   12  N   UNL     1       5.250  31.899  57.826  1.00  0.00    -0.306 N 
HETATM   13  C   UNL     1       5.343  30.746  57.101  1.00  0.00     0.325 C 
HETATM   14  N   UNL     1       5.323  29.552  57.758  1.00  0.00    -0.305 N 
HETATM   15  O   UNL     1       5.571  30.888  55.896  1.00  0.00    -0.247 OA
HETATM   16  H   UNL     1       4.810  29.481  58.635  1.00  0.00     0.171 HD
HETATM   17  H   UNL     1       5.579  32.668  57.253  1.00  0.00     0.171 HD
BRANCH  14  18
HETATM   18  C   UNL     1       5.785  28.350  57.234  1.00  0.00     0.086 A 
HETATM   19  C   UNL     1       7.122  28.004  56.838  1.00  0.00     0.133 A 
HETATM   20  N   UNL     1       7.158  26.746  56.346  1.00  0.00    -0.171 NA
HETATM   21  N   UNL     1       5.890  26.321  56.420  1.00  0.00    -0.286 N 
HETATM   22  H   UNL     1       5.675  25.387  56.090  1.00  0.00     0.188 HD
HETATM   23  C   UNL     1       5.035  27.236  56.941  1.00  0.00     0.141 A 
BRANCH  19  24
HETATM   24  C   UNL     1       8.344  28.819  56.929  1.00  0.00     0.089 A 
HETATM   25  N   UNL     1       8.667  29.319  58.151  1.00  0.00    -0.259 NA
HETATM   26  C   UNL     1       9.800  30.050  58.237  1.00  0.00     0.117 A 
HETATM   27  C   UNL     1      10.638  30.316  57.168  1.00  0.00     0.019 A 
HETATM   28  C   UNL     1      10.293  29.806  55.925  1.00  0.00     0.004 A 
HETATM   29  C   UNL     1       9.131  29.050  55.800  1.00  0.00     0.034 A 
ENDBRANCH  19  24
ENDBRANCH  14  18
ENDBRANCH   6  12
ENDBRANCH   4   5
ENDBRANCH   3   4
TORSDOF 5
ENDMDL
MODEL 6
REMARK VINA RESULT:      -7.5      3.767      6.047
REMARK  5 active torsions:
REMARK  status: ('A' for Active; 'I' for Inactive)
REMARK    1  A    between atoms: C_3  and  O_4 
REMARK    2  A    between atoms: O_4  and  C_5 
REMARK    3  A    between atoms: C_6  and  N_7 
REMARK       I    between atoms: N_7  and  C_8 
REMARK       I    between atoms: C_8  and  N_9 
REMARK    4  A    between atoms: N_9  and  C_10 
REMARK    5  A    between atoms: C_11  and  C_12 
ROOT
HETATM    1  C   UNL     1      -0.198  31.591  49.975  1.00  0.00     0.014 C 
HETATM    2  C   UNL     1       0.610  30.703  49.981  1.00  0.00    -0.091 C 
HETATM    3  C   UNL     1       1.598  29.618  49.993  1.00  0.00     0.268 C 
ENDROOT
BRANCH   3   4
HETATM    4  O   UNL     1       2.443  29.739  48.842  1.00  0.00    -0.337 OA
BRANCH   4   5
HETATM    5  C   UNL     1       2.885  28.533  48.367  1.00  0.00     0.099 A 
HETATM    6  C   UNL     1       4.122  28.043  48.813  1.00  0.00     0.070 A 
HETATM    7  C   UNL     1       4.499  26.738  48.459  1.00  0.00     0.035 A 
HETATM    8  C   UNL     1       3.712  25.977  47.596  1.00  0.00     0.044 A 
HETATM    9  C   UNL     1       2.534  26.514  47.099  1.00  0.00     0.119 A 
HETATM   10  F   UNL     1       1.783  25.794  46.256  1.00  0.00    -0.206 F 
HETATM   11  C   UNL     1       2.110  27.781  47.477  1.00  0.00     0.081 A 
BRANCH   6  12
HETATM   12  N   UNL     1       5.012  28.731  49.657  1.00  0.00    -0.306 N 
HETATM   13  C   UNL     1       5.371  28.565  50.964  1.00  0.00     0.325 C 
HETATM   14  N   UNL     1       4.778  27.575  51.689  1.00  0.00    -0.305 N 
HETATM   15  O   UNL     1       6.126  29.427  51.425  1.00  0.00    -0.247 OA
HETATM   16  H   UNL     1       4.462  26.734  51.209  1.00  0.00     0.171 HD
HETATM   17  H   UNL     1       5.295  29.658  49.360  1.00  0.00     0.171 HD
BRANCH  14  18
HETATM   18  C   UNL     1       4.738  27.524  53.077  1.00  0.00     0.086 A 
HETATM   19  C   UNL     1       5.403  26.603  53.956  1.00  0.00     0.133 A 
HETATM   20  N   UNL     1       5.085  26.867  55.244  1.00  0.00    -0.171 NA
HETATM   21  N   UNL     1       4.245  27.907  55.175  1.00  0.00    -0.286 N 
HETATM   22  H   UNL     1       3.864  28.275  56.039  1.00  0.00     0.188 HD
HETATM   23  C   UNL     1       4.006  28.336  53.911  1.00  0.00     0.141 A 
BRANCH  19  24
HETATM   24  C   UNL     1       6.325  25.510  53.610  1.00  0.00     0.089 A 
HETATM   25  N   UNL     1       7.039  25.641  52.461  1.00  0.00    -0.259 NA
HETATM   26  C   UNL     1       7.901  24.647  52.154  1.00  0.00     0.117 A 
HETATM   27  C   UNL     1       8.096  23.518  52.932  1.00  0.00     0.019 A 
HETATM   28  C   UNL     1       7.355  23.393  54.099  1.00  0.00     0.004 A 
HETATM   29  C   UNL     1       6.457  24.399  54.444  1.00  0.00     0.034 A 
ENDBRANCH  19  24
ENDBRANCH  14  18
ENDBRANCH   6  12
ENDBRANCH   4   5
ENDBRANCH   3   4
TORSDOF 5
ENDMDL
MODEL 7
REMARK VINA RESULT:      -7.4      3.116      7.598
REMARK  5 active torsions:
REMARK  status: ('A' for Active; 'I' for Inactive)
REMARK    1  A    between atoms: C_3  and  O_4 
REMARK    2  A    between atoms: O_4  and  C_5 
REMARK    3  A    between atoms: C_6  and  N_7 
REMARK       I    between atoms: N_7  and  C_8 
REMARK       I    between atoms: C_8  and  N_9 
REMARK    4  A    between atoms: N_9  and  C_10 
REMARK    5  A    between atoms: C_11  and  C_12 
ROOT
HETATM    1  C   UNL     1       8.811  32.288  62.249  1.00  0.00     0.014 C 
HETATM    2  C   UNL     1       8.105  32.105  61.297  1.00  0.00    -0.091 C 
HETATM    3  C   UNL     1       7.238  31.877  60.134  1.00  0.00     0.268 C 
ENDROOT
BRANCH   3   4
HETATM    4  O   UNL     1       7.961  32.199  58.940  1.00  0.00    -0.337 OA
BRANCH   4   5
HETATM    5  C   UNL     1       8.606  31.121  58.393  1.00  0.00     0.099 A 
HETATM    6  C   UNL     1       7.846  30.020  57.972  1.00  0.00     0.070 A 
HETATM    7  C   UNL     1       8.484  28.990  57.262  1.00  0.00     0.035 A 
HETATM    8  C   UNL     1       9.865  29.006  57.068  1.00  0.00     0.044 A 
HETATM    9  C   UNL     1      10.609  30.065  57.568  1.00  0.00     0.119 A 
HETATM   10  F   UNL     1      11.937  30.076  57.399  1.00  0.00    -0.206 F 
HETATM   11  C   UNL     1       9.995  31.123  58.224  1.00  0.00     0.081 A 
BRANCH   6  12
HETATM   12  N   UNL     1       6.457  29.879  58.142  1.00  0.00    -0.306 N 
HETATM   13  C   UNL     1       5.434  29.629  57.272  1.00  0.00     0.325 C 
HETATM   14  N   UNL     1       5.715  29.505  55.944  1.00  0.00    -0.305 N 
HETATM   15  O   UNL     1       4.299  29.665  57.756  1.00  0.00    -0.247 OA
HETATM   16  H   UNL     1       6.627  29.150  55.664  1.00  0.00     0.171 HD
HETATM   17  H   UNL     1       6.066  30.238  59.005  1.00  0.00     0.171 HD
BRANCH  14  18
HETATM   18  C   UNL     1       4.783  29.639  54.920  1.00  0.00     0.086 A 
HETATM   19  C   UNL     1       4.407  28.675  53.924  1.00  0.00     0.133 A 
HETATM   20  N   UNL     1       3.486  29.199  53.085  1.00  0.00    -0.171 NA
HETATM   21  N   UNL     1       3.298  30.447  53.531  1.00  0.00    -0.286 N 
HETATM   22  H   UNL     1       2.642  31.042  53.037  1.00  0.00     0.188 HD
HETATM   23  C   UNL     1       4.045  30.759  54.620  1.00  0.00     0.141 A 
BRANCH  19  24
HETATM   24  C   UNL     1       4.881  27.291  53.763  1.00  0.00     0.089 A 
HETATM   25  N   UNL     1       5.420  26.689  54.856  1.00  0.00    -0.259 NA
HETATM   26  C   UNL     1       5.835  25.411  54.712  1.00  0.00     0.117 A 
HETATM   27  C   UNL     1       5.748  24.691  53.533  1.00  0.00     0.019 A 
HETATM   28  C   UNL     1       5.203  25.321  52.423  1.00  0.00     0.004 A 
HETATM   29  C   UNL     1       4.765  26.638  52.535  1.00  0.00     0.034 A 
ENDBRANCH  19  24
ENDBRANCH  14  18
ENDBRANCH   6  12
ENDBRANCH   4   5
ENDBRANCH   3   4
TORSDOF 5
ENDMDL
MODEL 8
REMARK VINA RESULT:      -7.3      2.824      4.555
REMARK  5 active torsions:
REMARK  status: ('A' for Active; 'I' for Inactive)
REMARK    1  A    between atoms: C_3  and  O_4 
REMARK    2  A    between atoms: O_4  and  C_5 
REMARK    3  A    between atoms: C_6  and  N_7 
REMARK       I    between atoms: N_7  and  C_8 
REMARK       I    between atoms: C_8  and  N_9 
REMARK    4  A    between atoms: N_9  and  C_10 
REMARK    5  A    between atoms: C_11  and  C_12 
ROOT
HETATM    1  C   UNL     1       9.411  22.295  54.950  1.00  0.00     0.014 C 
HETATM    2  C   UNL     1       8.573  23.051  55.360  1.00  0.00    -0.091 C 
HETATM    3  C   UNL     1       7.545  23.970  55.862  1.00  0.00     0.268 C 
ENDROOT
BRANCH   3   4
HETATM    4  O   UNL     1       7.812  25.288  55.367  1.00  0.00    -0.337 OA
BRANCH   4   5
HETATM    5  C   UNL     1       6.937  25.686  54.392  1.00  0.00     0.099 A 
HETATM    6  C   UNL     1       7.103  26.951  53.808  1.00  0.00     0.070 A 
HETATM    7  C   UNL     1       6.314  27.292  52.698  1.00  0.00     0.035 A 
HETATM    8  C   UNL     1       5.311  26.437  52.245  1.00  0.00     0.044 A 
HETATM    9  C   UNL     1       5.106  25.226  52.892  1.00  0.00     0.119 A 
HETATM   10  F   UNL     1       4.132  24.409  52.472  1.00  0.00    -0.206 F 
HETATM   11  C   UNL     1       5.909  24.840  53.957  1.00  0.00     0.081 A 
BRANCH   6  12
HETATM   12  N   UNL     1       8.057  27.907  54.200  1.00  0.00    -0.306 N 
HETATM   13  C   UNL     1       8.219  28.648  55.336  1.00  0.00     0.325 C 
HETATM   14  N   UNL     1       7.302  28.527  56.337  1.00  0.00    -0.305 N 
HETATM   15  O   UNL     1       9.132  29.479  55.306  1.00  0.00    -0.247 OA
HETATM   16  H   UNL     1       6.817  27.640  56.456  1.00  0.00     0.171 HD
HETATM   17  H   UNL     1       8.616  28.320  53.463  1.00  0.00     0.171 HD
BRANCH  14  18
HETATM   18  C   UNL     1       7.107  29.459  57.350  1.00  0.00     0.086 A 
HETATM   19  C   UNL     1       6.126  30.506  57.422  1.00  0.00     0.133 A 
HETATM   20  N   UNL     1       6.283  31.221  58.559  1.00  0.00    -0.171 NA
HETATM   21  N   UNL     1       7.327  30.651  59.172  1.00  0.00    -0.286 N 
HETATM   22  H   UNL     1       7.635  31.036  60.058  1.00  0.00     0.188 HD
HETATM   23  C   UNL     1       7.853  29.599  58.496  1.00  0.00     0.141 A 
BRANCH  19  24
HETATM   24  C   UNL     1       5.058  30.828  56.463  1.00  0.00     0.089 A 
HETATM   25  N   UNL     1       4.918  30.005  55.391  1.00  0.00    -0.259 NA
HETATM   26  C   UNL     1       3.922  30.290  54.522  1.00  0.00     0.117 A 
HETATM   27  C   UNL     1       3.051  31.357  54.658  1.00  0.00     0.019 A 
HETATM   28  C   UNL     1       3.211  32.194  55.754  1.00  0.00     0.004 A 
HETATM   29  C   UNL     1       4.226  31.931  56.668  1.00  0.00     0.034 A 
ENDBRANCH  19  24
ENDBRANCH  14  18
ENDBRANCH   6  12
ENDBRANCH   4   5
ENDBRANCH   3   4
TORSDOF 5
ENDMDL
MODEL 9
REMARK VINA RESULT:      -7.3      3.435      6.900
REMARK  5 active torsions:
REMARK  status: ('A' for Active; 'I' for Inactive)
REMARK    1  A    between atoms: C_3  and  O_4 
REMARK    2  A    between atoms: O_4  and  C_5 
REMARK    3  A    between atoms: C_6  and  N_7 
REMARK       I    between atoms: N_7  and  C_8 
REMARK       I    between atoms: C_8  and  N_9 
REMARK    4  A    between atoms: N_9  and  C_10 
REMARK    5  A    between atoms: C_11  and  C_12 
ROOT
HETATM    1  C   UNL     1       9.112  30.458  61.685  1.00  0.00     0.014 C 
HETATM    2  C   UNL     1       8.678  31.125  60.786  1.00  0.00    -0.091 C 
HETATM    3  C   UNL     1       8.146  31.944  59.691  1.00  0.00     0.268 C 
ENDROOT
BRANCH   3   4
HETATM    4  O   UNL     1       7.857  31.100  58.571  1.00  0.00    -0.337 OA
BRANCH   4   5
HETATM    5  C   UNL     1       6.540  31.130  58.197  1.00  0.00     0.099 A 
HETATM    6  C   UNL     1       6.161  30.503  57.000  1.00  0.00     0.070 A 
HETATM    7  C   UNL     1       4.795  30.389  56.699  1.00  0.00     0.035 A 
HETATM    8  C   UNL     1       3.832  30.976  57.519  1.00  0.00     0.044 A 
HETATM    9  C   UNL     1       4.234  31.664  58.654  1.00  0.00     0.119 A 
HETATM   10  F   UNL     1       3.314  32.245  59.435  1.00  0.00    -0.206 F 
HETATM   11  C   UNL     1       5.575  31.745  59.004  1.00  0.00     0.081 A 
BRANCH   6  12
HETATM   12  N   UNL     1       7.044  29.907  56.081  1.00  0.00    -0.306 N 
HETATM   13  C   UNL     1       7.366  28.607  55.811  1.00  0.00     0.325 C 
HETATM   14  N   UNL     1       6.788  27.618  56.550  1.00  0.00    -0.305 N 
HETATM   15  O   UNL     1       8.271  28.441  54.988  1.00  0.00    -0.247 OA
HETATM   16  H   UNL     1       5.857  27.770  56.934  1.00  0.00     0.171 HD
HETATM   17  H   UNL     1       7.756  30.506  55.680  1.00  0.00     0.171 HD
BRANCH  14  18
HETATM   18  C   UNL     1       7.282  26.324  56.666  1.00  0.00     0.086 A 
HETATM   19  C   UNL     1       7.228  25.258  55.705  1.00  0.00     0.133 A 
HETATM   20  N   UNL     1       7.795  24.139  56.209  1.00  0.00    -0.171 NA
HETATM   21  N   UNL     1       8.181  24.486  57.443  1.00  0.00    -0.286 N 
HETATM   22  H   UNL     1       8.632  23.785  58.021  1.00  0.00     0.188 HD
HETATM   23  C   UNL     1       7.901  25.773  57.764  1.00  0.00     0.141 A 
BRANCH  19  24
HETATM   24  C   UNL     1       6.675  25.282  54.341  1.00  0.00     0.089 A 
HETATM   25  N   UNL     1       7.537  25.551  53.326  1.00  0.00    -0.259 NA
HETATM   26  C   UNL     1       7.032  25.551  52.073  1.00  0.00     0.117 A 
HETATM   27  C   UNL     1       5.706  25.299  51.768  1.00  0.00     0.019 A 
HETATM   28  C   UNL     1       4.834  25.033  52.815  1.00  0.00     0.004 A 
HETATM   29  C   UNL     1       5.321  25.026  54.119  1.00  0.00     0.034 A 
ENDBRANCH  19  24
ENDBRANCH  14  18
ENDBRANCH   6  12
ENDBRANCH   4   5
ENDBRANCH   3   4
TORSDOF 5
ENDMDL
MODEL 10
REMARK VINA RESULT:      -7.3      3.755      6.181
REMARK  5 active torsions:
REMARK  status: ('A' for Active; 'I' for Inactive)
REMARK    1  A    between atoms: C_3  and  O_4 
REMARK    2  A    between atoms: O_4  and  C_5 
REMARK    3  A    between atoms: C_6  and  N_7 
REMARK       I    between atoms: N_7  and  C_8 
REMARK       I    between atoms: C_8  and  N_9 
REMARK    4  A    between atoms: N_9  and  C_10 
REMARK    5  A    between atoms: C_11  and  C_12 
ROOT
HETATM    1  C   UNL     1       3.600  31.984  46.053  1.00  0.00     0.014 C 
HETATM    2  C   UNL     1       2.845  31.251  46.631  1.00  0.00    -0.091 C 
HETATM    3  C   UNL     1       1.918  30.358  47.335  1.00  0.00     0.268 C 
ENDROOT
BRANCH   3   4
HETATM    4  O   UNL     1       2.607  29.729  48.422  1.00  0.00    -0.337 OA
BRANCH   4   5
HETATM    5  C   UNL     1       3.025  28.457  48.133  1.00  0.00     0.099 A 
HETATM    6  C   UNL     1       4.180  27.965  48.759  1.00  0.00     0.070 A 
HETATM    7  C   UNL     1       4.516  26.612  48.593  1.00  0.00     0.035 A 
HETATM    8  C   UNL     1       3.777  25.793  47.739  1.00  0.00     0.044 A 
HETATM    9  C   UNL     1       2.688  26.324  47.063  1.00  0.00     0.119 A 
HETATM   10  F   UNL     1       1.987  25.546  46.228  1.00  0.00    -0.206 F 
HETATM   11  C   UNL     1       2.302  27.643  47.252  1.00  0.00     0.081 A 
BRANCH   6  12
HETATM   12  N   UNL     1       5.018  28.705  49.613  1.00  0.00    -0.306 N 
HETATM   13  C   UNL     1       5.351  28.574  50.931  1.00  0.00     0.325 C 
HETATM   14  N   UNL     1       4.783  27.570  51.657  1.00  0.00    -0.305 N 
HETATM   15  O   UNL     1       6.056  29.475  51.397  1.00  0.00    -0.247 OA
HETATM   16  H   UNL     1       4.516  26.709  51.184  1.00  0.00     0.171 HD
HETATM   17  H   UNL     1       5.268  29.638  49.308  1.00  0.00     0.171 HD
BRANCH  14  18
HETATM   18  C   UNL     1       4.710  27.539  53.046  1.00  0.00     0.086 A 
HETATM   19  C   UNL     1       5.369  26.641  53.954  1.00  0.00     0.133 A 
HETATM   20  N   UNL     1       5.016  26.918  55.229  1.00  0.00    -0.171 NA
HETATM   21  N   UNL     1       4.161  27.943  55.125  1.00  0.00    -0.286 N 
HETATM   22  H   UNL     1       3.753  28.318  55.974  1.00  0.00     0.188 HD
HETATM   23  C   UNL     1       3.945  28.351  53.849  1.00  0.00     0.141 A 
BRANCH  19  24
HETATM   24  C   UNL     1       6.317  25.559  53.646  1.00  0.00     0.089 A 
HETATM   25  N   UNL     1       6.832  25.525  52.388  1.00  0.00    -0.259 NA
HETATM   26  C   UNL     1       7.719  24.543  52.113  1.00  0.00     0.117 A 
HETATM   27  C   UNL     1       8.126  23.584  53.024  1.00  0.00     0.019 A 
HETATM   28  C   UNL     1       7.587  23.626  54.302  1.00  0.00     0.004 A 
HETATM   29  C   UNL     1       6.670  24.624  54.620  1.00  0.00     0.034 A 
ENDBRANCH  19  24
ENDBRANCH  14  18
ENDBRANCH   6  12
ENDBRANCH   4   5
ENDBRANCH   3   4
TORSDOF 5
ENDMDL
