MODEL 1
REMARK VINA RESULT:     -10.6      0.000      0.000
REMARK  7 active torsions:
REMARK  status: ('A' for Active; 'I' for Inactive)
REMARK    1  A    between atoms: O_2  and  C_3 
REMARK    2  A    between atoms: C_6  and  C_7 
REMARK    3  A    between atoms: C_11  and  C_12 
REMARK       I    between atoms: C_12  and  N_13 
REMARK    4  A    between atoms: N_13  and  N_14 
REMARK       I    between atoms: N_14  and  C_15 
REMARK    5  A    between atoms: C_15  and  C_16 
REMARK    6  A    between atoms: C_16  and  C_17 
REMARK    7  A    between atoms: C_17  and  C_18 
ROOT
HETATM    1  C   UNL     1       9.116  29.403  57.608  1.00  0.00     0.288 C 
HETATM    2  N   UNL     1       8.207  28.370  57.691  1.00  0.00    -0.262 N 
HETATM    3  O   UNL     1       9.986  29.438  56.739  1.00  0.00    -0.264 OA
HETATM    4  H   UNL     1       7.373  28.433  58.271  1.00  0.00     0.190 HD
ENDROOT
BRANCH   1   5
HETATM    5  C   UNL     1       8.960  30.432  58.600  1.00  0.00     0.121 A 
HETATM    6  N   UNL     1       9.672  31.598  58.556  1.00  0.00    -0.272 N 
HETATM    7  N   UNL     1       9.381  32.458  59.544  1.00  0.00    -0.174 NA
HETATM    8  H   UNL     1      10.365  31.864  57.863  1.00  0.00     0.189 HD
HETATM    9  C   UNL     1       8.454  31.827  60.284  1.00  0.00     0.089 A 
HETATM   10  C   UNL     1       8.167  30.551  59.723  1.00  0.00     0.071 A 
BRANCH   9  11
HETATM   11  C   UNL     1       7.857  32.443  61.474  1.00  0.00    -0.005 A 
HETATM   12  C   UNL     1       8.413  32.229  62.743  1.00  0.00     0.016 A 
HETATM   13  C   UNL     1       7.872  32.838  63.883  1.00  0.00     0.037 A 
HETATM   14  C   UNL     1       6.760  33.670  63.771  1.00  0.00     0.068 A 
HETATM   15  C   UNL     1       6.187  33.872  62.514  1.00  0.00     0.037 A 
HETATM   16  C   UNL     1       6.729  33.267  61.375  1.00  0.00     0.016 A 
BRANCH  14  17
HETATM   17  O   UNL     1       6.140  34.331  64.794  1.00  0.00    -0.356 OA
HETATM   18  C   UNL     1       5.003  33.699  65.368  1.00  0.00     0.210 C 
ENDBRANCH  14  17
ENDBRANCH   9  11
ENDBRANCH   1   5
BRANCH   2  19
HETATM   19  N   UNL     1       8.138  27.434  56.645  1.00  0.00    -0.267 N 
HETATM   20  C   UNL     1       8.031  26.106  57.012  1.00  0.00     0.236 C 
HETATM   21  O   UNL     1       8.143  25.739  58.180  1.00  0.00    -0.272 OA
HETATM   22  H   UNL     1       7.794  27.781  55.751  1.00  0.00     0.190 HD
BRANCH  20  23
HETATM   23  C   UNL     1       7.821  25.171  55.842  1.00  0.00     0.109 C 
BRANCH  23  24
HETATM   24  C   UNL     1       7.457  23.765  56.319  1.00  0.00     0.051 C 
BRANCH  24  25
HETATM   25  C   UNL     1       7.666  22.716  55.257  1.00  0.00    -0.019 A 
HETATM   26  C   UNL     1       7.898  21.381  55.599  1.00  0.00     0.122 A 
HETATM   27  F   UNL     1       7.928  21.019  56.891  1.00  0.00    -0.206 F 
HETATM   28  C   UNL     1       8.101  20.406  54.626  1.00  0.00     0.043 A 
HETATM   29  C   UNL     1       8.079  20.762  53.279  1.00  0.00     0.003 A 
HETATM   30  C   UNL     1       7.853  22.090  52.917  1.00  0.00     0.001 A 
HETATM   31  C   UNL     1       7.647  23.063  53.898  1.00  0.00     0.010 A 
ENDBRANCH  24  25
ENDBRANCH  23  24
ENDBRANCH  20  23
ENDBRANCH   2  19
TORSDOF 7
ENDMDL
MODEL 2
REMARK VINA RESULT:     -10.0      3.043     11.419
REMARK  7 active torsions:
REMARK  status: ('A' for Active; 'I' for Inactive)
REMARK    1  A    between atoms: O_2  and  C_3 
REMARK    2  A    between atoms: C_6  and  C_7 
REMARK    3  A    between atoms: C_11  and  C_12 
REMARK       I    between atoms: C_12  and  N_13 
REMARK    4  A    between atoms: N_13  and  N_14 
REMARK       I    between atoms: N_14  and  C_15 
REMARK    5  A    between atoms: C_15  and  C_16 
REMARK    6  A    between atoms: C_16  and  C_17 
REMARK    7  A    between atoms: C_17  and  C_18 
ROOT
HETATM    1  C   UNL     1       8.382  29.022  57.877  1.00  0.00     0.288 C 
HETATM    2  N   UNL     1       7.425  29.490  58.753  1.00  0.00    -0.262 N 
HETATM    3  O   UNL     1       9.524  29.479  57.854  1.00  0.00    -0.264 OA
HETATM    4  H   UNL     1       6.553  28.989  58.914  1.00  0.00     0.190 HD
ENDROOT
BRANCH   1   5
HETATM    5  C   UNL     1       7.948  27.960  57.010  1.00  0.00     0.121 A 
HETATM    6  N   UNL     1       7.027  28.159  56.021  1.00  0.00    -0.272 N 
HETATM    7  N   UNL     1       6.759  27.066  55.290  1.00  0.00    -0.174 NA
HETATM    8  H   UNL     1       6.554  29.029  55.793  1.00  0.00     0.189 HD
HETATM    9  C   UNL     1       7.519  26.100  55.830  1.00  0.00     0.089 A 
HETATM   10  C   UNL     1       8.277  26.623  56.915  1.00  0.00     0.071 A 
BRANCH   9  11
HETATM   11  C   UNL     1       7.526  24.730  55.306  1.00  0.00    -0.005 A 
HETATM   12  C   UNL     1       7.452  24.495  53.925  1.00  0.00     0.016 A 
HETATM   13  C   UNL     1       7.492  23.192  53.409  1.00  0.00     0.037 A 
HETATM   14  C   UNL     1       7.603  22.102  54.270  1.00  0.00     0.068 A 
HETATM   15  C   UNL     1       7.655  22.326  55.646  1.00  0.00     0.037 A 
HETATM   16  C   UNL     1       7.619  23.626  56.162  1.00  0.00     0.016 A 
BRANCH  14  17
HETATM   17  O   UNL     1       7.661  20.787  53.902  1.00  0.00    -0.356 OA
HETATM   18  C   UNL     1       8.478  20.471  52.782  1.00  0.00     0.210 C 
ENDBRANCH  14  17
ENDBRANCH   9  11
ENDBRANCH   1   5
BRANCH   2  19
HETATM   19  N   UNL     1       7.808  30.368  59.779  1.00  0.00    -0.267 N 
HETATM   20  C   UNL     1       7.465  31.696  59.615  1.00  0.00     0.236 C 
HETATM   21  O   UNL     1       6.989  32.124  58.565  1.00  0.00    -0.272 OA
HETATM   22  H   UNL     1       7.950  29.953  60.699  1.00  0.00     0.190 HD
BRANCH  20  23
HETATM   23  C   UNL     1       7.784  32.557  60.818  1.00  0.00     0.109 C 
BRANCH  23  24
HETATM   24  C   UNL     1       7.754  31.735  62.106  1.00  0.00     0.051 C 
BRANCH  24  25
HETATM   25  C   UNL     1       7.068  32.452  63.240  1.00  0.00    -0.019 A 
HETATM   26  C   UNL     1       5.676  32.432  63.368  1.00  0.00     0.122 A 
HETATM   27  F   UNL     1       4.934  31.760  62.476  1.00  0.00    -0.206 F 
HETATM   28  C   UNL     1       5.033  33.100  64.407  1.00  0.00     0.043 A 
HETATM   29  C   UNL     1       5.785  33.809  65.341  1.00  0.00     0.003 A 
HETATM   30  C   UNL     1       7.175  33.844  65.229  1.00  0.00     0.001 A 
HETATM   31  C   UNL     1       7.815  33.169  64.186  1.00  0.00     0.010 A 
ENDBRANCH  24  25
ENDBRANCH  23  24
ENDBRANCH  20  23
ENDBRANCH   2  19
TORSDOF 7
ENDMDL
MODEL 3
REMARK VINA RESULT:      -9.9      1.480      1.986
REMARK  7 active torsions:
REMARK  status: ('A' for Active; 'I' for Inactive)
REMARK    1  A    between atoms: O_2  and  C_3 
REMARK    2  A    between atoms: C_6  and  C_7 
REMARK    3  A    between atoms: C_11  and  C_12 
REMARK       I    between atoms: C_12  and  N_13 
REMARK    4  A    between atoms: N_13  and  N_14 
REMARK       I    between atoms: N_14  and  C_15 
REMARK    5  A    between atoms: C_15  and  C_16 
REMARK    6  A    between atoms: C_16  and  C_17 
REMARK    7  A    between atoms: C_17  and  C_18 
ROOT
HETATM    1  C   UNL     1       8.386  30.015  58.842  1.00  0.00     0.288 C 
HETATM    2  N   UNL     1       7.644  28.871  58.640  1.00  0.00    -0.262 N 
HETATM    3  O   UNL     1       9.136  30.468  57.978  1.00  0.00    -0.264 OA
HETATM    4  H   UNL     1       6.883  28.607  59.262  1.00  0.00     0.190 HD
ENDROOT
BRANCH   1   5
HETATM    5  C   UNL     1       8.207  30.638  60.126  1.00  0.00     0.121 A 
HETATM    6  N   UNL     1       8.949  30.284  61.217  1.00  0.00    -0.272 N 
HETATM    7  N   UNL     1       8.669  30.987  62.325  1.00  0.00    -0.174 NA
HETATM    8  H   UNL     1       9.672  29.571  61.258  1.00  0.00     0.189 HD
HETATM    9  C   UNL     1       7.688  31.826  61.958  1.00  0.00     0.089 A 
HETATM   10  C   UNL     1       7.368  31.634  60.584  1.00  0.00     0.071 A 
BRANCH   9  11
HETATM   11  C   UNL     1       7.096  32.789  62.893  1.00  0.00    -0.005 A 
HETATM   12  C   UNL     1       5.984  33.557  62.518  1.00  0.00     0.016 A 
HETATM   13  C   UNL     1       5.389  34.456  63.414  1.00  0.00     0.037 A 
HETATM   14  C   UNL     1       5.901  34.603  64.702  1.00  0.00     0.068 A 
HETATM   15  C   UNL     1       7.021  33.858  65.076  1.00  0.00     0.037 A 
HETATM   16  C   UNL     1       7.613  32.958  64.184  1.00  0.00     0.016 A 
BRANCH  14  17
HETATM   17  O   UNL     1       5.415  35.432  65.673  1.00  0.00    -0.356 OA
HETATM   18  C   UNL     1       4.094  35.924  65.492  1.00  0.00     0.210 C 
ENDBRANCH  14  17
ENDBRANCH   9  11
ENDBRANCH   1   5
BRANCH   2  19
HETATM   19  N   UNL     1       7.585  28.314  57.351  1.00  0.00    -0.267 N 
HETATM   20  C   UNL     1       7.651  26.936  57.271  1.00  0.00     0.236 C 
HETATM   21  O   UNL     1       7.903  26.235  58.249  1.00  0.00    -0.272 OA
HETATM   22  H   UNL     1       7.129  28.880  56.636  1.00  0.00     0.190 HD
BRANCH  20  23
HETATM   23  C   UNL     1       7.440  26.402  55.872  1.00  0.00     0.109 C 
BRANCH  23  24
HETATM   24  C   UNL     1       6.729  25.048  55.900  1.00  0.00     0.051 C 
BRANCH  24  25
HETATM   25  C   UNL     1       7.446  23.995  55.096  1.00  0.00    -0.019 A 
HETATM   26  C   UNL     1       8.524  23.286  55.634  1.00  0.00     0.122 A 
HETATM   27  F   UNL     1       8.925  23.536  56.889  1.00  0.00    -0.206 F 
HETATM   28  C   UNL     1       9.198  22.318  54.895  1.00  0.00     0.043 A 
HETATM   29  C   UNL     1       8.800  22.048  53.587  1.00  0.00     0.003 A 
HETATM   30  C   UNL     1       7.729  22.748  53.030  1.00  0.00     0.001 A 
HETATM   31  C   UNL     1       7.055  23.715  53.778  1.00  0.00     0.010 A 
ENDBRANCH  24  25
ENDBRANCH  23  24
ENDBRANCH  20  23
ENDBRANCH   2  19
TORSDOF 7
ENDMDL
MODEL 4
REMARK VINA RESULT:      -9.7      3.562     11.470
REMARK  7 active torsions:
REMARK  status: ('A' for Active; 'I' for Inactive)
REMARK    1  A    between atoms: O_2  and  C_3 
REMARK    2  A    between atoms: C_6  and  C_7 
REMARK    3  A    between atoms: C_11  and  C_12 
REMARK       I    between atoms: C_12  and  N_13 
REMARK    4  A    between atoms: N_13  and  N_14 
REMARK       I    between atoms: N_14  and  C_15 
REMARK    5  A    between atoms: C_15  and  C_16 
REMARK    6  A    between atoms: C_16  and  C_17 
REMARK    7  A    between atoms: C_17  and  C_18 
ROOT
HETATM    1  C   UNL     1       6.819  29.436  57.512  1.00  0.00     0.288 C 
HETATM    2  N   UNL     1       7.712  29.336  58.558  1.00  0.00    -0.262 N 
HETATM    3  O   UNL     1       5.915  30.269  57.503  1.00  0.00    -0.264 OA
HETATM    4  H   UNL     1       8.570  28.794  58.483  1.00  0.00     0.190 HD
ENDROOT
BRANCH   1   5
HETATM    5  C   UNL     1       7.036  28.507  56.436  1.00  0.00     0.121 A 
HETATM    6  N   UNL     1       7.276  28.919  55.156  1.00  0.00    -0.272 N 
HETATM    7  N   UNL     1       7.483  27.919  54.285  1.00  0.00    -0.174 NA
HETATM    8  H   UNL     1       7.320  29.877  54.821  1.00  0.00     0.189 HD
HETATM    9  C   UNL     1       7.354  26.799  55.014  1.00  0.00     0.089 A 
HETATM   10  C   UNL     1       7.069  27.128  56.369  1.00  0.00     0.071 A 
BRANCH   9  11
HETATM   11  C   UNL     1       7.518  25.465  54.427  1.00  0.00    -0.005 A 
HETATM   12  C   UNL     1       7.667  25.309  53.042  1.00  0.00     0.016 A 
HETATM   13  C   UNL     1       7.859  24.042  52.472  1.00  0.00     0.037 A 
HETATM   14  C   UNL     1       7.901  22.909  53.283  1.00  0.00     0.068 A 
HETATM   15  C   UNL     1       7.732  23.054  54.661  1.00  0.00     0.037 A 
HETATM   16  C   UNL     1       7.545  24.318  55.231  1.00  0.00     0.016 A 
BRANCH  14  17
HETATM   17  O   UNL     1       8.089  21.623  52.862  1.00  0.00    -0.356 OA
HETATM   18  C   UNL     1       7.877  20.597  53.824  1.00  0.00     0.210 C 
ENDBRANCH  14  17
ENDBRANCH   9  11
ENDBRANCH   1   5
BRANCH   2  19
HETATM   19  N   UNL     1       7.718  30.333  59.548  1.00  0.00    -0.267 N 
HETATM   20  C   UNL     1       8.870  31.088  59.655  1.00  0.00     0.236 C 
HETATM   21  O   UNL     1       9.894  30.813  59.031  1.00  0.00    -0.272 OA
HETATM   22  H   UNL     1       6.808  30.686  59.839  1.00  0.00     0.190 HD
BRANCH  20  23
HETATM   23  C   UNL     1       8.756  32.230  60.640  1.00  0.00     0.109 C 
BRANCH  23  24
HETATM   24  C   UNL     1       7.293  32.585  60.905  1.00  0.00     0.051 C 
BRANCH  24  25
HETATM   25  C   UNL     1       7.072  33.167  62.277  1.00  0.00    -0.019 A 
HETATM   26  C   UNL     1       6.169  34.215  62.478  1.00  0.00     0.122 A 
HETATM   27  F   UNL     1       5.478  34.708  61.440  1.00  0.00    -0.206 F 
HETATM   28  C   UNL     1       5.965  34.765  63.741  1.00  0.00     0.043 A 
HETATM   29  C   UNL     1       6.677  34.271  64.832  1.00  0.00     0.003 A 
HETATM   30  C   UNL     1       7.586  33.228  64.651  1.00  0.00     0.001 A 
HETATM   31  C   UNL     1       7.783  32.677  63.383  1.00  0.00     0.010 A 
ENDBRANCH  24  25
ENDBRANCH  23  24
ENDBRANCH  20  23
ENDBRANCH   2  19
TORSDOF 7
ENDMDL
MODEL 5
REMARK VINA RESULT:      -9.4      3.430     11.421
REMARK  7 active torsions:
REMARK  status: ('A' for Active; 'I' for Inactive)
REMARK    1  A    between atoms: O_2  and  C_3 
REMARK    2  A    between atoms: C_6  and  C_7 
REMARK    3  A    between atoms: C_11  and  C_12 
REMARK       I    between atoms: C_12  and  N_13 
REMARK    4  A    between atoms: N_13  and  N_14 
REMARK       I    between atoms: N_14  and  C_15 
REMARK    5  A    between atoms: C_15  and  C_16 
REMARK    6  A    between atoms: C_16  and  C_17 
REMARK    7  A    between atoms: C_17  and  C_18 
ROOT
HETATM    1  C   UNL     1       7.511  29.661  57.479  1.00  0.00     0.288 C 
HETATM    2  N   UNL     1       6.289  30.109  57.933  1.00  0.00    -0.262 N 
HETATM    3  O   UNL     1       8.572  30.071  57.950  1.00  0.00    -0.264 OA
HETATM    4  H   UNL     1       5.420  29.635  57.693  1.00  0.00     0.190 HD
ENDROOT
BRANCH   1   5
HETATM    5  C   UNL     1       7.450  28.678  56.432  1.00  0.00     0.121 A 
HETATM    6  N   UNL     1       7.242  29.019  55.125  1.00  0.00    -0.272 N 
HETATM    7  N   UNL     1       7.242  27.979  54.278  1.00  0.00    -0.174 NA
HETATM    8  H   UNL     1       7.104  29.954  54.753  1.00  0.00     0.189 HD
HETATM    9  C   UNL     1       7.436  26.903  55.057  1.00  0.00     0.089 A 
HETATM   10  C   UNL     1       7.568  27.303  56.417  1.00  0.00     0.071 A 
BRANCH   9  11
HETATM   11  C   UNL     1       7.512  25.546  54.507  1.00  0.00    -0.005 A 
HETATM   12  C   UNL     1       7.270  24.431  55.323  1.00  0.00     0.016 A 
HETATM   13  C   UNL     1       7.306  23.130  54.802  1.00  0.00     0.037 A 
HETATM   14  C   UNL     1       7.588  22.925  53.452  1.00  0.00     0.068 A 
HETATM   15  C   UNL     1       7.850  24.028  52.638  1.00  0.00     0.037 A 
HETATM   16  C   UNL     1       7.811  25.326  53.157  1.00  0.00     0.016 A 
BRANCH  14  17
HETATM   17  O   UNL     1       7.645  21.717  52.815  1.00  0.00    -0.356 OA
HETATM   18  C   UNL     1       8.126  20.616  53.575  1.00  0.00     0.210 C 
ENDBRANCH  14  17
ENDBRANCH   9  11
ENDBRANCH   1   5
BRANCH   2  19
HETATM   19  N   UNL     1       6.238  30.900  59.093  1.00  0.00    -0.267 N 
HETATM   20  C   UNL     1       5.901  32.229  58.918  1.00  0.00     0.236 C 
HETATM   21  O   UNL     1       5.800  32.737  57.803  1.00  0.00    -0.272 OA
HETATM   22  H   UNL     1       6.071  30.407  59.969  1.00  0.00     0.190 HD
BRANCH  20  23
HETATM   23  C   UNL     1       5.729  32.984  60.217  1.00  0.00     0.109 C 
BRANCH  23  24
HETATM   24  C   UNL     1       6.859  32.664  61.195  1.00  0.00     0.051 C 
BRANCH  24  25
HETATM   25  C   UNL     1       6.530  33.050  62.614  1.00  0.00    -0.019 A 
HETATM   26  C   UNL     1       7.508  33.024  63.613  1.00  0.00     0.122 A 
HETATM   27  F   UNL     1       8.763  32.661  63.308  1.00  0.00    -0.206 F 
HETATM   28  C   UNL     1       7.212  33.370  64.928  1.00  0.00     0.043 A 
HETATM   29  C   UNL     1       5.913  33.745  65.267  1.00  0.00     0.003 A 
HETATM   30  C   UNL     1       4.922  33.773  64.286  1.00  0.00     0.001 A 
HETATM   31  C   UNL     1       5.227  33.429  62.967  1.00  0.00     0.010 A 
ENDBRANCH  24  25
ENDBRANCH  23  24
ENDBRANCH  20  23
ENDBRANCH   2  19
TORSDOF 7
ENDMDL
MODEL 6
REMARK VINA RESULT:      -9.4      2.289      3.152
REMARK  7 active torsions:
REMARK  status: ('A' for Active; 'I' for Inactive)
REMARK    1  A    between atoms: O_2  and  C_3 
REMARK    2  A    between atoms: C_6  and  C_7 
REMARK    3  A    between atoms: C_11  and  C_12 
REMARK       I    between atoms: C_12  and  N_13 
REMARK    4  A    between atoms: N_13  and  N_14 
REMARK       I    between atoms: N_14  and  C_15 
REMARK    5  A    between atoms: C_15  and  C_16 
REMARK    6  A    between atoms: C_16  and  C_17 
REMARK    7  A    between atoms: C_17  and  C_18 
ROOT
HETATM    1  C   UNL     1       7.346  28.297  54.959  1.00  0.00     0.288 C 
HETATM    2  N   UNL     1       7.603  26.990  55.315  1.00  0.00    -0.262 N 
HETATM    3  O   UNL     1       7.242  28.644  53.784  1.00  0.00    -0.264 OA
HETATM    4  H   UNL     1       7.492  26.662  56.273  1.00  0.00     0.190 HD
ENDROOT
BRANCH   1   5
HETATM    5  C   UNL     1       7.197  29.210  56.059  1.00  0.00     0.121 A 
HETATM    6  N   UNL     1       6.225  30.170  56.082  1.00  0.00    -0.272 N 
HETATM    7  N   UNL     1       6.213  30.915  57.197  1.00  0.00    -0.174 NA
HETATM    8  H   UNL     1       5.531  30.353  55.363  1.00  0.00     0.189 HD
HETATM    9  C   UNL     1       7.233  30.445  57.934  1.00  0.00     0.089 A 
HETATM   10  C   UNL     1       7.876  29.375  57.250  1.00  0.00     0.071 A 
BRANCH   9  11
HETATM   11  C   UNL     1       7.559  30.994  59.254  1.00  0.00    -0.005 A 
HETATM   12  C   UNL     1       6.828  32.070  59.779  1.00  0.00     0.016 A 
HETATM   13  C   UNL     1       7.108  32.582  61.054  1.00  0.00     0.037 A 
HETATM   14  C   UNL     1       8.128  32.026  61.823  1.00  0.00     0.068 A 
HETATM   15  C   UNL     1       8.874  30.969  61.299  1.00  0.00     0.037 A 
HETATM   16  C   UNL     1       8.593  30.455  60.029  1.00  0.00     0.016 A 
BRANCH  14  17
HETATM   17  O   UNL     1       8.498  32.420  63.078  1.00  0.00    -0.356 OA
HETATM   18  C   UNL     1       7.477  32.965  63.905  1.00  0.00     0.210 C 
ENDBRANCH  14  17
ENDBRANCH   9  11
ENDBRANCH   1   5
BRANCH   2  19
HETATM   19  N   UNL     1       7.549  25.990  54.330  1.00  0.00    -0.267 N 
HETATM   20  C   UNL     1       6.418  25.196  54.318  1.00  0.00     0.236 C 
HETATM   21  O   UNL     1       5.572  25.249  55.209  1.00  0.00    -0.272 OA
HETATM   22  H   UNL     1       8.111  26.149  53.495  1.00  0.00     0.190 HD
BRANCH  20  23
HETATM   23  C   UNL     1       6.365  24.237  53.149  1.00  0.00     0.109 C 
BRANCH  23  24
HETATM   24  C   UNL     1       7.765  23.764  52.760  1.00  0.00     0.051 C 
BRANCH  24  25
HETATM   25  C   UNL     1       8.161  22.483  53.449  1.00  0.00    -0.019 A 
HETATM   26  C   UNL     1       8.826  22.503  54.678  1.00  0.00     0.122 A 
HETATM   27  F   UNL     1       9.112  23.675  55.264  1.00  0.00    -0.206 F 
HETATM   28  C   UNL     1       9.204  21.325  55.318  1.00  0.00     0.043 A 
HETATM   29  C   UNL     1       8.922  20.097  54.724  1.00  0.00     0.003 A 
HETATM   30  C   UNL     1       8.262  20.056  53.495  1.00  0.00     0.001 A 
HETATM   31  C   UNL     1       7.883  21.241  52.861  1.00  0.00     0.010 A 
ENDBRANCH  24  25
ENDBRANCH  23  24
ENDBRANCH  20  23
ENDBRANCH   2  19
TORSDOF 7
ENDMDL
MODEL 7
REMARK VINA RESULT:      -8.8      3.952     11.285
REMARK  7 active torsions:
REMARK  status: ('A' for Active; 'I' for Inactive)
REMARK    1  A    between atoms: O_2  and  C_3 
REMARK    2  A    between atoms: C_6  and  C_7 
REMARK    3  A    between atoms: C_11  and  C_12 
REMARK       I    between atoms: C_12  and  N_13 
REMARK    4  A    between atoms: N_13  and  N_14 
REMARK       I    between atoms: N_14  and  C_15 
REMARK    5  A    between atoms: C_15  and  C_16 
REMARK    6  A    between atoms: C_16  and  C_17 
REMARK    7  A    between atoms: C_17  and  C_18 
ROOT
HETATM    1  C   UNL     1       6.195  29.473  57.540  1.00  0.00     0.288 C 
HETATM    2  N   UNL     1       5.033  29.974  58.087  1.00  0.00    -0.262 N 
HETATM    3  O   UNL     1       7.219  30.149  57.451  1.00  0.00    -0.264 OA
HETATM    4  H   UNL     1       4.256  29.369  58.344  1.00  0.00     0.190 HD
ENDROOT
BRANCH   1   5
HETATM    5  C   UNL     1       6.121  28.107  57.097  1.00  0.00     0.121 A 
HETATM    6  N   UNL     1       4.951  27.401  57.108  1.00  0.00    -0.272 N 
HETATM    7  N   UNL     1       5.059  26.150  56.636  1.00  0.00    -0.174 NA
HETATM    8  H   UNL     1       4.043  27.730  57.420  1.00  0.00     0.189 HD
HETATM    9  C   UNL     1       6.357  26.015  56.318  1.00  0.00     0.089 A 
HETATM   10  C   UNL     1       7.056  27.223  56.598  1.00  0.00     0.071 A 
BRANCH   9  11
HETATM   11  C   UNL     1       6.894  24.774  55.749  1.00  0.00    -0.005 A 
HETATM   12  C   UNL     1       6.697  24.467  54.395  1.00  0.00     0.016 A 
HETATM   13  C   UNL     1       7.235  23.301  53.832  1.00  0.00     0.037 A 
HETATM   14  C   UNL     1       7.977  22.422  54.618  1.00  0.00     0.068 A 
HETATM   15  C   UNL     1       8.160  22.710  55.971  1.00  0.00     0.037 A 
HETATM   16  C   UNL     1       7.627  23.875  56.533  1.00  0.00     0.016 A 
BRANCH  14  17
HETATM   17  O   UNL     1       8.562  21.261  54.196  1.00  0.00    -0.356 OA
HETATM   18  C   UNL     1       7.993  20.636  53.052  1.00  0.00     0.210 C 
ENDBRANCH  14  17
ENDBRANCH   9  11
ENDBRANCH   1   5
BRANCH   2  19
HETATM   19  N   UNL     1       5.066  31.216  58.740  1.00  0.00    -0.267 N 
HETATM   20  C   UNL     1       3.964  31.538  59.510  1.00  0.00     0.236 C 
HETATM   21  O   UNL     1       2.942  30.854  59.507  1.00  0.00    -0.272 OA
HETATM   22  H   UNL     1       5.990  31.606  58.924  1.00  0.00     0.190 HD
BRANCH  20  23
HETATM   23  C   UNL     1       4.127  32.821  60.294  1.00  0.00     0.109 C 
BRANCH  23  24
HETATM   24  C   UNL     1       5.564  33.337  60.213  1.00  0.00     0.051 C 
BRANCH  24  25
HETATM   25  C   UNL     1       6.319  33.169  61.505  1.00  0.00    -0.019 A 
HETATM   26  C   UNL     1       6.124  34.049  62.574  1.00  0.00     0.122 A 
HETATM   27  F   UNL     1       5.247  35.057  62.456  1.00  0.00    -0.206 F 
HETATM   28  C   UNL     1       6.824  33.907  63.769  1.00  0.00     0.043 A 
HETATM   29  C   UNL     1       7.745  32.870  63.909  1.00  0.00     0.003 A 
HETATM   30  C   UNL     1       7.957  31.983  62.854  1.00  0.00     0.001 A 
HETATM   31  C   UNL     1       7.248  32.129  61.658  1.00  0.00     0.010 A 
ENDBRANCH  24  25
ENDBRANCH  23  24
ENDBRANCH  20  23
ENDBRANCH   2  19
TORSDOF 7
ENDMDL
MODEL 8
REMARK VINA RESULT:      -8.8      2.775      3.497
REMARK  7 active torsions:
REMARK  status: ('A' for Active; 'I' for Inactive)
REMARK    1  A    between atoms: O_2  and  C_3 
REMARK    2  A    between atoms: C_6  and  C_7 
REMARK    3  A    between atoms: C_11  and  C_12 
REMARK       I    between atoms: C_12  and  N_13 
REMARK    4  A    between atoms: N_13  and  N_14 
REMARK       I    between atoms: N_14  and  C_15 
REMARK    5  A    between atoms: C_15  and  C_16 
REMARK    6  A    between atoms: C_16  and  C_17 
REMARK    7  A    between atoms: C_17  and  C_18 
ROOT
HETATM    1  C   UNL     1       5.576  28.478  55.004  1.00  0.00     0.288 C 
HETATM    2  N   UNL     1       6.221  27.320  55.384  1.00  0.00    -0.262 N 
HETATM    3  O   UNL     1       4.928  28.551  53.960  1.00  0.00    -0.264 OA
HETATM    4  H   UNL     1       6.584  27.192  56.327  1.00  0.00     0.190 HD
ENDROOT
BRANCH   1   5
HETATM    5  C   UNL     1       5.709  29.578  55.919  1.00  0.00     0.121 A 
HETATM    6  N   UNL     1       5.347  30.852  55.583  1.00  0.00    -0.272 N 
HETATM    7  N   UNL     1       5.512  31.749  56.567  1.00  0.00    -0.174 NA
HETATM    8  H   UNL     1       4.969  31.165  54.694  1.00  0.00     0.189 HD
HETATM    9  C   UNL     1       6.023  31.045  57.589  1.00  0.00     0.089 A 
HETATM   10  C   UNL     1       6.164  29.678  57.218  1.00  0.00     0.071 A 
BRANCH   9  11
HETATM   11  C   UNL     1       6.344  31.665  58.879  1.00  0.00    -0.005 A 
HETATM   12  C   UNL     1       7.660  31.661  59.364  1.00  0.00     0.016 A 
HETATM   13  C   UNL     1       7.985  32.280  60.580  1.00  0.00     0.037 A 
HETATM   14  C   UNL     1       6.995  32.911  61.331  1.00  0.00     0.068 A 
HETATM   15  C   UNL     1       5.680  32.900  60.865  1.00  0.00     0.037 A 
HETATM   16  C   UNL     1       5.355  32.286  59.651  1.00  0.00     0.016 A 
BRANCH  14  17
HETATM   17  O   UNL     1       7.176  33.556  62.522  1.00  0.00    -0.356 OA
HETATM   18  C   UNL     1       7.765  32.804  63.575  1.00  0.00     0.210 C 
ENDBRANCH  14  17
ENDBRANCH   9  11
ENDBRANCH   1   5
BRANCH   2  19
HETATM   19  N   UNL     1       5.974  26.135  54.672  1.00  0.00    -0.267 N 
HETATM   20  C   UNL     1       6.940  25.750  53.762  1.00  0.00     0.236 C 
HETATM   21  O   UNL     1       7.890  26.474  53.470  1.00  0.00    -0.272 OA
HETATM   22  H   UNL     1       5.346  25.465  55.114  1.00  0.00     0.190 HD
BRANCH  20  23
HETATM   23  C   UNL     1       6.677  24.398  53.137  1.00  0.00     0.109 C 
BRANCH  23  24
HETATM   24  C   UNL     1       7.974  23.607  52.968  1.00  0.00     0.051 C 
BRANCH  24  25
HETATM   25  C   UNL     1       8.139  22.528  54.006  1.00  0.00    -0.019 A 
HETATM   26  C   UNL     1       8.189  21.179  53.642  1.00  0.00     0.122 A 
HETATM   27  F   UNL     1       8.099  20.834  52.349  1.00  0.00    -0.206 F 
HETATM   28  C   UNL     1       8.332  20.174  54.594  1.00  0.00     0.043 A 
HETATM   29  C   UNL     1       8.423  20.511  55.943  1.00  0.00     0.003 A 
HETATM   30  C   UNL     1       8.370  21.851  56.328  1.00  0.00     0.001 A 
HETATM   31  C   UNL     1       8.231  22.855  55.367  1.00  0.00     0.010 A 
ENDBRANCH  24  25
ENDBRANCH  23  24
ENDBRANCH  20  23
ENDBRANCH   2  19
TORSDOF 7
ENDMDL
MODEL 9
REMARK VINA RESULT:      -8.5      3.539     11.097
REMARK  7 active torsions:
REMARK  status: ('A' for Active; 'I' for Inactive)
REMARK    1  A    between atoms: O_2  and  C_3 
REMARK    2  A    between atoms: C_6  and  C_7 
REMARK    3  A    between atoms: C_11  and  C_12 
REMARK       I    between atoms: C_12  and  N_13 
REMARK    4  A    between atoms: N_13  and  N_14 
REMARK       I    between atoms: N_14  and  C_15 
REMARK    5  A    between atoms: C_15  and  C_16 
REMARK    6  A    between atoms: C_16  and  C_17 
REMARK    7  A    between atoms: C_17  and  C_18 
ROOT
HETATM    1  C   UNL     1       5.810  29.770  56.338  1.00  0.00     0.288 C 
HETATM    2  N   UNL     1       5.801  29.620  57.709  1.00  0.00    -0.262 N 
HETATM    3  O   UNL     1       5.614  30.858  55.800  1.00  0.00    -0.264 OA
HETATM    4  H   UNL     1       6.156  28.779  58.160  1.00  0.00     0.190 HD
ENDROOT
BRANCH   1   5
HETATM    5  C   UNL     1       6.077  28.568  55.596  1.00  0.00     0.121 A 
HETATM    6  N   UNL     1       5.601  28.374  54.330  1.00  0.00    -0.272 N 
HETATM    7  N   UNL     1       5.969  27.209  53.776  1.00  0.00    -0.174 NA
HETATM    8  H   UNL     1       5.025  29.013  53.790  1.00  0.00     0.189 HD
HETATM    9  C   UNL     1       6.702  26.597  54.720  1.00  0.00     0.089 A 
HETATM   10  C   UNL     1       6.789  27.419  55.879  1.00  0.00     0.071 A 
BRANCH   9  11
HETATM   11  C   UNL     1       7.309  25.280  54.504  1.00  0.00    -0.005 A 
HETATM   12  C   UNL     1       7.832  24.550  55.581  1.00  0.00     0.016 A 
HETATM   13  C   UNL     1       8.385  23.276  55.392  1.00  0.00     0.037 A 
HETATM   14  C   UNL     1       8.426  22.713  54.118  1.00  0.00     0.068 A 
HETATM   15  C   UNL     1       7.928  23.442  53.037  1.00  0.00     0.037 A 
HETATM   16  C   UNL     1       7.372  24.712  53.225  1.00  0.00     0.016 A 
BRANCH  14  17
HETATM   17  O   UNL     1       8.927  21.482  53.796  1.00  0.00    -0.356 OA
HETATM   18  C   UNL     1       8.101  20.645  52.998  1.00  0.00     0.210 C 
ENDBRANCH  14  17
ENDBRANCH   9  11
ENDBRANCH   1   5
BRANCH   2  19
HETATM   19  N   UNL     1       5.765  30.765  58.521  1.00  0.00    -0.267 N 
HETATM   20  C   UNL     1       4.520  31.173  58.959  1.00  0.00     0.236 C 
HETATM   21  O   UNL     1       3.481  30.663  58.542  1.00  0.00    -0.272 OA
HETATM   22  H   UNL     1       6.619  30.981  59.034  1.00  0.00     0.190 HD
BRANCH  20  23
HETATM   23  C   UNL     1       4.570  32.323  59.939  1.00  0.00     0.109 C 
BRANCH  23  24
HETATM   24  C   UNL     1       5.957  32.964  59.966  1.00  0.00     0.051 C 
BRANCH  24  25
HETATM   25  C   UNL     1       6.561  32.991  61.346  1.00  0.00    -0.019 A 
HETATM   26  C   UNL     1       7.619  32.143  61.686  1.00  0.00     0.122 A 
HETATM   27  F   UNL     1       8.115  31.296  60.772  1.00  0.00    -0.206 F 
HETATM   28  C   UNL     1       8.178  32.154  62.961  1.00  0.00     0.043 A 
HETATM   29  C   UNL     1       7.674  33.023  63.927  1.00  0.00     0.003 A 
HETATM   30  C   UNL     1       6.616  33.874  63.609  1.00  0.00     0.001 A 
HETATM   31  C   UNL     1       6.062  33.861  62.327  1.00  0.00     0.010 A 
ENDBRANCH  24  25
ENDBRANCH  23  24
ENDBRANCH  20  23
ENDBRANCH   2  19
TORSDOF 7
ENDMDL
MODEL 10
REMARK VINA RESULT:      -8.5      2.194      2.723
REMARK  7 active torsions:
REMARK  status: ('A' for Active; 'I' for Inactive)
REMARK    1  A    between atoms: O_2  and  C_3 
REMARK    2  A    between atoms: C_6  and  C_7 
REMARK    3  A    between atoms: C_11  and  C_12 
REMARK       I    between atoms: C_12  and  N_13 
REMARK    4  A    between atoms: N_13  and  N_14 
REMARK       I    between atoms: N_14  and  C_15 
REMARK    5  A    between atoms: C_15  and  C_16 
REMARK    6  A    between atoms: C_16  and  C_17 
REMARK    7  A    between atoms: C_17  and  C_18 
ROOT
HETATM    1  C   UNL     1       7.806  28.164  56.938  1.00  0.00     0.288 C 
HETATM    2  N   UNL     1       6.924  28.050  55.884  1.00  0.00    -0.262 N 
HETATM    3  O   UNL     1       8.722  27.361  57.111  1.00  0.00    -0.264 OA
HETATM    4  H   UNL     1       6.299  28.810  55.622  1.00  0.00     0.190 HD
ENDROOT
BRANCH   1   5
HETATM    5  C   UNL     1       7.582  29.291  57.801  1.00  0.00     0.121 A 
HETATM    6  N   UNL     1       8.544  29.759  58.651  1.00  0.00    -0.272 N 
HETATM    7  N   UNL     1       8.174  30.835  59.363  1.00  0.00    -0.174 NA
HETATM    8  H   UNL     1       9.480  29.386  58.779  1.00  0.00     0.189 HD
HETATM    9  C   UNL     1       6.909  31.077  58.984  1.00  0.00     0.089 A 
HETATM   10  C   UNL     1       6.502  30.125  58.006  1.00  0.00     0.071 A 
BRANCH   9  11
HETATM   11  C   UNL     1       6.132  32.194  59.530  1.00  0.00    -0.005 A 
HETATM   12  C   UNL     1       6.375  32.663  60.829  1.00  0.00     0.016 A 
HETATM   13  C   UNL     1       5.663  33.752  61.351  1.00  0.00     0.037 A 
HETATM   14  C   UNL     1       4.692  34.388  60.579  1.00  0.00     0.068 A 
HETATM   15  C   UNL     1       4.430  33.914  59.293  1.00  0.00     0.037 A 
HETATM   16  C   UNL     1       5.142  32.830  58.770  1.00  0.00     0.016 A 
BRANCH  14  17
HETATM   17  O   UNL     1       3.934  35.460  60.959  1.00  0.00    -0.356 OA
HETATM   18  C   UNL     1       2.592  35.191  61.344  1.00  0.00     0.210 C 
ENDBRANCH  14  17
ENDBRANCH   9  11
ENDBRANCH   1   5
BRANCH   2  19
HETATM   19  N   UNL     1       7.188  27.115  54.870  1.00  0.00    -0.267 N 
HETATM   20  C   UNL     1       6.302  26.061  54.756  1.00  0.00     0.236 C 
HETATM   21  O   UNL     1       5.418  25.856  55.587  1.00  0.00    -0.272 OA
HETATM   22  H   UNL     1       7.739  27.450  54.080  1.00  0.00     0.190 HD
BRANCH  20  23
HETATM   23  C   UNL     1       6.566  25.175  53.559  1.00  0.00     0.109 C 
BRANCH  23  24
HETATM   24  C   UNL     1       7.963  24.557  53.628  1.00  0.00     0.051 C 
BRANCH  24  25
HETATM   25  C   UNL     1       7.936  23.091  53.977  1.00  0.00    -0.019 A 
HETATM   26  C   UNL     1       7.827  22.669  55.305  1.00  0.00     0.122 A 
HETATM   27  F   UNL     1       7.735  23.576  56.288  1.00  0.00    -0.206 F 
HETATM   28  C   UNL     1       7.811  21.317  55.638  1.00  0.00     0.043 A 
HETATM   29  C   UNL     1       7.911  20.358  54.632  1.00  0.00     0.003 A 
HETATM   30  C   UNL     1       8.025  20.759  53.301  1.00  0.00     0.001 A 
HETATM   31  C   UNL     1       8.037  22.117  52.973  1.00  0.00     0.010 A 
ENDBRANCH  24  25
ENDBRANCH  23  24
ENDBRANCH  20  23
ENDBRANCH   2  19
TORSDOF 7
ENDMDL
