MODEL 1
REMARK VINA RESULT:      -9.2      0.000      0.000
REMARK  7 active torsions:
REMARK  status: ('A' for Active; 'I' for Inactive)
REMARK    1  A    between atoms: C_3  and  N_4 
REMARK       I    between atoms: N_4  and  C_5 
REMARK    2  A    between atoms: C_5  and  C_6 
REMARK    3  A    between atoms: C_6  and  C_14 
REMARK    4  A    between atoms: C_8  and  C_9 
REMARK    5  A    between atoms: C_9  and  O_15 
REMARK    6  A    between atoms: C_10  and  O_17 
REMARK    7  A    between atoms: C_22  and  N_23 
REMARK       I    between atoms: N_23  and  C_24 
REMARK       I    between atoms: C_24  and  N_25 
ROOT
HETATM    1  C           1       9.049  24.096  53.773  0.00  0.00     0.016 C 
HETATM    2  C           1       7.380  22.636  55.122  0.00  0.00     0.012 C 
HETATM    3  C           1       7.678  23.385  53.780  0.00  0.00    -0.030 C 
HETATM    4  C           1       8.060  21.247  55.383  0.00  0.00     0.008 C 
HETATM    5  C           1       7.917  20.386  54.112  0.00  0.00     0.128 C 
HETATM    6  C           1       7.616  22.373  52.609  0.00  0.00     0.013 C 
HETATM    7  C           1       6.437  25.319  54.810  0.00  0.00     0.056 A 
HETATM    8  C           1       6.562  24.469  53.571  0.00  0.00     0.056 C 
HETATM    9  C           1       7.289  20.526  56.524  0.00  0.00     0.020 C 
HETATM   10  C           1       8.409  21.087  52.853  0.00  0.00     0.033 C 
HETATM   11  C           1       7.430  23.591  56.333  0.00  0.00     0.055 C 
HETATM   12  C           1       6.803  24.922  56.032  0.00  0.00     0.012 A 
HETATM   13  N           1       6.002  26.506  54.817  0.00  0.00    -0.227 NA
HETATM   14  C           1       6.046  26.937  56.007  0.00  0.00     0.175 A 
HETATM   15  S           1       6.563  25.995  56.999  0.00  0.00    -0.055 SA
ENDROOT
BRANCH  14  16
HETATM   16  N           1       5.715  28.158  56.466  0.00  0.00    -0.287 N 
HETATM   17  C           1       6.314  29.078  57.277  0.00  0.00     0.324 C 
HETATM   18  O           1       5.576  29.881  57.786  0.00  0.00    -0.247 OA
HETATM   19  N           1       7.655  29.096  57.579  0.00  0.00    -0.330 N 
HETATM   20  C           1       8.706  28.751  56.635  0.00  0.00     0.153 C 
HETATM   21  C           1       8.177  29.644  58.827  0.00  0.00     0.153 C 
HETATM   22  C           1       9.632  29.950  56.432  0.00  0.00     0.187 C 
HETATM   23  O           1      10.141  30.399  57.663  0.00  0.00    -0.388 OA
HETATM   24  C           1       9.112  30.811  58.526  0.00  0.00     0.187 C 
HETATM   25  H           1       4.769  28.399  56.206  0.00  0.00     0.172 HD
ENDBRANCH  14  16
BRANCH   8  26
HETATM   26  C           1       6.667  25.322  52.289  0.00  0.00     0.114 C 
BRANCH  26  27
HETATM   27  C           1       5.385  25.453  51.471  0.00  0.00     0.218 C 
HETATM   28  N           1       5.455  26.426  50.508  0.00  0.00    -0.357 N 
HETATM   29  H           1       6.306  26.989  50.483  0.00  0.00     0.162 HD
HETATM   30  O           1       4.427  24.747  51.662  0.00  0.00    -0.274 OA
BRANCH  28  31
HETATM   31  C           1       4.398  26.779  49.545  0.00  0.00     0.076 C 
HETATM   32  C           1       4.924  26.598  48.113  0.00  0.00     0.032 C 
HETATM   33  C           1       3.690  28.135  49.688  0.00  0.00     0.032 C 
ENDBRANCH  28  31
ENDBRANCH  26  27
ENDBRANCH   8  26
BRANCH   4  34
HETATM   34  C           1       9.535  21.344  55.821  0.00  0.00     0.176 C 
BRANCH  34  35
HETATM   35  O           1      10.006  20.117  56.350  0.00  0.00    -0.400 OA
HETATM   36  H           1      10.941  20.018  56.167  0.00  0.00     0.209 HD
ENDBRANCH  34  35
ENDBRANCH   4  34
BRANCH   5  37
HETATM   37  O           1       8.620  19.172  54.240  0.00  0.00    -0.395 OA
HETATM   38  H           1       8.012  18.433  54.200  0.00  0.00     0.210 HD
ENDBRANCH   5  37
TORSDOF 7
ENDMDL
MODEL 2
REMARK VINA RESULT:      -8.8      3.170      6.759
REMARK  7 active torsions:
REMARK  status: ('A' for Active; 'I' for Inactive)
REMARK    1  A    between atoms: C_3  and  N_4 
REMARK       I    between atoms: N_4  and  C_5 
REMARK    2  A    between atoms: C_5  and  C_6 
REMARK    3  A    between atoms: C_6  and  C_14 
REMARK    4  A    between atoms: C_8  and  C_9 
REMARK    5  A    between atoms: C_9  and  O_15 
REMARK    6  A    between atoms: C_10  and  O_17 
REMARK    7  A    between atoms: C_22  and  N_23 
REMARK       I    between atoms: N_23  and  C_24 
REMARK       I    between atoms: C_24  and  N_25 
ROOT
HETATM    1  C           1       5.191  26.345  56.401  0.00  0.00     0.016 C 
HETATM    2  C           1       6.157  27.057  54.100  0.00  0.00     0.012 C 
HETATM    3  C           1       6.420  26.876  55.632  0.00  0.00    -0.030 C 
HETATM    4  C           1       6.169  25.793  53.173  0.00  0.00     0.008 C 
HETATM    5  C           1       7.406  24.941  53.524  0.00  0.00     0.128 C 
HETATM    6  C           1       7.611  25.906  55.831  0.00  0.00     0.013 C 
HETATM    7  C           1       5.770  29.301  55.833  0.00  0.00     0.056 A 
HETATM    8  C           1       6.804  28.277  56.228  0.00  0.00     0.056 C 
HETATM    9  C           1       6.329  26.262  51.699  0.00  0.00     0.020 C 
HETATM   10  C           1       7.512  24.619  55.008  0.00  0.00     0.033 C 
HETATM   11  C           1       4.975  28.014  53.832  0.00  0.00     0.055 C 
HETATM   12  C           1       4.977  29.192  54.763  0.00  0.00     0.012 A 
HETATM   13  N           1       5.524  30.353  56.489  0.00  0.00    -0.227 NA
HETATM   14  C           1       4.595  30.979  55.900  0.00  0.00     0.175 A 
HETATM   15  S           1       4.081  30.348  54.685  0.00  0.00    -0.055 SA
ENDROOT
BRANCH  14  16
HETATM   16  N           1       3.996  32.127  56.269  0.00  0.00    -0.287 N 
HETATM   17  C           1       3.584  32.661  57.455  0.00  0.00     0.324 C 
HETATM   18  O           1       2.745  33.520  57.375  0.00  0.00    -0.247 OA
HETATM   19  N           1       4.017  32.244  58.691  0.00  0.00    -0.330 N 
HETATM   20  C           1       5.378  31.815  58.975  0.00  0.00     0.153 C 
HETATM   21  C           1       3.203  32.364  59.896  0.00  0.00     0.153 C 
HETATM   22  C           1       5.995  32.723  60.037  0.00  0.00     0.187 C 
HETATM   23  O           1       5.192  32.757  61.190  0.00  0.00    -0.388 OA
HETATM   24  C           1       3.910  33.259  60.909  0.00  0.00     0.187 C 
HETATM   25  H           1       3.724  32.670  55.461  0.00  0.00     0.172 HD
ENDBRANCH  14  16
BRANCH   8  26
HETATM   26  C           1       7.114  28.317  57.739  0.00  0.00     0.114 C 
BRANCH  26  27
HETATM   27  C           1       8.344  29.125  58.144  0.00  0.00     0.218 C 
HETATM   28  N           1       8.192  29.780  59.338  0.00  0.00    -0.357 N 
HETATM   29  H           1       7.276  29.715  59.785  0.00  0.00     0.162 HD
HETATM   30  O           1       9.343  29.153  57.471  0.00  0.00    -0.274 OA
BRANCH  28  31
HETATM   31  C           1       9.199  30.618  60.009  0.00  0.00     0.076 C 
HETATM   32  C           1       8.877  30.713  61.509  0.00  0.00     0.032 C 
HETATM   33  C           1       9.501  32.012  59.438  0.00  0.00     0.032 C 
ENDBRANCH  28  31
ENDBRANCH  26  27
ENDBRANCH   8  26
BRANCH   4  34
HETATM   34  C           1       4.880  24.949  53.245  0.00  0.00     0.176 C 
BRANCH  34  35
HETATM   35  O           1       4.418  24.588  51.955  0.00  0.00    -0.400 OA
HETATM   36  H           1       4.600  23.663  51.789  0.00  0.00     0.209 HD
ENDBRANCH  34  35
ENDBRANCH   4  34
BRANCH   5  37
HETATM   37  O           1       7.404  23.726  52.812  0.00  0.00    -0.395 OA
HETATM   38  H           1       8.204  23.233  52.999  0.00  0.00     0.210 HD
ENDBRANCH   5  37
TORSDOF 7
ENDMDL
MODEL 3
REMARK VINA RESULT:      -8.7      2.261      6.496
REMARK  7 active torsions:
REMARK  status: ('A' for Active; 'I' for Inactive)
REMARK    1  A    between atoms: C_3  and  N_4 
REMARK       I    between atoms: N_4  and  C_5 
REMARK    2  A    between atoms: C_5  and  C_6 
REMARK    3  A    between atoms: C_6  and  C_14 
REMARK    4  A    between atoms: C_8  and  C_9 
REMARK    5  A    between atoms: C_9  and  O_15 
REMARK    6  A    between atoms: C_10  and  O_17 
REMARK    7  A    between atoms: C_22  and  N_23 
REMARK       I    between atoms: N_23  and  C_24 
REMARK       I    between atoms: C_24  and  N_25 
ROOT
HETATM    1  C           1       6.218  24.806  56.469  0.00  0.00     0.016 C 
HETATM    2  C           1       7.531  24.113  54.340  0.00  0.00     0.012 C 
HETATM    3  C           1       7.429  25.095  55.555  0.00  0.00    -0.030 C 
HETATM    4  C           1       8.100  22.671  54.575  0.00  0.00     0.008 C 
HETATM    5  C           1       9.379  22.784  55.430  0.00  0.00     0.128 C 
HETATM    6  C           1       8.734  25.012  56.386  0.00  0.00     0.013 C 
HETATM    7  C           1       6.158  26.599  53.984  0.00  0.00     0.056 A 
HETATM    8  C           1       7.279  26.552  54.990  0.00  0.00     0.056 C 
HETATM    9  C           1       8.510  22.071  53.201  0.00  0.00     0.020 C 
HETATM   10  C           1       9.178  23.584  56.709  0.00  0.00     0.033 C 
HETATM   11  C           1       6.256  24.145  53.470  0.00  0.00     0.055 C 
HETATM   12  C           1       5.721  25.537  53.299  0.00  0.00     0.012 A 
HETATM   13  N           1       5.494  27.637  53.705  0.00  0.00    -0.227 NA
HETATM   14  C           1       4.621  27.330  52.842  0.00  0.00     0.175 A 
HETATM   15  S           1       4.613  25.928  52.424  0.00  0.00    -0.055 SA
ENDROOT
BRANCH  14  16
HETATM   16  N           1       3.677  28.116  52.292  0.00  0.00    -0.287 N 
HETATM   17  C           1       3.620  28.935  51.201  0.00  0.00     0.324 C 
HETATM   18  O           1       2.760  29.777  51.227  0.00  0.00    -0.247 OA
HETATM   19  N           1       4.497  28.889  50.144  0.00  0.00    -0.330 N 
HETATM   20  C           1       5.062  27.660  49.608  0.00  0.00     0.153 C 
HETATM   21  C           1       4.813  30.056  49.327  0.00  0.00     0.153 C 
HETATM   22  C           1       4.658  27.503  48.142  0.00  0.00     0.187 C 
HETATM   23  O           1       5.033  28.636  47.399  0.00  0.00    -0.388 OA
HETATM   24  C           1       4.407  29.798  47.880  0.00  0.00     0.187 C 
HETATM   25  H           1       2.855  28.160  52.877  0.00  0.00     0.172 HD
ENDBRANCH  14  16
BRANCH   8  26
HETATM   26  C           1       7.170  27.683  56.035  0.00  0.00     0.114 C 
BRANCH  26  27
HETATM   27  C           1       8.254  28.756  55.968  0.00  0.00     0.218 C 
HETATM   28  N           1       8.608  29.245  57.198  0.00  0.00    -0.357 N 
HETATM   29  H           1       8.079  28.899  58.000  0.00  0.00     0.162 HD
HETATM   30  O           1       8.744  29.109  54.925  0.00  0.00    -0.274 OA
BRANCH  28  31
HETATM   31  C           1       9.634  30.264  57.471  0.00  0.00     0.076 C 
HETATM   32  C           1      11.030  29.673  57.218  0.00  0.00     0.032 C 
HETATM   33  C           1       9.603  31.003  58.818  0.00  0.00     0.032 C 
ENDBRANCH  28  31
ENDBRANCH  26  27
ENDBRANCH   8  26
BRANCH   4  34
HETATM   34  C           1       7.092  21.696  55.216  0.00  0.00     0.176 C 
BRANCH  34  35
HETATM   35  O           1       7.521  20.350  55.102  0.00  0.00    -0.400 OA
HETATM   36  H           1       7.901  20.199  54.235  0.00  0.00     0.209 HD
ENDBRANCH  34  35
ENDBRANCH   4  34
BRANCH   5  37
HETATM   37  O           1       9.867  21.511  55.783  0.00  0.00    -0.395 OA
HETATM   38  H           1      10.719  21.592  56.215  0.00  0.00     0.210 HD
ENDBRANCH   5  37
TORSDOF 7
ENDMDL
MODEL 4
REMARK VINA RESULT:      -8.6      3.135      8.792
REMARK  7 active torsions:
REMARK  status: ('A' for Active; 'I' for Inactive)
REMARK    1  A    between atoms: C_3  and  N_4 
REMARK       I    between atoms: N_4  and  C_5 
REMARK    2  A    between atoms: C_5  and  C_6 
REMARK    3  A    between atoms: C_6  and  C_14 
REMARK    4  A    between atoms: C_8  and  C_9 
REMARK    5  A    between atoms: C_9  and  O_15 
REMARK    6  A    between atoms: C_10  and  O_17 
REMARK    7  A    between atoms: C_22  and  N_23 
REMARK       I    between atoms: N_23  and  C_24 
REMARK       I    between atoms: C_24  and  N_25 
ROOT
HETATM    1  C           1       7.469  28.821  54.474  0.00  0.00     0.016 C 
HETATM    2  C           1       4.895  28.979  54.765  0.00  0.00     0.012 C 
HETATM    3  C           1       6.163  28.060  54.788  0.00  0.00    -0.030 C 
HETATM    4  C           1       4.608  29.906  55.996  0.00  0.00     0.008 C 
HETATM    5  C           1       4.787  29.078  57.285  0.00  0.00     0.128 C 
HETATM    6  C           1       6.278  27.389  56.179  0.00  0.00     0.013 C 
HETATM    7  C           1       5.613  27.571  52.379  0.00  0.00     0.056 A 
HETATM    8  C           1       5.973  26.943  53.701  0.00  0.00     0.056 C 
HETATM    9  C           1       3.121  30.359  55.937  0.00  0.00     0.020 C 
HETATM   10  C           1       6.127  28.359  57.354  0.00  0.00     0.033 C 
HETATM   11  C           1       4.724  29.682  53.402  0.00  0.00     0.055 C 
HETATM   12  C           1       5.044  28.774  52.250  0.00  0.00     0.012 A 
HETATM   13  N           1       5.842  27.042  51.254  0.00  0.00    -0.227 NA
HETATM   14  C           1       5.438  27.834  50.354  0.00  0.00     0.175 A 
HETATM   15  S           1       4.849  29.085  50.833  0.00  0.00    -0.055 SA
ENDROOT
BRANCH  14  16
HETATM   16  N           1       5.515  27.691  49.018  0.00  0.00    -0.287 N 
HETATM   17  C           1       4.731  27.112  48.063  0.00  0.00     0.324 C 
HETATM   18  O           1       5.287  26.829  47.034  0.00  0.00    -0.247 OA
HETATM   19  N           1       3.405  26.792  48.231  0.00  0.00    -0.330 N 
HETATM   20  C           1       2.463  27.600  48.990  0.00  0.00     0.153 C 
HETATM   21  C           1       2.756  25.702  47.510  0.00  0.00     0.153 C 
HETATM   22  C           1       1.328  28.065  48.078  0.00  0.00     0.187 C 
HETATM   23  O           1       0.712  26.967  47.452  0.00  0.00    -0.388 OA
HETATM   24  C           1       1.621  26.253  46.654  0.00  0.00     0.187 C 
HETATM   25  H           1       6.403  28.024  48.668  0.00  0.00     0.172 HD
ENDBRANCH  14  16
BRANCH   8  26
HETATM   26  C           1       7.119  25.918  53.566  0.00  0.00     0.114 C 
BRANCH  26  27
HETATM   27  C           1       6.699  24.450  53.554  0.00  0.00     0.218 C 
HETATM   28  N           1       7.642  23.613  54.090  0.00  0.00    -0.357 N 
HETATM   29  H           1       8.527  24.038  54.372  0.00  0.00     0.162 HD
HETATM   30  O           1       5.631  24.092  53.124  0.00  0.00    -0.274 OA
BRANCH  28  31
HETATM   31  C           1       7.529  22.153  54.244  0.00  0.00     0.076 C 
HETATM   32  C           1       8.003  21.744  55.647  0.00  0.00     0.032 C 
HETATM   33  C           1       8.163  21.246  53.179  0.00  0.00     0.032 C 
ENDBRANCH  28  31
ENDBRANCH  26  27
ENDBRANCH   8  26
BRANCH   4  34
HETATM   34  C           1       5.471  31.183  56.035  0.00  0.00     0.176 C 
BRANCH  34  35
HETATM   35  O           1       4.828  32.229  56.741  0.00  0.00    -0.400 OA
HETATM   36  H           1       5.030  32.167  57.675  0.00  0.00     0.209 HD
ENDBRANCH  34  35
ENDBRANCH   4  34
BRANCH   5  37
HETATM   37  O           1       4.667  29.889  58.430  0.00  0.00    -0.395 OA
HETATM   38  H           1       5.503  30.316  58.621  0.00  0.00     0.210 HD
ENDBRANCH   5  37
TORSDOF 7
ENDMDL
MODEL 5
REMARK VINA RESULT:      -8.4      3.604      7.019
REMARK  7 active torsions:
REMARK  status: ('A' for Active; 'I' for Inactive)
REMARK    1  A    between atoms: C_3  and  N_4 
REMARK       I    between atoms: N_4  and  C_5 
REMARK    2  A    between atoms: C_5  and  C_6 
REMARK    3  A    between atoms: C_6  and  C_14 
REMARK    4  A    between atoms: C_8  and  C_9 
REMARK    5  A    between atoms: C_9  and  O_15 
REMARK    6  A    between atoms: C_10  and  O_17 
REMARK    7  A    between atoms: C_22  and  N_23 
REMARK       I    between atoms: N_23  and  C_24 
REMARK       I    between atoms: C_24  and  N_25 
ROOT
HETATM    1  C           1       5.084  26.377  56.435  0.00  0.00     0.016 C 
HETATM    2  C           1       5.927  27.204  54.125  0.00  0.00     0.012 C 
HETATM    3  C           1       6.219  27.078  55.658  0.00  0.00    -0.030 C 
HETATM    4  C           1       6.126  25.947  53.209  0.00  0.00     0.008 C 
HETATM    5  C           1       7.477  25.293  53.562  0.00  0.00     0.128 C 
HETATM    6  C           1       7.542  26.299  55.860  0.00  0.00     0.013 C 
HETATM    7  C           1       5.214  29.381  55.839  0.00  0.00     0.056 A 
HETATM    8  C           1       6.390  28.527  56.239  0.00  0.00     0.056 C 
HETATM    9  C           1       6.211  26.421  51.730  0.00  0.00     0.020 C 
HETATM   10  C           1       7.634  25.004  55.049  0.00  0.00     0.033 C 
HETATM   11  C           1       4.615  27.971  53.853  0.00  0.00     0.055 C 
HETATM   12  C           1       4.443  29.144  54.773  0.00  0.00     0.012 A 
HETATM   13  N           1       4.815  30.390  56.487  0.00  0.00    -0.227 NA
HETATM   14  C           1       3.801  30.865  55.896  0.00  0.00     0.175 A 
HETATM   15  S           1       3.385  30.153  54.688  0.00  0.00    -0.055 SA
ENDROOT
BRANCH  14  16
HETATM   16  N           1       3.038  31.913  56.257  0.00  0.00    -0.287 N 
HETATM   17  C           1       3.278  33.224  56.552  0.00  0.00     0.324 C 
HETATM   18  O           1       2.430  33.773  57.207  0.00  0.00    -0.247 OA
HETATM   19  N           1       4.420  33.906  56.205  0.00  0.00    -0.330 N 
HETATM   20  C           1       5.136  33.710  54.954  0.00  0.00     0.153 C 
HETATM   21  C           1       4.932  35.034  56.976  0.00  0.00     0.153 C 
HETATM   22  C           1       5.168  35.020  54.167  0.00  0.00     0.187 C 
HETATM   23  O           1       5.717  36.054  54.944  0.00  0.00    -0.388 OA
HETATM   24  C           1       4.958  36.285  56.104  0.00  0.00     0.187 C 
HETATM   25  H           1       2.083  31.627  56.420  0.00  0.00     0.172 HD
ENDBRANCH  14  16
BRANCH   8  26
HETATM   26  C           1       6.694  28.626  57.749  0.00  0.00     0.114 C 
BRANCH  26  27
HETATM   27  C           1       8.025  29.277  58.117  0.00  0.00     0.218 C 
HETATM   28  N           1       7.995  29.923  59.325  0.00  0.00    -0.357 N 
HETATM   29  H           1       7.096  29.958  59.807  0.00  0.00     0.162 HD
HETATM   30  O           1       8.995  29.200  57.406  0.00  0.00    -0.274 OA
BRANCH  28  31
HETATM   31  C           1       9.119  30.624  59.968  0.00  0.00     0.076 C 
HETATM   32  C           1       8.928  30.616  61.493  0.00  0.00     0.032 C 
HETATM   33  C           1       9.486  32.035  59.483  0.00  0.00     0.032 C 
ENDBRANCH  28  31
ENDBRANCH  26  27
ENDBRANCH   8  26
BRANCH   4  34
HETATM   34  C           1       4.978  24.921  53.293  0.00  0.00     0.176 C 
BRANCH  34  35
HETATM   35  O           1       4.484  24.581  52.009  0.00  0.00    -0.400 OA
HETATM   36  H           1       5.164  24.133  51.505  0.00  0.00     0.209 HD
ENDBRANCH  34  35
ENDBRANCH   4  34
BRANCH   5  37
HETATM   37  O           1       7.655  24.085  52.861  0.00  0.00    -0.395 OA
HETATM   38  H           1       8.588  23.877  52.793  0.00  0.00     0.210 HD
ENDBRANCH   5  37
TORSDOF 7
ENDMDL
MODEL 6
REMARK VINA RESULT:      -8.4      3.731      5.291
REMARK  7 active torsions:
REMARK  status: ('A' for Active; 'I' for Inactive)
REMARK    1  A    between atoms: C_3  and  N_4 
REMARK       I    between atoms: N_4  and  C_5 
REMARK    2  A    between atoms: C_5  and  C_6 
REMARK    3  A    between atoms: C_6  and  C_14 
REMARK    4  A    between atoms: C_8  and  C_9 
REMARK    5  A    between atoms: C_9  and  O_15 
REMARK    6  A    between atoms: C_10  and  O_17 
REMARK    7  A    between atoms: C_22  and  N_23 
REMARK       I    between atoms: N_23  and  C_24 
REMARK       I    between atoms: C_24  and  N_25 
ROOT
HETATM    1  C           1       7.520  27.270  53.568  0.00  0.00     0.016 C 
HETATM    2  C           1       5.661  26.198  55.027  0.00  0.00     0.012 C 
HETATM    3  C           1       6.352  26.262  53.623  0.00  0.00    -0.030 C 
HETATM    4  C           1       6.358  25.399  56.181  0.00  0.00     0.008 C 
HETATM    5  C           1       6.821  24.038  55.623  0.00  0.00     0.128 C 
HETATM    6  C           1       6.871  24.851  53.249  0.00  0.00     0.013 C 
HETATM    7  C           1       4.578  27.953  53.041  0.00  0.00     0.056 A 
HETATM    8  C           1       5.274  26.701  52.570  0.00  0.00     0.056 C 
HETATM    9  C           1       5.305  25.113  57.290  0.00  0.00     0.020 C 
HETATM   10  C           1       7.665  24.163  54.362  0.00  0.00     0.033 C 
HETATM   11  C           1       5.122  27.579  55.461  0.00  0.00     0.055 C 
HETATM   12  C           1       4.496  28.328  54.321  0.00  0.00     0.012 A 
HETATM   13  N           1       4.029  28.793  52.273  0.00  0.00    -0.227 NA
HETATM   14  C           1       3.559  29.730  52.983  0.00  0.00     0.175 A 
HETATM   15  S           1       3.772  29.597  54.424  0.00  0.00    -0.055 SA
ENDROOT
BRANCH  14  16
HETATM   16  N           1       2.927  30.848  52.579  0.00  0.00    -0.287 N 
HETATM   17  C           1       3.324  32.045  52.058  0.00  0.00     0.324 C 
HETATM   18  O           1       2.539  32.950  52.178  0.00  0.00    -0.247 OA
HETATM   19  N           1       4.549  32.277  51.481  0.00  0.00    -0.330 N 
HETATM   20  C           1       5.260  31.307  50.662  0.00  0.00     0.153 C 
HETATM   21  C           1       5.184  33.591  51.473  0.00  0.00     0.153 C 
HETATM   22  C           1       5.472  31.872  49.258  0.00  0.00     0.187 C 
HETATM   23  O           1       6.131  33.112  49.315  0.00  0.00    -0.388 OA
HETATM   24  C           1       5.385  34.059  50.036  0.00  0.00     0.187 C 
HETATM   25  H           1       1.941  30.803  52.792  0.00  0.00     0.172 HD
ENDBRANCH  14  16
BRANCH   8  26
HETATM   26  C           1       5.754  26.818  51.108  0.00  0.00     0.114 C 
BRANCH  26  27
HETATM   27  C           1       4.687  26.598  50.039  0.00  0.00     0.218 C 
HETATM   28  N           1       4.300  27.755  49.414  0.00  0.00    -0.357 N 
HETATM   29  H           1       4.705  28.624  49.764  0.00  0.00     0.162 HD
HETATM   30  O           1       4.256  25.503  49.778  0.00  0.00    -0.274 OA
BRANCH  28  31
HETATM   31  C           1       3.313  27.874  48.328  0.00  0.00     0.076 C 
HETATM   32  C           1       3.680  29.060  47.424  0.00  0.00     0.032 C 
HETATM   33  C           1       1.819  27.917  48.688  0.00  0.00     0.032 C 
ENDBRANCH  28  31
ENDBRANCH  26  27
ENDBRANCH   8  26
BRANCH   4  34
HETATM   34  C           1       7.528  26.151  56.847  0.00  0.00     0.176 C 
BRANCH  34  35
HETATM   35  O           1       7.746  25.709  58.175  0.00  0.00    -0.400 OA
HETATM   36  H           1       7.157  26.170  58.775  0.00  0.00     0.209 HD
ENDBRANCH  34  35
ENDBRANCH   4  34
BRANCH   5  37
HETATM   37  O           1       7.569  23.325  56.580  0.00  0.00    -0.395 OA
HETATM   38  H           1       8.504  23.498  56.463  0.00  0.00     0.210 HD
ENDBRANCH   5  37
TORSDOF 7
ENDMDL
MODEL 7
REMARK VINA RESULT:      -8.4      5.521     11.148
REMARK  7 active torsions:
REMARK  status: ('A' for Active; 'I' for Inactive)
REMARK    1  A    between atoms: C_3  and  N_4 
REMARK       I    between atoms: N_4  and  C_5 
REMARK    2  A    between atoms: C_5  and  C_6 
REMARK    3  A    between atoms: C_6  and  C_14 
REMARK    4  A    between atoms: C_8  and  C_9 
REMARK    5  A    between atoms: C_9  and  O_15 
REMARK    6  A    between atoms: C_10  and  O_17 
REMARK    7  A    between atoms: C_22  and  N_23 
REMARK       I    between atoms: N_23  and  C_24 
REMARK       I    between atoms: C_24  and  N_25 
ROOT
HETATM    1  C           1       3.824  31.845  61.619  0.00  0.00     0.016 C 
HETATM    2  C           1       5.350  33.880  62.137  0.00  0.00     0.012 C 
HETATM    3  C           1       4.221  33.286  61.229  0.00  0.00    -0.030 C 
HETATM    4  C           1       4.976  34.408  63.565  0.00  0.00     0.008 C 
HETATM    5  C           1       3.710  35.280  63.448  0.00  0.00     0.128 C 
HETATM    6  C           1       2.974  34.202  61.305  0.00  0.00     0.013 C 
HETATM    7  C           1       6.091  32.587  59.693  0.00  0.00     0.056 A 
HETATM    8  C           1       4.747  33.267  59.750  0.00  0.00     0.056 C 
HETATM    9  C           1       6.127  35.323  64.070  0.00  0.00     0.020 C 
HETATM   10  C           1       2.564  34.581  62.730  0.00  0.00     0.033 C 
HETATM   11  C           1       6.624  33.008  62.108  0.00  0.00     0.055 C 
HETATM   12  C           1       6.927  32.491  60.732  0.00  0.00     0.012 A 
HETATM   13  N           1       6.554  32.010  58.669  0.00  0.00    -0.227 NA
HETATM   14  C           1       7.688  31.530  58.963  0.00  0.00     0.175 A 
HETATM   15  S           1       8.131  31.756  60.338  0.00  0.00    -0.055 SA
ENDROOT
BRANCH  14  16
HETATM   16  N           1       8.515  30.806  58.186  0.00  0.00    -0.287 N 
HETATM   17  C           1       8.523  29.525  57.716  0.00  0.00     0.324 C 
HETATM   18  O           1       9.597  29.101  57.378  0.00  0.00    -0.247 OA
HETATM   19  N           1       7.420  28.706  57.667  0.00  0.00    -0.330 N 
HETATM   20  C           1       6.076  29.167  57.354  0.00  0.00     0.153 C 
HETATM   21  C           1       7.512  27.251  57.742  0.00  0.00     0.153 C 
HETATM   22  C           1       5.567  28.460  56.099  0.00  0.00     0.187 C 
HETATM   23  O           1       5.634  27.065  56.252  0.00  0.00    -0.388 OA
HETATM   24  C           1       6.953  26.633  56.465  0.00  0.00     0.187 C 
HETATM   25  H           1       9.360  31.321  57.978  0.00  0.00     0.172 HD
ENDBRANCH  14  16
BRANCH   8  26
HETATM   26  C           1       3.773  32.719  58.684  0.00  0.00     0.114 C 
BRANCH  26  27
HETATM   27  C           1       3.492  33.644  57.503  0.00  0.00     0.218 C 
HETATM   28  N           1       4.586  33.851  56.705  0.00  0.00    -0.357 N 
HETATM   29  H           1       5.465  33.430  57.012  0.00  0.00     0.162 HD
HETATM   30  O           1       2.402  34.119  57.306  0.00  0.00    -0.274 OA
BRANCH  28  31
HETATM   31  C           1       4.634  34.668  55.481  0.00  0.00     0.076 C 
HETATM   32  C           1       5.055  33.792  54.291  0.00  0.00     0.032 C 
HETATM   33  C           1       5.441  35.975  55.496  0.00  0.00     0.032 C 
ENDBRANCH  28  31
ENDBRANCH  26  27
ENDBRANCH   8  26
BRANCH   4  34
HETATM   34  C           1       4.786  33.295  64.615  0.00  0.00     0.176 C 
BRANCH  34  35
HETATM   35  O           1       5.070  33.756  65.924  0.00  0.00    -0.400 OA
HETATM   36  H           1       5.988  34.021  65.987  0.00  0.00     0.209 HD
ENDBRANCH  34  35
ENDBRANCH   4  34
BRANCH   5  37
HETATM   37  O           1       3.251  35.680  64.718  0.00  0.00    -0.395 OA
HETATM   38  H           1       3.200  34.923  65.304  0.00  0.00     0.210 HD
ENDBRANCH   5  37
TORSDOF 7
ENDMDL
MODEL 8
REMARK VINA RESULT:      -8.3      2.399      7.969
REMARK  7 active torsions:
REMARK  status: ('A' for Active; 'I' for Inactive)
REMARK    1  A    between atoms: C_3  and  N_4 
REMARK       I    between atoms: N_4  and  C_5 
REMARK    2  A    between atoms: C_5  and  C_6 
REMARK    3  A    between atoms: C_6  and  C_14 
REMARK    4  A    between atoms: C_8  and  C_9 
REMARK    5  A    between atoms: C_9  and  O_15 
REMARK    6  A    between atoms: C_10  and  O_17 
REMARK    7  A    between atoms: C_22  and  N_23 
REMARK       I    between atoms: N_23  and  C_24 
REMARK       I    between atoms: C_24  and  N_25 
ROOT
HETATM    1  C           1       5.728  29.106  51.132  0.00  0.00     0.016 C 
HETATM    2  C           1       4.420  26.956  50.500  0.00  0.00     0.012 C 
HETATM    3  C           1       4.518  28.199  51.445  0.00  0.00    -0.030 C 
HETATM    4  C           1       3.855  27.147  49.050  0.00  0.00     0.008 C 
HETATM    5  C           1       2.574  28.003  49.133  0.00  0.00     0.128 C 
HETATM    6  C           1       3.213  29.026  51.334  0.00  0.00     0.013 C 
HETATM    7  C           1       5.787  26.675  52.999  0.00  0.00     0.056 A 
HETATM    8  C           1       4.664  27.679  52.919  0.00  0.00     0.056 C 
HETATM    9  C           1       3.448  25.754  48.490  0.00  0.00     0.020 C 
HETATM   10  C           1       2.772  29.306  49.895  0.00  0.00     0.033 C 
HETATM   11  C           1       5.696  26.089  50.561  0.00  0.00     0.055 C 
HETATM   12  C           1       6.228  25.960  51.959  0.00  0.00     0.012 A 
HETATM   13  N           1       6.448  26.429  54.047  0.00  0.00    -0.227 NA
HETATM   14  C           1       7.323  25.559  53.768  0.00  0.00     0.175 A 
HETATM   15  S           1       7.335  25.099  52.379  0.00  0.00    -0.055 SA
ENDROOT
BRANCH  14  16
HETATM   16  N           1       8.266  25.033  54.573  0.00  0.00    -0.287 N 
HETATM   17  C           1       8.473  23.812  55.146  0.00  0.00     0.324 C 
HETATM   18  O           1       9.194  23.805  56.109  0.00  0.00    -0.247 OA
HETATM   19  N           1       7.875  22.645  54.733  0.00  0.00    -0.330 N 
HETATM   20  C           1       7.604  22.318  53.342  0.00  0.00     0.153 C 
HETATM   21  C           1       7.617  21.527  55.634  0.00  0.00     0.153 C 
HETATM   22  C           1       8.351  21.041  52.956  0.00  0.00     0.187 C 
HETATM   23  O           1       8.023  19.990  53.829  0.00  0.00    -0.388 OA
HETATM   24  C           1       8.375  20.293  55.155  0.00  0.00     0.187 C 
HETATM   25  H           1       8.919  25.741  54.877  0.00  0.00     0.172 HD
ENDBRANCH  14  16
BRANCH   8  26
HETATM   26  C           1       4.770  28.757  54.019  0.00  0.00     0.114 C 
BRANCH  26  27
HETATM   27  C           1       4.948  28.238  55.443  0.00  0.00     0.218 C 
HETATM   28  N           1       6.163  28.561  55.988  0.00  0.00    -0.357 N 
HETATM   29  H           1       6.827  29.043  55.380  0.00  0.00     0.162 HD
HETATM   30  O           1       4.084  27.622  56.015  0.00  0.00    -0.274 OA
BRANCH  28  31
HETATM   31  C           1       6.628  28.229  57.345  0.00  0.00     0.076 C 
HETATM   32  C           1       7.209  29.485  58.014  0.00  0.00     0.032 C 
HETATM   33  C           1       7.579  27.037  57.530  0.00  0.00     0.032 C 
ENDBRANCH  28  31
ENDBRANCH  26  27
ENDBRANCH   8  26
BRANCH   4  34
HETATM   34  C           1       4.864  27.759  48.058  0.00  0.00     0.176 C 
BRANCH  34  35
HETATM   35  O           1       5.464  26.768  47.243  0.00  0.00    -0.400 OA
HETATM   36  H           1       6.144  26.306  47.734  0.00  0.00     0.209 HD
ENDBRANCH  34  35
ENDBRANCH   4  34
BRANCH   5  37
HETATM   37  O           1       2.089  28.316  47.849  0.00  0.00    -0.395 OA
HETATM   38  H           1       1.167  28.573  47.898  0.00  0.00     0.210 HD
ENDBRANCH   5  37
TORSDOF 7
ENDMDL
MODEL 9
REMARK VINA RESULT:      -8.2      4.780      8.125
REMARK  7 active torsions:
REMARK  status: ('A' for Active; 'I' for Inactive)
REMARK    1  A    between atoms: C_3  and  N_4 
REMARK       I    between atoms: N_4  and  C_5 
REMARK    2  A    between atoms: C_5  and  C_6 
REMARK    3  A    between atoms: C_6  and  C_14 
REMARK    4  A    between atoms: C_8  and  C_9 
REMARK    5  A    between atoms: C_9  and  O_15 
REMARK    6  A    between atoms: C_10  and  O_17 
REMARK    7  A    between atoms: C_22  and  N_23 
REMARK       I    between atoms: N_23  and  C_24 
REMARK       I    between atoms: C_24  and  N_25 
ROOT
HETATM    1  C           1       3.667  28.657  55.930  0.00  0.00     0.016 C 
HETATM    2  C           1       4.848  29.666  53.851  0.00  0.00     0.012 C 
HETATM    3  C           1       5.010  28.909  55.212  0.00  0.00    -0.030 C 
HETATM    4  C           1       4.367  28.868  52.591  0.00  0.00     0.008 C 
HETATM    5  C           1       5.166  27.552  52.511  0.00  0.00     0.128 C 
HETATM    6  C           1       5.721  27.556  54.958  0.00  0.00     0.013 C 
HETATM    7  C           1       5.367  31.191  56.217  0.00  0.00     0.056 A 
HETATM    8  C           1       5.911  29.787  56.152  0.00  0.00     0.056 C 
HETATM    9  C           1       4.708  29.698  51.321  0.00  0.00     0.020 C 
HETATM   10  C           1       5.128  26.747  53.802  0.00  0.00     0.033 C 
HETATM   11  C           1       4.141  31.026  54.035  0.00  0.00     0.055 C 
HETATM   12  C           1       4.601  31.743  55.271  0.00  0.00     0.012 A 
HETATM   13  N           1       5.552  31.981  57.186  0.00  0.00    -0.227 NA
HETATM   14  C           1       4.948  33.065  56.935  0.00  0.00     0.175 A 
HETATM   15  S           1       4.234  33.107  55.659  0.00  0.00    -0.055 SA
ENDROOT
BRANCH  14  16
HETATM   16  N           1       4.848  34.163  57.705  0.00  0.00    -0.287 N 
HETATM   17  C           1       4.173  34.481  58.848  0.00  0.00     0.324 C 
HETATM   18  O           1       4.004  35.657  59.043  0.00  0.00    -0.247 OA
HETATM   19  N           1       3.646  33.562  59.724  0.00  0.00    -0.330 N 
HETATM   20  C           1       4.279  32.294  60.053  0.00  0.00     0.153 C 
HETATM   21  C           1       2.483  33.843  60.560  0.00  0.00     0.153 C 
HETATM   22  C           1       4.580  32.240  61.550  0.00  0.00     0.187 C 
HETATM   23  O           1       3.413  32.468  62.300  0.00  0.00    -0.388 OA
HETATM   24  C           1       2.868  33.735  62.032  0.00  0.00     0.187 C 
HETATM   25  H           1       5.323  34.948  57.282  0.00  0.00     0.172 HD
ENDBRANCH  14  16
BRANCH   8  26
HETATM   26  C           1       6.203  29.210  57.554  0.00  0.00     0.114 C 
BRANCH  26  27
HETATM   27  C           1       7.678  29.031  57.905  0.00  0.00     0.218 C 
HETATM   28  N           1       8.376  30.210  57.926  0.00  0.00    -0.357 N 
HETATM   29  H           1       7.867  31.051  57.648  0.00  0.00     0.162 HD
HETATM   30  O           1       8.152  27.951  58.152  0.00  0.00    -0.274 OA
BRANCH  28  31
HETATM   31  C           1       9.802  30.376  58.252  0.00  0.00     0.076 C 
HETATM   32  C           1      10.040  31.779  58.830  0.00  0.00     0.032 C 
HETATM   33  C           1      10.849  30.057  57.173  0.00  0.00     0.032 C 
ENDBRANCH  28  31
ENDBRANCH  26  27
ENDBRANCH   8  26
BRANCH   4  34
HETATM   34  C           1       2.850  28.595  52.563  0.00  0.00     0.176 C 
BRANCH  34  35
HETATM   35  O           1       2.347  28.566  51.239  0.00  0.00    -0.400 OA
HETATM   36  H           1       2.512  29.404  50.806  0.00  0.00     0.209 HD
ENDBRANCH  34  35
ENDBRANCH   4  34
BRANCH   5  37
HETATM   37  O           1       4.690  26.731  51.470  0.00  0.00    -0.395 OA
HETATM   38  H           1       5.210  25.928  51.419  0.00  0.00     0.210 HD
ENDBRANCH   5  37
TORSDOF 7
ENDMDL
MODEL 10
REMARK VINA RESULT:      -8.0      3.858      4.959
REMARK  7 active torsions:
REMARK  status: ('A' for Active; 'I' for Inactive)
REMARK    1  A    between atoms: C_3  and  N_4 
REMARK       I    between atoms: N_4  and  C_5 
REMARK    2  A    between atoms: C_5  and  C_6 
REMARK    3  A    between atoms: C_6  and  C_14 
REMARK    4  A    between atoms: C_8  and  C_9 
REMARK    5  A    between atoms: C_9  and  O_15 
REMARK    6  A    between atoms: C_10  and  O_17 
REMARK    7  A    between atoms: C_22  and  N_23 
REMARK       I    between atoms: N_23  and  C_24 
REMARK       I    between atoms: C_24  and  N_25 
ROOT
HETATM    1  C           1       7.103  28.526  54.339  0.00  0.00     0.016 C 
HETATM    2  C           1       5.468  26.877  55.498  0.00  0.00     0.012 C 
HETATM    3  C           1       5.941  27.526  54.154  0.00  0.00    -0.030 C 
HETATM    4  C           1       6.318  25.717  56.122  0.00  0.00     0.008 C 
HETATM    5  C           1       6.671  24.714  55.005  0.00  0.00     0.128 C 
HETATM    6  C           1       6.376  26.406  53.176  0.00  0.00     0.013 C 
HETATM    7  C           1       4.127  29.225  54.559  0.00  0.00     0.056 A 
HETATM    8  C           1       4.724  28.298  53.532  0.00  0.00     0.056 C 
HETATM    9  C           1       5.441  24.966  57.162  0.00  0.00     0.020 C 
HETATM   10  C           1       7.318  25.369  53.793  0.00  0.00     0.033 C 
HETATM   11  C           1       5.023  27.944  56.521  0.00  0.00     0.055 C 
HETATM   12  C           1       4.244  29.055  55.880  0.00  0.00     0.012 A 
HETATM   13  N           1       3.481  30.275  54.280  0.00  0.00    -0.227 NA
HETATM   14  C           1       3.138  30.829  55.365  0.00  0.00     0.175 A 
HETATM   15  S           1       3.563  30.143  56.585  0.00  0.00    -0.055 SA
ENDROOT
BRANCH  14  16
HETATM   16  N           1       2.470  31.985  55.538  0.00  0.00    -0.287 N 
HETATM   17  C           1       2.808  33.243  55.945  0.00  0.00     0.324 C 
HETATM   18  O           1       1.901  33.919  56.354  0.00  0.00    -0.247 OA
HETATM   19  N           1       4.091  33.737  55.967  0.00  0.00    -0.330 N 
HETATM   20  C           1       5.099  33.429  54.964  0.00  0.00     0.153 C 
HETATM   21  C           1       4.523  34.773  56.899  0.00  0.00     0.153 C 
HETATM   22  C           1       5.552  34.716  54.275  0.00  0.00     0.187 C 
HETATM   23  O           1       6.003  35.653  55.220  0.00  0.00    -0.388 OA
HETATM   24  C           1       4.987  36.003  56.124  0.00  0.00     0.187 C 
HETATM   25  H           1       1.477  31.852  55.410  0.00  0.00     0.172 HD
ENDBRANCH  14  16
BRANCH   8  26
HETATM   26  C           1       4.980  29.009  52.186  0.00  0.00     0.114 C 
BRANCH  26  27
HETATM   27  C           1       3.983  28.701  51.072  0.00  0.00     0.218 C 
HETATM   28  N           1       4.565  28.144  49.963  0.00  0.00    -0.357 N 
HETATM   29  H           1       5.582  28.057  49.973  0.00  0.00     0.162 HD
HETATM   30  O           1       2.804  28.922  51.187  0.00  0.00    -0.274 OA
BRANCH  28  31
HETATM   31  C           1       3.874  27.714  48.736  0.00  0.00     0.076 C 
HETATM   32  C           1       4.641  26.549  48.093  0.00  0.00     0.032 C 
HETATM   33  C           1       3.519  28.770  47.679  0.00  0.00     0.032 C 
ENDBRANCH  28  31
ENDBRANCH  26  27
ENDBRANCH   8  26
BRANCH   4  34
HETATM   34  C           1       7.587  26.195  56.857  0.00  0.00     0.176 C 
BRANCH  34  35
HETATM   35  O           1       7.578  25.812  58.221  0.00  0.00    -0.400 OA
HETATM   36  H           1       6.676  25.732  58.533  0.00  0.00     0.209 HD
ENDBRANCH  34  35
ENDBRANCH   4  34
BRANCH   5  37
HETATM   37  O           1       7.543  23.715  55.479  0.00  0.00    -0.395 OA
HETATM   38  H           1       8.036  24.038  56.235  0.00  0.00     0.210 HD
ENDBRANCH   5  37
TORSDOF 7
ENDMDL
