MODEL 1
REMARK VINA RESULT:     -10.2      0.000      0.000
REMARK  3 active torsions:
REMARK  status: ('A' for Active; 'I' for Inactive)
REMARK    1  A    between atoms: C_10  and  C_11 
REMARK    2  A    between atoms: C_13  and  C_14 
REMARK    3  A    between atoms: C_22  and  O_23 
ROOT
HETATM    1  C   UNL     1       8.029  20.937  52.986  1.00  0.00     0.001 A 
HETATM    2  C   UNL     1       7.869  22.324  52.899  1.00  0.00     0.015 A 
HETATM    3  C   UNL     1       7.884  23.107  54.057  1.00  0.00     0.013 A 
HETATM    4  C   UNL     1       8.059  22.483  55.301  1.00  0.00     0.046 A 
HETATM    5  C   UNL     1       8.097  23.318  56.534  1.00  0.00     0.271 A 
HETATM    6  O   UNL     1       8.361  22.827  57.626  1.00  0.00    -0.266 OA
HETATM    7  N   UNL     1       7.836  24.664  56.417  1.00  0.00    -0.257 N 
HETATM    8  N   UNL     1       7.668  25.250  55.211  1.00  0.00    -0.229 N 
HETATM    9  C   UNL     1       7.720  24.548  54.041  1.00  0.00     0.122 A 
HETATM   10  C   UNL     1       7.448  26.586  54.955  1.00  0.00     0.162 A 
HETATM   11  N   UNL     1       7.449  26.775  53.642  1.00  0.00    -0.202 NA
HETATM   12  C   UNL     1       7.594  25.535  53.093  1.00  0.00     0.194 A 
HETATM   13  C   UNL     1       8.223  21.097  55.389  1.00  0.00     0.018 A 
HETATM   14  C   UNL     1       8.204  20.325  54.228  1.00  0.00     0.001 A 
HETATM   15  H   UNL     1       8.044  25.255  57.210  1.00  0.00     0.191 HD
ENDROOT
BRANCH  10  16
HETATM   16  C   UNL     1       7.274  27.648  55.951  1.00  0.00     0.013 A 
HETATM   17  C   UNL     1       8.410  28.283  56.478  1.00  0.00     0.031 A 
HETATM   18  C   UNL     1       8.295  29.321  57.416  1.00  0.00     0.048 A 
HETATM   19  C   UNL     1       7.016  29.719  57.831  1.00  0.00     0.016 A 
HETATM   20  C   UNL     1       5.880  29.111  57.301  1.00  0.00     0.002 A 
HETATM   21  C   UNL     1       6.008  28.088  56.358  1.00  0.00     0.015 A 
BRANCH  18  22
HETATM   22  C   UNL     1       9.519  29.993  57.987  1.00  0.00     0.417 C 
HETATM   23  F   UNL     1       9.699  31.267  57.543  1.00  0.00    -0.166 F 
HETATM   24  F   UNL     1       9.486  30.075  59.347  1.00  0.00    -0.166 F 
HETATM   25  F   UNL     1      10.665  29.325  57.681  1.00  0.00    -0.166 F 
ENDBRANCH  18  22
ENDBRANCH  10  16
BRANCH  12  26
HETATM   26  O   UNL     1       7.613  25.331  51.775  1.00  0.00    -0.343 OA
HETATM   27  H   UNL     1       6.747  25.631  51.446  1.00  0.00     0.219 HD
ENDBRANCH  12  26
TORSDOF 3
ENDMDL
MODEL 2
REMARK VINA RESULT:     -10.2      3.643      6.999
REMARK  3 active torsions:
REMARK  status: ('A' for Active; 'I' for Inactive)
REMARK    1  A    between atoms: C_10  and  C_11 
REMARK    2  A    between atoms: C_13  and  C_14 
REMARK    3  A    between atoms: C_22  and  O_23 
ROOT
HETATM    1  C   UNL     1       5.018  30.478  56.038  1.00  0.00     0.001 A 
HETATM    2  C   UNL     1       4.884  29.306  55.287  1.00  0.00     0.015 A 
HETATM    3  C   UNL     1       5.719  28.213  55.535  1.00  0.00     0.013 A 
HETATM    4  C   UNL     1       6.691  28.311  56.542  1.00  0.00     0.046 A 
HETATM    5  C   UNL     1       7.568  27.140  56.822  1.00  0.00     0.271 A 
HETATM    6  O   UNL     1       8.351  27.144  57.766  1.00  0.00    -0.266 OA
HETATM    7  N   UNL     1       7.473  26.043  55.997  1.00  0.00    -0.257 N 
HETATM    8  N   UNL     1       6.533  25.964  55.030  1.00  0.00    -0.229 N 
HETATM    9  C   UNL     1       5.639  26.970  54.793  1.00  0.00     0.122 A 
HETATM   10  C   UNL     1       6.303  24.912  54.172  1.00  0.00     0.162 A 
HETATM   11  N   UNL     1       5.223  25.177  53.449  1.00  0.00    -0.202 NA
HETATM   12  C   UNL     1       4.836  26.433  53.815  1.00  0.00     0.194 A 
HETATM   13  C   UNL     1       6.824  29.482  57.296  1.00  0.00     0.018 A 
HETATM   14  C   UNL     1       5.987  30.567  57.039  1.00  0.00     0.001 A 
HETATM   15  H   UNL     1       7.925  25.189  56.295  1.00  0.00     0.191 HD
ENDROOT
BRANCH  10  16
HETATM   16  C   UNL     1       7.086  23.675  54.078  1.00  0.00     0.013 A 
HETATM   17  C   UNL     1       7.305  22.916  55.238  1.00  0.00     0.031 A 
HETATM   18  C   UNL     1       8.029  21.714  55.197  1.00  0.00     0.048 A 
HETATM   19  C   UNL     1       8.543  21.276  53.967  1.00  0.00     0.016 A 
HETATM   20  C   UNL     1       8.315  22.011  52.805  1.00  0.00     0.002 A 
HETATM   21  C   UNL     1       7.583  23.198  52.858  1.00  0.00     0.015 A 
BRANCH  18  22
HETATM   22  C   UNL     1       8.270  20.906  56.448  1.00  0.00     0.417 C 
HETATM   23  F   UNL     1       8.268  21.650  57.587  1.00  0.00    -0.166 F 
HETATM   24  F   UNL     1       7.331  19.937  56.636  1.00  0.00    -0.166 F 
HETATM   25  F   UNL     1       9.470  20.263  56.423  1.00  0.00    -0.166 F 
ENDBRANCH  18  22
ENDBRANCH  10  16
BRANCH  12  26
HETATM   26  O   UNL     1       3.786  27.049  53.270  1.00  0.00    -0.343 OA
HETATM   27  H   UNL     1       4.026  27.213  52.341  1.00  0.00     0.219 HD
ENDBRANCH  12  26
TORSDOF 3
ENDMDL
MODEL 3
REMARK VINA RESULT:      -9.9      1.509      3.217
REMARK  3 active torsions:
REMARK  status: ('A' for Active; 'I' for Inactive)
REMARK    1  A    between atoms: C_10  and  C_11 
REMARK    2  A    between atoms: C_13  and  C_14 
REMARK    3  A    between atoms: C_22  and  O_23 
ROOT
HETATM    1  C   UNL     1       8.434  22.427  53.734  1.00  0.00     0.001 A 
HETATM    2  C   UNL     1       8.400  23.149  54.932  1.00  0.00     0.015 A 
HETATM    3  C   UNL     1       7.926  24.463  54.946  1.00  0.00     0.013 A 
HETATM    4  C   UNL     1       7.489  25.046  53.747  1.00  0.00     0.046 A 
HETATM    5  C   UNL     1       6.963  26.439  53.765  1.00  0.00     0.271 A 
HETATM    6  O   UNL     1       6.467  26.944  52.763  1.00  0.00    -0.266 OA
HETATM    7  N   UNL     1       7.040  27.149  54.941  1.00  0.00    -0.257 N 
HETATM    8  N   UNL     1       7.465  26.575  56.088  1.00  0.00    -0.229 N 
HETATM    9  C   UNL     1       7.868  25.271  56.149  1.00  0.00     0.122 A 
HETATM   10  C   UNL     1       7.546  27.157  57.333  1.00  0.00     0.162 A 
HETATM   11  N   UNL     1       7.903  26.233  58.215  1.00  0.00    -0.202 NA
HETATM   12  C   UNL     1       8.116  25.097  57.490  1.00  0.00     0.194 A 
HETATM   13  C   UNL     1       7.519  24.324  52.549  1.00  0.00     0.018 A 
HETATM   14  C   UNL     1       7.996  23.014  52.545  1.00  0.00     0.001 A 
HETATM   15  H   UNL     1       6.520  28.014  55.004  1.00  0.00     0.191 HD
ENDROOT
BRANCH  10  16
HETATM   16  C   UNL     1       7.256  28.556  57.664  1.00  0.00     0.013 A 
HETATM   17  C   UNL     1       8.261  29.342  58.248  1.00  0.00     0.031 A 
HETATM   18  C   UNL     1       8.040  30.692  58.563  1.00  0.00     0.048 A 
HETATM   19  C   UNL     1       6.785  31.255  58.287  1.00  0.00     0.016 A 
HETATM   20  C   UNL     1       5.785  30.490  57.689  1.00  0.00     0.002 A 
HETATM   21  C   UNL     1       6.022  29.151  57.370  1.00  0.00     0.015 A 
BRANCH  18  22
HETATM   22  C   UNL     1       9.121  31.531  59.200  1.00  0.00     0.417 C 
HETATM   23  F   UNL     1      10.118  31.881  58.342  1.00  0.00    -0.166 F 
HETATM   24  F   UNL     1       8.644  32.701  59.711  1.00  0.00    -0.166 F 
HETATM   25  F   UNL     1       9.727  30.890  60.237  1.00  0.00    -0.166 F 
ENDBRANCH  18  22
ENDBRANCH  10  16
BRANCH  12  26
HETATM   26  O   UNL     1       8.517  23.953  58.047  1.00  0.00    -0.343 OA
HETATM   27  H   UNL     1       7.776  23.652  58.602  1.00  0.00     0.219 HD
ENDBRANCH  12  26
TORSDOF 3
ENDMDL
MODEL 4
REMARK VINA RESULT:      -9.8      2.096      2.610
REMARK  3 active torsions:
REMARK  status: ('A' for Active; 'I' for Inactive)
REMARK    1  A    between atoms: C_10  and  C_11 
REMARK    2  A    between atoms: C_13  and  C_14 
REMARK    3  A    between atoms: C_22  and  O_23 
ROOT
HETATM    1  C   UNL     1       8.150  20.798  52.942  1.00  0.00     0.001 A 
HETATM    2  C   UNL     1       7.973  22.182  52.850  1.00  0.00     0.015 A 
HETATM    3  C   UNL     1       7.961  22.966  54.007  1.00  0.00     0.013 A 
HETATM    4  C   UNL     1       8.126  22.347  55.255  1.00  0.00     0.046 A 
HETATM    5  C   UNL     1       8.135  23.183  56.487  1.00  0.00     0.271 A 
HETATM    6  O   UNL     1       8.389  22.697  57.583  1.00  0.00    -0.266 OA
HETATM    7  N   UNL     1       7.858  24.526  56.365  1.00  0.00    -0.257 N 
HETATM    8  N   UNL     1       7.699  25.108  55.156  1.00  0.00    -0.229 N 
HETATM    9  C   UNL     1       7.777  24.405  53.987  1.00  0.00     0.122 A 
HETATM   10  C   UNL     1       7.465  26.440  54.894  1.00  0.00     0.162 A 
HETATM   11  N   UNL     1       7.483  26.628  53.582  1.00  0.00    -0.202 NA
HETATM   12  C   UNL     1       7.652  25.390  53.036  1.00  0.00     0.194 A 
HETATM   13  C   UNL     1       8.307  20.963  55.347  1.00  0.00     0.018 A 
HETATM   14  C   UNL     1       8.315  20.189  54.187  1.00  0.00     0.001 A 
HETATM   15  H   UNL     1       8.046  25.120  57.160  1.00  0.00     0.191 HD
ENDROOT
BRANCH  10  16
HETATM   16  C   UNL     1       7.262  27.501  55.886  1.00  0.00     0.013 A 
HETATM   17  C   UNL     1       6.026  28.165  55.932  1.00  0.00     0.031 A 
HETATM   18  C   UNL     1       5.774  29.173  56.877  1.00  0.00     0.048 A 
HETATM   19  C   UNL     1       6.788  29.518  57.784  1.00  0.00     0.016 A 
HETATM   20  C   UNL     1       8.012  28.853  57.760  1.00  0.00     0.002 A 
HETATM   21  C   UNL     1       8.245  27.844  56.823  1.00  0.00     0.015 A 
BRANCH  18  22
HETATM   22  C   UNL     1       4.447  29.890  56.917  1.00  0.00     0.417 C 
HETATM   23  F   UNL     1       4.432  31.048  56.201  1.00  0.00    -0.166 F 
HETATM   24  F   UNL     1       3.427  29.134  56.423  1.00  0.00    -0.166 F 
HETATM   25  F   UNL     1       4.082  30.228  58.183  1.00  0.00    -0.166 F 
ENDBRANCH  18  22
ENDBRANCH  10  16
BRANCH  12  26
HETATM   26  O   UNL     1       7.693  25.184  51.718  1.00  0.00    -0.343 OA
HETATM   27  H   UNL     1       6.840  25.501  51.372  1.00  0.00     0.219 HD
ENDBRANCH  12  26
TORSDOF 3
ENDMDL
MODEL 5
REMARK VINA RESULT:      -9.8      3.903      7.559
REMARK  3 active torsions:
REMARK  status: ('A' for Active; 'I' for Inactive)
REMARK    1  A    between atoms: C_10  and  C_11 
REMARK    2  A    between atoms: C_13  and  C_14 
REMARK    3  A    between atoms: C_22  and  O_23 
ROOT
HETATM    1  C   UNL     1       4.458  30.513  57.318  1.00  0.00     0.001 A 
HETATM    2  C   UNL     1       5.419  29.500  57.402  1.00  0.00     0.015 A 
HETATM    3  C   UNL     1       5.498  28.524  56.405  1.00  0.00     0.013 A 
HETATM    4  C   UNL     1       4.604  28.574  55.326  1.00  0.00     0.046 A 
HETATM    5  C   UNL     1       4.702  27.547  54.252  1.00  0.00     0.271 A 
HETATM    6  O   UNL     1       4.016  27.621  53.237  1.00  0.00    -0.266 OA
HETATM    7  N   UNL     1       5.591  26.511  54.420  1.00  0.00    -0.257 N 
HETATM    8  N   UNL     1       6.445  26.474  55.467  1.00  0.00    -0.229 N 
HETATM    9  C   UNL     1       6.465  27.443  56.431  1.00  0.00     0.122 A 
HETATM   10  C   UNL     1       7.408  25.525  55.727  1.00  0.00     0.162 A 
HETATM   11  N   UNL     1       8.111  25.907  56.785  1.00  0.00    -0.202 NA
HETATM   12  C   UNL     1       7.523  27.058  57.220  1.00  0.00     0.194 A 
HETATM   13  C   UNL     1       3.645  29.589  55.239  1.00  0.00     0.018 A 
HETATM   14  C   UNL     1       3.573  30.557  56.240  1.00  0.00     0.001 A 
HETATM   15  H   UNL     1       5.791  25.926  53.621  1.00  0.00     0.191 HD
ENDROOT
BRANCH  10  16
HETATM   16  C   UNL     1       7.661  24.304  54.956  1.00  0.00     0.013 A 
HETATM   17  C   UNL     1       7.788  23.082  55.635  1.00  0.00     0.031 A 
HETATM   18  C   UNL     1       8.007  21.881  54.940  1.00  0.00     0.048 A 
HETATM   19  C   UNL     1       8.105  21.917  53.541  1.00  0.00     0.016 A 
HETATM   20  C   UNL     1       7.960  23.121  52.854  1.00  0.00     0.002 A 
HETATM   21  C   UNL     1       7.730  24.306  53.557  1.00  0.00     0.015 A 
BRANCH  18  22
HETATM   22  C   UNL     1       8.153  20.571  55.675  1.00  0.00     0.417 C 
HETATM   23  F   UNL     1       6.987  20.112  56.209  1.00  0.00    -0.166 F 
HETATM   24  F   UNL     1       8.615  19.570  54.875  1.00  0.00    -0.166 F 
HETATM   25  F   UNL     1       9.030  20.656  56.712  1.00  0.00    -0.166 F 
ENDBRANCH  18  22
ENDBRANCH  10  16
BRANCH  12  26
HETATM   26  O   UNL     1       7.951  27.723  58.295  1.00  0.00    -0.343 OA
HETATM   27  H   UNL     1       8.325  27.051  58.892  1.00  0.00     0.219 HD
ENDBRANCH  12  26
TORSDOF 3
ENDMDL
MODEL 6
REMARK VINA RESULT:      -9.6      4.081      7.426
REMARK  3 active torsions:
REMARK  status: ('A' for Active; 'I' for Inactive)
REMARK    1  A    between atoms: C_10  and  C_11 
REMARK    2  A    between atoms: C_13  and  C_14 
REMARK    3  A    between atoms: C_22  and  O_23 
ROOT
HETATM    1  C   UNL     1       4.872  30.017  55.763  1.00  0.00     0.001 A 
HETATM    2  C   UNL     1       5.754  29.084  56.318  1.00  0.00     0.015 A 
HETATM    3  C   UNL     1       5.878  27.812  55.752  1.00  0.00     0.013 A 
HETATM    4  C   UNL     1       5.108  27.487  54.626  1.00  0.00     0.046 A 
HETATM    5  C   UNL     1       5.255  26.139  54.009  1.00  0.00     0.271 A 
HETATM    6  O   UNL     1       4.687  25.855  52.960  1.00  0.00    -0.266 OA
HETATM    7  N   UNL     1       6.056  25.217  54.642  1.00  0.00    -0.257 N 
HETATM    8  N   UNL     1       6.791  25.544  55.728  1.00  0.00    -0.229 N 
HETATM    9  C   UNL     1       6.768  26.795  56.278  1.00  0.00     0.122 A 
HETATM   10  C   UNL     1       7.661  24.734  56.423  1.00  0.00     0.162 A 
HETATM   11  N   UNL     1       8.270  25.459  57.352  1.00  0.00    -0.202 NA
HETATM   12  C   UNL     1       7.712  26.701  57.274  1.00  0.00     0.194 A 
HETATM   13  C   UNL     1       4.228  28.420  54.068  1.00  0.00     0.018 A 
HETATM   14  C   UNL     1       4.110  29.686  54.641  1.00  0.00     0.001 A 
HETATM   15  H   UNL     1       6.303  24.379  54.134  1.00  0.00     0.191 HD
ENDROOT
BRANCH  10  16
HETATM   16  C   UNL     1       7.917  23.312  56.174  1.00  0.00     0.013 A 
HETATM   17  C   UNL     1       7.922  22.840  54.852  1.00  0.00     0.031 A 
HETATM   18  C   UNL     1       8.184  21.492  54.560  1.00  0.00     0.048 A 
HETATM   19  C   UNL     1       8.440  20.608  55.619  1.00  0.00     0.016 A 
HETATM   20  C   UNL     1       8.457  21.068  56.935  1.00  0.00     0.002 A 
HETATM   21  C   UNL     1       8.207  22.415  57.210  1.00  0.00     0.015 A 
BRANCH  18  22
HETATM   22  C   UNL     1       8.179  20.987  53.138  1.00  0.00     0.417 C 
HETATM   23  F   UNL     1       9.279  20.253  52.816  1.00  0.00    -0.166 F 
HETATM   24  F   UNL     1       7.107  20.190  52.870  1.00  0.00    -0.166 F 
HETATM   25  F   UNL     1       8.126  22.001  52.231  1.00  0.00    -0.166 F 
ENDBRANCH  18  22
ENDBRANCH  10  16
BRANCH  12  26
HETATM   26  O   UNL     1       8.064  27.700  58.084  1.00  0.00    -0.343 OA
HETATM   27  H   UNL     1       8.723  28.222  57.594  1.00  0.00     0.219 HD
ENDBRANCH  12  26
TORSDOF 3
ENDMDL
MODEL 7
REMARK VINA RESULT:      -9.3      2.553      4.010
REMARK  3 active torsions:
REMARK  status: ('A' for Active; 'I' for Inactive)
REMARK    1  A    between atoms: C_10  and  C_11 
REMARK    2  A    between atoms: C_13  and  C_14 
REMARK    3  A    between atoms: C_22  and  O_23 
ROOT
HETATM    1  C   UNL     1       8.633  21.875  54.149  1.00  0.00     0.001 A 
HETATM    2  C   UNL     1       8.598  22.702  55.276  1.00  0.00     0.015 A 
HETATM    3  C   UNL     1       8.030  23.977  55.194  1.00  0.00     0.013 A 
HETATM    4  C   UNL     1       7.499  24.411  53.970  1.00  0.00     0.046 A 
HETATM    5  C   UNL     1       6.874  25.760  53.887  1.00  0.00     0.271 A 
HETATM    6  O   UNL     1       6.299  26.132  52.870  1.00  0.00    -0.266 OA
HETATM    7  N   UNL     1       6.950  26.582  54.988  1.00  0.00    -0.257 N 
HETATM    8  N   UNL     1       7.466  26.150  56.160  1.00  0.00    -0.229 N 
HETATM    9  C   UNL     1       7.965  24.889  56.320  1.00  0.00     0.122 A 
HETATM   10  C   UNL     1       7.558  26.852  57.341  1.00  0.00     0.162 A 
HETATM   11  N   UNL     1       8.020  26.042  58.285  1.00  0.00    -0.202 NA
HETATM   12  C   UNL     1       8.284  24.860  57.657  1.00  0.00     0.194 A 
HETATM   13  C   UNL     1       7.530  23.583  52.844  1.00  0.00     0.018 A 
HETATM   14  C   UNL     1       8.101  22.314  52.935  1.00  0.00     0.001 A 
HETATM   15  H   UNL     1       6.372  27.411  54.998  1.00  0.00     0.191 HD
ENDROOT
BRANCH  10  16
HETATM   16  C   UNL     1       7.181  28.253  57.556  1.00  0.00     0.013 A 
HETATM   17  C   UNL     1       5.857  28.649  57.309  1.00  0.00     0.031 A 
HETATM   18  C   UNL     1       5.441  29.972  57.521  1.00  0.00     0.048 A 
HETATM   19  C   UNL     1       6.376  30.910  57.984  1.00  0.00     0.016 A 
HETATM   20  C   UNL     1       7.688  30.525  58.252  1.00  0.00     0.002 A 
HETATM   21  C   UNL     1       8.086  29.201  58.049  1.00  0.00     0.015 A 
BRANCH  18  22
HETATM   22  C   UNL     1       4.019  30.396  57.244  1.00  0.00     0.417 C 
HETATM   23  F   UNL     1       3.242  30.462  58.361  1.00  0.00    -0.166 F 
HETATM   24  F   UNL     1       3.942  31.627  56.665  1.00  0.00    -0.166 F 
HETATM   25  F   UNL     1       3.383  29.543  56.396  1.00  0.00    -0.166 F 
ENDBRANCH  18  22
ENDBRANCH  10  16
BRANCH  12  26
HETATM   26  O   UNL     1       8.792  23.805  58.295  1.00  0.00    -0.343 OA
HETATM   27  H   UNL     1       8.990  23.146  57.606  1.00  0.00     0.219 HD
ENDBRANCH  12  26
TORSDOF 3
ENDMDL
MODEL 8
REMARK VINA RESULT:      -9.2      4.709      7.380
REMARK  3 active torsions:
REMARK  status: ('A' for Active; 'I' for Inactive)
REMARK    1  A    between atoms: C_10  and  C_11 
REMARK    2  A    between atoms: C_13  and  C_14 
REMARK    3  A    between atoms: C_22  and  O_23 
ROOT
HETATM    1  C   UNL     1       3.698  30.423  51.951  1.00  0.00     0.001 A 
HETATM    2  C   UNL     1       4.387  29.239  51.667  1.00  0.00     0.015 A 
HETATM    3  C   UNL     1       4.797  28.398  52.705  1.00  0.00     0.013 A 
HETATM    4  C   UNL     1       4.508  28.757  54.030  1.00  0.00     0.046 A 
HETATM    5  C   UNL     1       4.924  27.852  55.136  1.00  0.00     0.271 A 
HETATM    6  O   UNL     1       4.593  28.071  56.297  1.00  0.00    -0.266 OA
HETATM    7  N   UNL     1       5.687  26.750  54.824  1.00  0.00    -0.257 N 
HETATM    8  N   UNL     1       5.959  26.417  53.543  1.00  0.00    -0.229 N 
HETATM    9  C   UNL     1       5.519  27.160  52.484  1.00  0.00     0.122 A 
HETATM   10  C   UNL     1       6.667  25.324  53.095  1.00  0.00     0.162 A 
HETATM   11  N   UNL     1       6.615  25.294  51.770  1.00  0.00    -0.202 NA
HETATM   12  C   UNL     1       5.936  26.419  51.404  1.00  0.00     0.194 A 
HETATM   13  C   UNL     1       3.815  29.939  54.315  1.00  0.00     0.018 A 
HETATM   14  C   UNL     1       3.413  30.772  53.272  1.00  0.00     0.001 A 
HETATM   15  H   UNL     1       5.809  26.043  55.536  1.00  0.00     0.191 HD
ENDROOT
BRANCH  10  16
HETATM   16  C   UNL     1       7.344  24.323  53.926  1.00  0.00     0.013 A 
HETATM   17  C   UNL     1       7.486  23.015  53.439  1.00  0.00     0.031 A 
HETATM   18  C   UNL     1       8.146  22.026  54.186  1.00  0.00     0.048 A 
HETATM   19  C   UNL     1       8.666  22.364  55.445  1.00  0.00     0.016 A 
HETATM   20  C   UNL     1       8.549  23.665  55.931  1.00  0.00     0.002 A 
HETATM   21  C   UNL     1       7.901  24.642  55.172  1.00  0.00     0.015 A 
BRANCH  18  22
HETATM   22  C   UNL     1       8.288  20.618  53.662  1.00  0.00     0.417 C 
HETATM   23  F   UNL     1       9.383  20.436  52.875  1.00  0.00    -0.166 F 
HETATM   24  F   UNL     1       8.390  19.696  54.660  1.00  0.00    -0.166 F 
HETATM   25  F   UNL     1       7.219  20.238  52.910  1.00  0.00    -0.166 F 
ENDBRANCH  18  22
ENDBRANCH  10  16
BRANCH  12  26
HETATM   26  O   UNL     1       5.711  26.739  50.129  1.00  0.00    -0.343 OA
HETATM   27  H   UNL     1       5.815  25.914  49.624  1.00  0.00     0.219 HD
ENDBRANCH  12  26
TORSDOF 3
ENDMDL
MODEL 9
REMARK VINA RESULT:      -9.0      3.851      7.564
REMARK  3 active torsions:
REMARK  status: ('A' for Active; 'I' for Inactive)
REMARK    1  A    between atoms: C_10  and  C_11 
REMARK    2  A    between atoms: C_13  and  C_14 
REMARK    3  A    between atoms: C_22  and  O_23 
ROOT
HETATM    1  C   UNL     1       4.506  31.826  57.717  1.00  0.00     0.001 A 
HETATM    2  C   UNL     1       5.491  30.853  57.920  1.00  0.00     0.015 A 
HETATM    3  C   UNL     1       5.530  29.714  57.112  1.00  0.00     0.013 A 
HETATM    4  C   UNL     1       4.571  29.561  56.099  1.00  0.00     0.046 A 
HETATM    5  C   UNL     1       4.624  28.359  55.222  1.00  0.00     0.271 A 
HETATM    6  O   UNL     1       3.877  28.243  54.257  1.00  0.00    -0.266 OA
HETATM    7  N   UNL     1       5.543  27.378  55.517  1.00  0.00    -0.257 N 
HETATM    8  N   UNL     1       6.460  27.538  56.497  1.00  0.00    -0.229 N 
HETATM    9  C   UNL     1       6.518  28.664  57.269  1.00  0.00     0.122 A 
HETATM   10  C   UNL     1       7.456  26.660  56.861  1.00  0.00     0.162 A 
HETATM   11  N   UNL     1       8.214  27.232  57.787  1.00  0.00    -0.202 NA
HETATM   12  C   UNL     1       7.630  28.438  58.045  1.00  0.00     0.194 A 
HETATM   13  C   UNL     1       3.588  30.535  55.893  1.00  0.00     0.018 A 
HETATM   14  C   UNL     1       3.556  31.667  56.707  1.00  0.00     0.001 A 
HETATM   15  H   UNL     1       5.706  26.661  54.824  1.00  0.00     0.191 HD
ENDROOT
BRANCH  10  16
HETATM   16  C   UNL     1       7.686  25.322  56.306  1.00  0.00     0.013 A 
HETATM   17  C   UNL     1       7.523  25.118  54.927  1.00  0.00     0.031 A 
HETATM   18  C   UNL     1       7.752  23.862  54.344  1.00  0.00     0.048 A 
HETATM   19  C   UNL     1       8.147  22.796  55.167  1.00  0.00     0.016 A 
HETATM   20  C   UNL     1       8.332  22.991  56.535  1.00  0.00     0.002 A 
HETATM   21  C   UNL     1       8.112  24.250  57.099  1.00  0.00     0.015 A 
BRANCH  18  22
HETATM   22  C   UNL     1       7.566  23.644  52.863  1.00  0.00     0.417 C 
HETATM   23  F   UNL     1       8.294  24.496  52.090  1.00  0.00    -0.166 F 
HETATM   24  F   UNL     1       7.923  22.389  52.468  1.00  0.00    -0.166 F 
HETATM   25  F   UNL     1       6.271  23.802  52.477  1.00  0.00    -0.166 F 
ENDBRANCH  18  22
ENDBRANCH  10  16
BRANCH  12  26
HETATM   26  O   UNL     1       8.109  29.289  58.954  1.00  0.00    -0.343 OA
HETATM   27  H   UNL     1       7.797  28.961  59.816  1.00  0.00     0.219 HD
ENDBRANCH  12  26
TORSDOF 3
ENDMDL
MODEL 10
REMARK VINA RESULT:      -9.0      5.807      9.513
REMARK  3 active torsions:
REMARK  status: ('A' for Active; 'I' for Inactive)
REMARK    1  A    between atoms: C_10  and  C_11 
REMARK    2  A    between atoms: C_13  and  C_14 
REMARK    3  A    between atoms: C_22  and  O_23 
ROOT
HETATM    1  C   UNL     1       6.258  34.703  64.081  1.00  0.00     0.001 A 
HETATM    2  C   UNL     1       5.884  34.352  62.779  1.00  0.00     0.015 A 
HETATM    3  C   UNL     1       6.433  33.219  62.172  1.00  0.00     0.013 A 
HETATM    4  C   UNL     1       7.360  32.444  62.884  1.00  0.00     0.046 A 
HETATM    5  C   UNL     1       7.929  31.224  62.247  1.00  0.00     0.271 A 
HETATM    6  O   UNL     1       8.653  30.458  62.874  1.00  0.00    -0.266 OA
HETATM    7  N   UNL     1       7.615  30.969  60.932  1.00  0.00    -0.257 N 
HETATM    8  N   UNL     1       6.721  31.726  60.258  1.00  0.00    -0.229 N 
HETATM    9  C   UNL     1       6.095  32.800  60.825  1.00  0.00     0.122 A 
HETATM   10  C   UNL     1       6.287  31.552  58.963  1.00  0.00     0.162 A 
HETATM   11  N   UNL     1       5.327  32.433  58.711  1.00  0.00    -0.202 NA
HETATM   12  C   UNL     1       5.229  33.199  59.836  1.00  0.00     0.194 A 
HETATM   13  C   UNL     1       7.732  32.792  64.187  1.00  0.00     0.018 A 
HETATM   14  C   UNL     1       7.180  33.925  64.783  1.00  0.00     0.001 A 
HETATM   15  H   UNL     1       7.843  30.057  60.561  1.00  0.00     0.191 HD
ENDROOT
BRANCH  10  16
HETATM   16  C   UNL     1       6.764  30.545  58.010  1.00  0.00     0.013 A 
HETATM   17  C   UNL     1       8.107  30.574  57.601  1.00  0.00     0.031 A 
HETATM   18  C   UNL     1       8.618  29.619  56.708  1.00  0.00     0.048 A 
HETATM   19  C   UNL     1       7.759  28.624  56.218  1.00  0.00     0.016 A 
HETATM   20  C   UNL     1       6.429  28.572  56.632  1.00  0.00     0.002 A 
HETATM   21  C   UNL     1       5.937  29.522  57.530  1.00  0.00     0.015 A 
BRANCH  18  22
HETATM   22  C   UNL     1      10.059  29.660  56.264  1.00  0.00     0.417 C 
HETATM   23  F   UNL     1      10.822  28.665  56.794  1.00  0.00    -0.166 F 
HETATM   24  F   UNL     1      10.194  29.552  54.912  1.00  0.00    -0.166 F 
HETATM   25  F   UNL     1      10.672  30.826  56.608  1.00  0.00    -0.166 F 
ENDBRANCH  18  22
ENDBRANCH  10  16
BRANCH  12  26
HETATM   26  O   UNL     1       4.373  34.217  59.939  1.00  0.00    -0.343 OA
HETATM   27  H   UNL     1       4.297  34.594  59.045  1.00  0.00     0.219 HD
ENDBRANCH  12  26
TORSDOF 3
ENDMDL
