MODEL 1
REMARK VINA RESULT:      -9.1      0.000      0.000
REMARK  6 active torsions:
REMARK  status: ('A' for Active; 'I' for Inactive)
REMARK    1  A    between atoms: C_2  and  O_3 
REMARK    2  A    between atoms: C_2  and  C_4 
REMARK    3  A    between atoms: C_6  and  N_7 
REMARK       I    between atoms: N_7  and  C_8 
REMARK    4  A    between atoms: C_8  and  C_9 
REMARK    5  A    between atoms: C_12  and  C_13 
REMARK    6  A    between atoms: C_18  and  C_19 
ROOT
HETATM    1  C   UNL     1       6.787  26.706  56.303  1.00  0.00     0.096 A 
HETATM    2  C   UNL     1       6.090  26.353  55.161  1.00  0.00     0.138 A 
HETATM    3  N   UNL     1       6.748  25.285  54.615  1.00  0.00    -0.240 N 
HETATM    4  C   UNL     1       6.385  24.649  53.362  1.00  0.00     0.221 C 
HETATM    5  C   UNL     1       4.929  24.990  52.992  1.00  0.00     0.068 C 
HETATM    6  C   UNL     1       4.545  26.461  53.243  1.00  0.00     0.143 C 
HETATM    7  N   UNL     1       4.974  26.853  54.583  1.00  0.00    -0.363 N 
HETATM    8  N   UNL     1       7.766  24.839  55.367  1.00  0.00    -0.181 NA
HETATM    9  C   UNL     1       7.806  25.719  56.374  1.00  0.00     0.160 A 
HETATM   10  H   UNL     1       4.588  27.733  54.936  1.00  0.00     0.162 HD
ENDROOT
BRANCH   1  11
HETATM   11  C   UNL     1       6.472  27.837  57.173  1.00  0.00     0.261 C 
HETATM   12  N   UNL     1       7.575  28.563  57.589  1.00  0.00    -0.323 N 
HETATM   13  H   UNL     1       8.481  28.253  57.272  1.00  0.00     0.169 HD
HETATM   14  O   UNL     1       5.308  28.090  57.469  1.00  0.00    -0.267 OA
BRANCH  12  15
HETATM   15  C   UNL     1       7.593  29.717  58.404  1.00  0.00     0.035 A 
HETATM   16  C   UNL     1       8.350  29.845  59.572  1.00  0.00     0.039 A 
HETATM   17  C   UNL     1       8.311  31.023  60.341  1.00  0.00    -0.028 A 
HETATM   18  C   UNL     1       7.507  32.085  59.910  1.00  0.00     0.010 A 
HETATM   19  C   UNL     1       6.749  31.970  58.747  1.00  0.00     0.003 A 
HETATM   20  C   UNL     1       6.794  30.792  57.998  1.00  0.00     0.029 A 
BRANCH  17  21
HETATM   21  C   UNL     1       9.164  31.130  61.587  1.00  0.00     0.147 C 
HETATM   22  C   UNL     1       8.552  32.090  62.599  1.00  0.00     0.044 C 
BRANCH  21  23
HETATM   23  O   UNL     1       9.311  29.846  62.191  1.00  0.00    -0.391 OA
HETATM   24  H   UNL     1       8.889  29.204  61.597  1.00  0.00     0.210 HD
ENDBRANCH  21  23
ENDBRANCH  17  21
ENDBRANCH  12  15
ENDBRANCH   1  11
BRANCH   4  25
HETATM   25  C   UNL     1       7.394  25.010  52.294  1.00  0.00     0.409 C 
HETATM   26  F   UNL     1       6.859  25.154  51.066  1.00  0.00    -0.169 F 
HETATM   27  F   UNL     1       8.046  26.161  52.584  1.00  0.00    -0.169 F 
HETATM   28  F   UNL     1       8.352  24.051  52.206  1.00  0.00    -0.169 F 
ENDBRANCH   4  25
BRANCH   6  29
HETATM   29  C   UNL     1       4.978  27.384  52.150  1.00  0.00     0.075 A 
HETATM   30  O   UNL     1       4.605  27.048  50.881  1.00  0.00    -0.325 OA
HETATM   31  C   UNL     1       5.082  28.015  50.056  1.00  0.00     0.142 A 
HETATM   32  C   UNL     1       5.749  28.977  50.776  1.00  0.00     0.027 A 
HETATM   33  C   UNL     1       5.676  28.576  52.130  1.00  0.00     0.037 A 
ENDBRANCH   6  29
TORSDOF 6
ENDMDL
MODEL 2
REMARK VINA RESULT:      -9.0      5.323      7.354
REMARK  6 active torsions:
REMARK  status: ('A' for Active; 'I' for Inactive)
REMARK    1  A    between atoms: C_2  and  O_3 
REMARK    2  A    between atoms: C_2  and  C_4 
REMARK    3  A    between atoms: C_6  and  N_7 
REMARK       I    between atoms: N_7  and  C_8 
REMARK    4  A    between atoms: C_8  and  C_9 
REMARK    5  A    between atoms: C_12  and  C_13 
REMARK    6  A    between atoms: C_18  and  C_19 
ROOT
HETATM    1  C   UNL     1       5.160  26.681  52.946  1.00  0.00     0.096 A 
HETATM    2  C   UNL     1       5.212  27.280  51.699  1.00  0.00     0.138 A 
HETATM    3  N   UNL     1       4.598  28.495  51.823  1.00  0.00    -0.240 N 
HETATM    4  C   UNL     1       4.372  29.418  50.726  1.00  0.00     0.221 C 
HETATM    5  C   UNL     1       5.316  29.093  49.553  1.00  0.00     0.068 C 
HETATM    6  C   UNL     1       5.468  27.587  49.267  1.00  0.00     0.143 C 
HETATM    7  N   UNL     1       5.734  26.880  50.517  1.00  0.00    -0.363 N 
HETATM    8  N   UNL     1       4.237  28.790  53.082  1.00  0.00    -0.181 NA
HETATM    9  C   UNL     1       4.552  27.677  53.754  1.00  0.00     0.160 A 
HETATM   10  H   UNL     1       6.060  25.914  50.423  1.00  0.00     0.162 HD
ENDROOT
BRANCH   1  11
HETATM   11  C   UNL     1       5.647  25.340  53.263  1.00  0.00     0.261 C 
HETATM   12  N   UNL     1       6.538  25.290  54.322  1.00  0.00    -0.323 N 
HETATM   13  H   UNL     1       6.776  26.162  54.769  1.00  0.00     0.169 HD
HETATM   14  O   UNL     1       5.257  24.367  52.623  1.00  0.00    -0.267 OA
BRANCH  12  15
HETATM   15  C   UNL     1       7.155  24.148  54.879  1.00  0.00     0.035 A 
HETATM   16  C   UNL     1       7.232  22.906  54.244  1.00  0.00     0.039 A 
HETATM   17  C   UNL     1       7.855  21.806  54.865  1.00  0.00    -0.028 A 
HETATM   18  C   UNL     1       8.415  21.976  56.137  1.00  0.00     0.010 A 
HETATM   19  C   UNL     1       8.345  23.210  56.780  1.00  0.00     0.003 A 
HETATM   20  C   UNL     1       7.719  24.290  56.153  1.00  0.00     0.029 A 
BRANCH  17  21
HETATM   21  C   UNL     1       7.938  20.484  54.133  1.00  0.00     0.147 C 
HETATM   22  C   UNL     1       8.367  20.677  52.684  1.00  0.00     0.044 C 
BRANCH  21  23
HETATM   23  O   UNL     1       8.870  19.622  54.784  1.00  0.00    -0.391 OA
HETATM   24  H   UNL     1       9.751  20.013  54.661  1.00  0.00     0.210 HD
ENDBRANCH  21  23
ENDBRANCH  17  21
ENDBRANCH  12  15
ENDBRANCH   1  11
BRANCH   4  25
HETATM   25  C   UNL     1       2.906  29.423  50.355  1.00  0.00     0.409 C 
HETATM   26  F   UNL     1       2.325  28.209  50.409  1.00  0.00    -0.169 F 
HETATM   27  F   UNL     1       2.187  30.247  51.154  1.00  0.00    -0.169 F 
HETATM   28  F   UNL     1       2.741  29.893  49.091  1.00  0.00    -0.169 F 
ENDBRANCH   4  25
BRANCH   6  29
HETATM   29  C   UNL     1       4.352  27.020  48.450  1.00  0.00     0.075 A 
HETATM   30  O   UNL     1       3.829  25.831  48.870  1.00  0.00    -0.325 OA
HETATM   31  C   UNL     1       2.831  25.508  48.007  1.00  0.00     0.142 A 
HETATM   32  C   UNL     1       2.695  26.478  47.043  1.00  0.00     0.027 A 
HETATM   33  C   UNL     1       3.671  27.460  47.332  1.00  0.00     0.037 A 
ENDBRANCH   6  29
TORSDOF 6
ENDMDL
MODEL 3
REMARK VINA RESULT:      -9.0      4.971      6.966
REMARK  6 active torsions:
REMARK  status: ('A' for Active; 'I' for Inactive)
REMARK    1  A    between atoms: C_2  and  O_3 
REMARK    2  A    between atoms: C_2  and  C_4 
REMARK    3  A    between atoms: C_6  and  N_7 
REMARK       I    between atoms: N_7  and  C_8 
REMARK    4  A    between atoms: C_8  and  C_9 
REMARK    5  A    between atoms: C_12  and  C_13 
REMARK    6  A    between atoms: C_18  and  C_19 
ROOT
HETATM    1  C   UNL     1       5.292  28.743  51.995  1.00  0.00     0.096 A 
HETATM    2  C   UNL     1       5.056  28.688  50.633  1.00  0.00     0.138 A 
HETATM    3  N   UNL     1       4.067  29.595  50.369  1.00  0.00    -0.240 N 
HETATM    4  C   UNL     1       3.468  29.802  49.064  1.00  0.00     0.221 C 
HETATM    5  C   UNL     1       4.393  29.255  47.960  1.00  0.00     0.068 C 
HETATM    6  C   UNL     1       5.041  27.898  48.298  1.00  0.00     0.143 C 
HETATM    7  N   UNL     1       5.611  27.954  49.641  1.00  0.00    -0.363 N 
HETATM    8  N   UNL     1       3.704  30.321  51.438  1.00  0.00    -0.181 NA
HETATM    9  C   UNL     1       4.426  29.783  52.428  1.00  0.00     0.160 A 
HETATM   10  H   UNL     1       6.246  27.190  49.889  1.00  0.00     0.162 HD
ENDROOT
BRANCH   1  11
HETATM   11  C   UNL     1       6.232  27.898  52.728  1.00  0.00     0.261 C 
HETATM   12  N   UNL     1       5.908  26.552  52.733  1.00  0.00    -0.323 N 
HETATM   13  H   UNL     1       5.067  26.276  52.250  1.00  0.00     0.169 HD
HETATM   14  O   UNL     1       7.222  28.388  53.266  1.00  0.00    -0.267 OA
BRANCH  12  15
HETATM   15  C   UNL     1       6.628  25.491  53.326  1.00  0.00     0.035 A 
HETATM   16  C   UNL     1       6.772  25.311  54.704  1.00  0.00     0.039 A 
HETATM   17  C   UNL     1       7.515  24.234  55.225  1.00  0.00    -0.028 A 
HETATM   18  C   UNL     1       8.103  23.326  54.336  1.00  0.00     0.010 A 
HETATM   19  C   UNL     1       7.965  23.495  52.961  1.00  0.00     0.003 A 
HETATM   20  C   UNL     1       7.231  24.571  52.459  1.00  0.00     0.029 A 
BRANCH  17  21
HETATM   21  C   UNL     1       7.627  24.061  56.724  1.00  0.00     0.147 C 
HETATM   22  C   UNL     1       9.006  24.468  57.230  1.00  0.00     0.044 C 
BRANCH  21  23
HETATM   23  O   UNL     1       6.637  24.848  57.384  1.00  0.00    -0.391 OA
HETATM   24  H   UNL     1       6.591  25.696  56.912  1.00  0.00     0.210 HD
ENDBRANCH  21  23
ENDBRANCH  17  21
ENDBRANCH  12  15
ENDBRANCH   1  11
BRANCH   4  25
HETATM   25  C   UNL     1       2.071  29.222  49.043  1.00  0.00     0.409 C 
HETATM   26  F   UNL     1       1.931  28.110  49.790  1.00  0.00    -0.169 F 
HETATM   27  F   UNL     1       1.149  30.114  49.475  1.00  0.00    -0.169 F 
HETATM   28  F   UNL     1       1.713  28.901  47.773  1.00  0.00    -0.169 F 
ENDBRANCH   4  25
BRANCH   6  29
HETATM   29  C   UNL     1       4.143  26.730  48.045  1.00  0.00     0.075 A 
HETATM   30  O   UNL     1       3.520  26.689  46.831  1.00  0.00    -0.325 OA
HETATM   31  C   UNL     1       2.774  25.554  46.804  1.00  0.00     0.142 A 
HETATM   32  C   UNL     1       2.917  24.856  47.980  1.00  0.00     0.027 A 
HETATM   33  C   UNL     1       3.806  25.610  48.780  1.00  0.00     0.037 A 
ENDBRANCH   6  29
TORSDOF 6
ENDMDL
MODEL 4
REMARK VINA RESULT:      -8.7      3.976      8.384
REMARK  6 active torsions:
REMARK  status: ('A' for Active; 'I' for Inactive)
REMARK    1  A    between atoms: C_2  and  O_3 
REMARK    2  A    between atoms: C_2  and  C_4 
REMARK    3  A    between atoms: C_6  and  N_7 
REMARK       I    between atoms: N_7  and  C_8 
REMARK    4  A    between atoms: C_8  and  C_9 
REMARK    5  A    between atoms: C_12  and  C_13 
REMARK    6  A    between atoms: C_18  and  C_19 
ROOT
HETATM    1  C   UNL     1       5.014  28.264  53.990  1.00  0.00     0.096 A 
HETATM    2  C   UNL     1       5.225  27.105  54.715  1.00  0.00     0.138 A 
HETATM    3  N   UNL     1       5.843  27.477  55.877  1.00  0.00    -0.240 N 
HETATM    4  C   UNL     1       6.307  26.551  56.893  1.00  0.00     0.221 C 
HETATM    5  C   UNL     1       5.599  25.191  56.741  1.00  0.00     0.068 C 
HETATM    6  C   UNL     1       5.456  24.717  55.282  1.00  0.00     0.143 C 
HETATM    7  N   UNL     1       4.930  25.808  54.466  1.00  0.00    -0.363 N 
HETATM    8  N   UNL     1       5.961  28.806  56.022  1.00  0.00    -0.181 NA
HETATM    9  C   UNL     1       5.486  29.279  54.864  1.00  0.00     0.160 A 
HETATM   10  H   UNL     1       4.597  25.548  53.534  1.00  0.00     0.162 HD
ENDROOT
BRANCH   1  11
HETATM   11  C   UNL     1       4.432  28.333  52.651  1.00  0.00     0.261 C 
HETATM   12  N   UNL     1       5.324  28.071  51.624  1.00  0.00    -0.323 N 
HETATM   13  H   UNL     1       6.278  27.867  51.880  1.00  0.00     0.169 HD
HETATM   14  O   UNL     1       3.241  28.592  52.502  1.00  0.00    -0.267 OA
BRANCH  12  15
HETATM   15  C   UNL     1       5.059  28.033  50.237  1.00  0.00     0.035 A 
HETATM   16  C   UNL     1       4.578  26.911  49.558  1.00  0.00     0.039 A 
HETATM   17  C   UNL     1       4.346  26.943  48.169  1.00  0.00    -0.028 A 
HETATM   18  C   UNL     1       4.590  28.131  47.471  1.00  0.00     0.010 A 
HETATM   19  C   UNL     1       5.068  29.257  48.137  1.00  0.00     0.003 A 
HETATM   20  C   UNL     1       5.300  29.207  49.513  1.00  0.00     0.029 A 
BRANCH  17  21
HETATM   21  C   UNL     1       3.802  25.713  47.475  1.00  0.00     0.147 C 
HETATM   22  C   UNL     1       3.127  24.769  48.463  1.00  0.00     0.044 C 
BRANCH  21  23
HETATM   23  O   UNL     1       2.860  26.091  46.473  1.00  0.00    -0.391 OA
HETATM   24  H   UNL     1       2.054  25.574  46.634  1.00  0.00     0.210 HD
ENDBRANCH  21  23
ENDBRANCH  17  21
ENDBRANCH  12  15
ENDBRANCH   1  11
BRANCH   4  25
HETATM   25  C   UNL     1       7.817  26.467  56.858  1.00  0.00     0.409 C 
HETATM   26  F   UNL     1       8.433  27.416  57.590  1.00  0.00    -0.169 F 
HETATM   27  F   UNL     1       8.266  25.268  57.300  1.00  0.00    -0.169 F 
HETATM   28  F   UNL     1       8.268  26.586  55.583  1.00  0.00    -0.169 F 
ENDBRANCH   4  25
BRANCH   6  29
HETATM   29  C   UNL     1       6.691  24.069  54.743  1.00  0.00     0.075 A 
HETATM   30  O   UNL     1       7.276  23.118  55.529  1.00  0.00    -0.325 OA
HETATM   31  C   UNL     1       8.359  22.654  54.853  1.00  0.00     0.142 A 
HETATM   32  C   UNL     1       8.475  23.284  53.637  1.00  0.00     0.027 A 
HETATM   33  C   UNL     1       7.394  24.193  53.561  1.00  0.00     0.037 A 
ENDBRANCH   6  29
TORSDOF 6
ENDMDL
MODEL 5
REMARK VINA RESULT:      -8.6      2.899      4.362
REMARK  6 active torsions:
REMARK  status: ('A' for Active; 'I' for Inactive)
REMARK    1  A    between atoms: C_2  and  O_3 
REMARK    2  A    between atoms: C_2  and  C_4 
REMARK    3  A    between atoms: C_6  and  N_7 
REMARK       I    between atoms: N_7  and  C_8 
REMARK    4  A    between atoms: C_8  and  C_9 
REMARK    5  A    between atoms: C_12  and  C_13 
REMARK    6  A    between atoms: C_18  and  C_19 
ROOT
HETATM    1  C   UNL     1       7.855  30.125  58.356  1.00  0.00     0.096 A 
HETATM    2  C   UNL     1       6.993  29.261  57.703  1.00  0.00     0.138 A 
HETATM    3  N   UNL     1       7.770  28.450  56.922  1.00  0.00    -0.240 N 
HETATM    4  C   UNL     1       7.252  27.444  56.014  1.00  0.00     0.221 C 
HETATM    5  C   UNL     1       5.806  27.072  56.396  1.00  0.00     0.068 C 
HETATM    6  C   UNL     1       4.929  28.279  56.781  1.00  0.00     0.143 C 
HETATM    7  N   UNL     1       5.649  29.117  57.736  1.00  0.00    -0.363 N 
HETATM    8  N   UNL     1       9.088  28.644  57.088  1.00  0.00    -0.181 NA
HETATM    9  C   UNL     1       9.135  29.679  57.935  1.00  0.00     0.160 A 
HETATM   10  H   UNL     1       5.089  29.824  58.221  1.00  0.00     0.162 HD
ENDROOT
BRANCH   1  11
HETATM   11  C   UNL     1       7.453  31.206  59.253  1.00  0.00     0.261 C 
HETATM   12  N   UNL     1       7.527  30.890  60.600  1.00  0.00    -0.323 N 
HETATM   13  H   UNL     1       7.837  29.962  60.842  1.00  0.00     0.169 HD
HETATM   14  O   UNL     1       7.099  32.292  58.801  1.00  0.00    -0.267 OA
BRANCH  12  15
HETATM   15  C   UNL     1       7.236  31.726  61.701  1.00  0.00     0.035 A 
HETATM   16  C   UNL     1       5.988  32.310  61.937  1.00  0.00     0.039 A 
HETATM   17  C   UNL     1       5.773  33.143  63.052  1.00  0.00    -0.028 A 
HETATM   18  C   UNL     1       6.830  33.369  63.941  1.00  0.00     0.010 A 
HETATM   19  C   UNL     1       8.077  32.791  63.717  1.00  0.00     0.003 A 
HETATM   20  C   UNL     1       8.278  31.973  62.603  1.00  0.00     0.029 A 
BRANCH  17  21
HETATM   21  C   UNL     1       4.400  33.737  63.285  1.00  0.00     0.147 C 
HETATM   22  C   UNL     1       3.379  33.182  62.300  1.00  0.00     0.044 C 
BRANCH  21  23
HETATM   23  O   UNL     1       3.965  33.459  64.615  1.00  0.00    -0.391 OA
HETATM   24  H   UNL     1       3.624  34.292  64.980  1.00  0.00     0.210 HD
ENDBRANCH  21  23
ENDBRANCH  17  21
ENDBRANCH  12  15
ENDBRANCH   1  11
BRANCH   4  25
HETATM   25  C   UNL     1       7.411  27.913  54.584  1.00  0.00     0.409 C 
HETATM   26  F   UNL     1       6.636  27.250  53.703  1.00  0.00    -0.169 F 
HETATM   27  F   UNL     1       7.129  29.231  54.452  1.00  0.00    -0.169 F 
HETATM   28  F   UNL     1       8.698  27.765  54.179  1.00  0.00    -0.169 F 
ENDBRANCH   4  25
BRANCH   6  29
HETATM   29  C   UNL     1       4.369  29.008  55.603  1.00  0.00     0.075 A 
HETATM   30  O   UNL     1       3.975  28.246  54.542  1.00  0.00    -0.325 OA
HETATM   31  C   UNL     1       3.490  29.095  53.599  1.00  0.00     0.142 A 
HETATM   32  C   UNL     1       3.554  30.394  54.042  1.00  0.00     0.027 A 
HETATM   33  C   UNL     1       4.114  30.340  55.340  1.00  0.00     0.037 A 
ENDBRANCH   6  29
TORSDOF 6
ENDMDL
MODEL 6
REMARK VINA RESULT:      -8.6      2.260      3.595
REMARK  6 active torsions:
REMARK  status: ('A' for Active; 'I' for Inactive)
REMARK    1  A    between atoms: C_2  and  O_3 
REMARK    2  A    between atoms: C_2  and  C_4 
REMARK    3  A    between atoms: C_6  and  N_7 
REMARK       I    between atoms: N_7  and  C_8 
REMARK    4  A    between atoms: C_8  and  C_9 
REMARK    5  A    between atoms: C_12  and  C_13 
REMARK    6  A    between atoms: C_18  and  C_19 
ROOT
HETATM    1  C   UNL     1       6.468  28.218  55.810  1.00  0.00     0.096 A 
HETATM    2  C   UNL     1       6.741  27.481  54.671  1.00  0.00     0.138 A 
HETATM    3  N   UNL     1       5.544  27.266  54.048  1.00  0.00    -0.240 N 
HETATM    4  C   UNL     1       5.374  26.468  52.848  1.00  0.00     0.221 C 
HETATM    5  C   UNL     1       6.719  26.317  52.112  1.00  0.00     0.068 C 
HETATM    6  C   UNL     1       7.918  26.053  53.043  1.00  0.00     0.143 C 
HETATM    7  N   UNL     1       7.895  27.010  54.146  1.00  0.00    -0.363 N 
HETATM    8  N   UNL     1       4.511  27.894  54.633  1.00  0.00    -0.181 NA
HETATM    9  C   UNL     1       5.070  28.446  55.717  1.00  0.00     0.160 A 
HETATM   10  H   UNL     1       8.752  27.068  54.705  1.00  0.00     0.162 HD
ENDROOT
BRANCH   1  11
HETATM   11  C   UNL     1       7.451  28.626  56.812  1.00  0.00     0.261 C 
HETATM   12  N   UNL     1       7.281  29.916  57.288  1.00  0.00    -0.323 N 
HETATM   13  H   UNL     1       6.518  30.454  56.907  1.00  0.00     0.169 HD
HETATM   14  O   UNL     1       8.327  27.848  57.179  1.00  0.00    -0.267 OA
BRANCH  12  15
HETATM   15  C   UNL     1       8.045  30.581  58.273  1.00  0.00     0.035 A 
HETATM   16  C   UNL     1       7.578  30.897  59.551  1.00  0.00     0.039 A 
HETATM   17  C   UNL     1       8.394  31.572  60.480  1.00  0.00    -0.028 A 
HETATM   18  C   UNL     1       9.700  31.914  60.109  1.00  0.00     0.010 A 
HETATM   19  C   UNL     1      10.177  31.603  58.838  1.00  0.00     0.003 A 
HETATM   20  C   UNL     1       9.354  30.940  57.926  1.00  0.00     0.029 A 
BRANCH  17  21
HETATM   21  C   UNL     1       7.858  31.875  61.862  1.00  0.00     0.147 C 
HETATM   22  C   UNL     1       7.069  33.178  61.880  1.00  0.00     0.044 C 
BRANCH  21  23
HETATM   23  O   UNL     1       7.013  30.813  62.304  1.00  0.00    -0.391 OA
HETATM   24  H   UNL     1       6.835  30.968  63.246  1.00  0.00     0.210 HD
ENDBRANCH  21  23
ENDBRANCH  17  21
ENDBRANCH  12  15
ENDBRANCH   1  11
BRANCH   4  25
HETATM   25  C   UNL     1       4.710  25.153  53.196  1.00  0.00     0.409 C 
HETATM   26  F   UNL     1       4.903  24.185  52.279  1.00  0.00    -0.169 F 
HETATM   27  F   UNL     1       5.143  24.670  54.385  1.00  0.00    -0.169 F 
HETATM   28  F   UNL     1       3.370  25.322  53.329  1.00  0.00    -0.169 F 
ENDBRANCH   4  25
BRANCH   6  29
HETATM   29  C   UNL     1       8.049  24.622  53.455  1.00  0.00     0.075 A 
HETATM   30  O   UNL     1       8.217  24.382  54.788  1.00  0.00    -0.325 OA
HETATM   31  C   UNL     1       8.297  23.035  54.943  1.00  0.00     0.142 A 
HETATM   32  C   UNL     1       8.173  22.402  53.730  1.00  0.00     0.027 A 
HETATM   33  C   UNL     1       8.004  23.425  52.768  1.00  0.00     0.037 A 
ENDBRANCH   6  29
TORSDOF 6
ENDMDL
MODEL 7
REMARK VINA RESULT:      -8.5      1.389      2.084
REMARK  6 active torsions:
REMARK  status: ('A' for Active; 'I' for Inactive)
REMARK    1  A    between atoms: C_2  and  O_3 
REMARK    2  A    between atoms: C_2  and  C_4 
REMARK    3  A    between atoms: C_6  and  N_7 
REMARK       I    between atoms: N_7  and  C_8 
REMARK    4  A    between atoms: C_8  and  C_9 
REMARK    5  A    between atoms: C_12  and  C_13 
REMARK    6  A    between atoms: C_18  and  C_19 
ROOT
HETATM    1  C   UNL     1       6.674  26.730  56.329  1.00  0.00     0.096 A 
HETATM    2  C   UNL     1       6.051  26.291  55.174  1.00  0.00     0.138 A 
HETATM    3  N   UNL     1       6.791  25.241  54.705  1.00  0.00    -0.240 N 
HETATM    4  C   UNL     1       6.521  24.534  53.467  1.00  0.00     0.221 C 
HETATM    5  C   UNL     1       5.067  24.777  53.019  1.00  0.00     0.068 C 
HETATM    6  C   UNL     1       4.592  26.233  53.188  1.00  0.00     0.143 C 
HETATM    7  N   UNL     1       4.937  26.703  54.526  1.00  0.00    -0.363 N 
HETATM    8  N   UNL     1       7.796  24.884  55.519  1.00  0.00    -0.181 NA
HETATM    9  C   UNL     1       7.742  25.807  56.487  1.00  0.00     0.160 A 
HETATM   10  H   UNL     1       4.488  27.574  54.824  1.00  0.00     0.162 HD
ENDROOT
BRANCH   1  11
HETATM   11  C   UNL     1       6.259  27.877  57.133  1.00  0.00     0.261 C 
HETATM   12  N   UNL     1       7.294  28.715  57.514  1.00  0.00    -0.323 N 
HETATM   13  H   UNL     1       8.225  28.465  57.217  1.00  0.00     0.169 HD
HETATM   14  O   UNL     1       5.075  28.047  57.411  1.00  0.00    -0.267 OA
BRANCH  12  15
HETATM   15  C   UNL     1       7.208  29.909  58.263  1.00  0.00     0.035 A 
HETATM   16  C   UNL     1       6.189  30.855  58.124  1.00  0.00     0.039 A 
HETATM   17  C   UNL     1       6.174  32.030  58.899  1.00  0.00    -0.028 A 
HETATM   18  C   UNL     1       7.195  32.236  59.835  1.00  0.00     0.010 A 
HETATM   19  C   UNL     1       8.215  31.299  59.984  1.00  0.00     0.003 A 
HETATM   20  C   UNL     1       8.220  30.142  59.202  1.00  0.00     0.029 A 
BRANCH  17  21
HETATM   21  C   UNL     1       5.039  33.018  58.734  1.00  0.00     0.147 C 
HETATM   22  C   UNL     1       4.785  33.793  60.021  1.00  0.00     0.044 C 
BRANCH  21  23
HETATM   23  O   UNL     1       5.340  33.939  57.687  1.00  0.00    -0.391 OA
HETATM   24  H   UNL     1       4.899  34.775  57.911  1.00  0.00     0.210 HD
ENDBRANCH  21  23
ENDBRANCH  17  21
ENDBRANCH  12  15
ENDBRANCH   1  11
BRANCH   4  25
HETATM   25  C   UNL     1       7.557  24.907  52.428  1.00  0.00     0.409 C 
HETATM   26  F   UNL     1       7.071  24.971  51.173  1.00  0.00    -0.169 F 
HETATM   27  F   UNL     1       8.132  26.103  52.697  1.00  0.00    -0.169 F 
HETATM   28  F   UNL     1       8.567  24.000  52.423  1.00  0.00    -0.169 F 
ENDBRANCH   4  25
BRANCH   6  29
HETATM   29  C   UNL     1       5.024  27.133  52.075  1.00  0.00     0.075 A 
HETATM   30  O   UNL     1       4.715  26.731  50.808  1.00  0.00    -0.325 OA
HETATM   31  C   UNL     1       5.178  27.688  49.962  1.00  0.00     0.142 A 
HETATM   32  C   UNL     1       5.773  28.707  50.667  1.00  0.00     0.027 A 
HETATM   33  C   UNL     1       5.667  28.354  52.033  1.00  0.00     0.037 A 
ENDBRANCH   6  29
TORSDOF 6
ENDMDL
MODEL 8
REMARK VINA RESULT:      -8.2      5.627     10.537
REMARK  6 active torsions:
REMARK  status: ('A' for Active; 'I' for Inactive)
REMARK    1  A    between atoms: C_2  and  O_3 
REMARK    2  A    between atoms: C_2  and  C_4 
REMARK    3  A    between atoms: C_6  and  N_7 
REMARK       I    between atoms: N_7  and  C_8 
REMARK    4  A    between atoms: C_8  and  C_9 
REMARK    5  A    between atoms: C_12  and  C_13 
REMARK    6  A    between atoms: C_18  and  C_19 
ROOT
HETATM    1  C   UNL     1       5.488  32.578  58.992  1.00  0.00     0.096 A 
HETATM    2  C   UNL     1       4.996  32.645  60.283  1.00  0.00     0.138 A 
HETATM    3  N   UNL     1       4.245  33.785  60.358  1.00  0.00    -0.240 N 
HETATM    4  C   UNL     1       3.605  34.270  61.567  1.00  0.00     0.221 C 
HETATM    5  C   UNL     1       3.465  33.128  62.592  1.00  0.00     0.068 C 
HETATM    6  C   UNL     1       4.705  32.220  62.694  1.00  0.00     0.143 C 
HETATM    7  N   UNL     1       5.132  31.829  61.354  1.00  0.00    -0.363 N 
HETATM    8  N   UNL     1       4.116  34.423  59.184  1.00  0.00    -0.181 NA
HETATM    9  C   UNL     1       4.894  33.706  58.365  1.00  0.00     0.160 A 
HETATM   10  H   UNL     1       5.810  31.062  61.306  1.00  0.00     0.162 HD
ENDROOT
BRANCH   1  11
HETATM   11  C   UNL     1       6.393  31.551  58.481  1.00  0.00     0.261 C 
HETATM   12  N   UNL     1       5.762  30.393  58.055  1.00  0.00    -0.323 N 
HETATM   13  H   UNL     1       4.758  30.354  58.139  1.00  0.00     0.169 HD
HETATM   14  O   UNL     1       7.603  31.751  58.440  1.00  0.00    -0.267 OA
BRANCH  12  15
HETATM   15  C   UNL     1       6.357  29.243  57.490  1.00  0.00     0.035 A 
HETATM   16  C   UNL     1       5.788  28.487  56.461  1.00  0.00     0.039 A 
HETATM   17  C   UNL     1       6.434  27.344  55.953  1.00  0.00    -0.028 A 
HETATM   18  C   UNL     1       7.676  26.977  56.486  1.00  0.00     0.010 A 
HETATM   19  C   UNL     1       8.253  27.723  57.510  1.00  0.00     0.003 A 
HETATM   20  C   UNL     1       7.597  28.850  58.009  1.00  0.00     0.029 A 
BRANCH  17  21
HETATM   21  C   UNL     1       5.796  26.567  54.822  1.00  0.00     0.147 C 
HETATM   22  C   UNL     1       6.845  26.008  53.869  1.00  0.00     0.044 C 
BRANCH  21  23
HETATM   23  O   UNL     1       5.020  25.490  55.345  1.00  0.00    -0.391 OA
HETATM   24  H   UNL     1       4.139  25.847  55.545  1.00  0.00     0.210 HD
ENDBRANCH  21  23
ENDBRANCH  17  21
ENDBRANCH  12  15
ENDBRANCH   1  11
BRANCH   4  25
HETATM   25  C   UNL     1       4.347  35.480  62.089  1.00  0.00     0.409 C 
HETATM   26  F   UNL     1       4.226  35.662  63.419  1.00  0.00    -0.169 F 
HETATM   27  F   UNL     1       5.672  35.417  61.813  1.00  0.00    -0.169 F 
HETATM   28  F   UNL     1       3.894  36.609  61.485  1.00  0.00    -0.169 F 
ENDBRANCH   4  25
BRANCH   6  29
HETATM   29  C   UNL     1       5.787  32.785  63.557  1.00  0.00     0.075 A 
HETATM   30  O   UNL     1       5.417  33.220  64.797  1.00  0.00    -0.325 OA
HETATM   31  C   UNL     1       6.539  33.674  65.412  1.00  0.00     0.142 A 
HETATM   32  C   UNL     1       7.631  33.529  64.590  1.00  0.00     0.027 A 
HETATM   33  C   UNL     1       7.149  32.947  63.395  1.00  0.00     0.037 A 
ENDBRANCH   6  29
TORSDOF 6
ENDMDL
MODEL 9
REMARK VINA RESULT:      -8.2      2.630      4.284
REMARK  6 active torsions:
REMARK  status: ('A' for Active; 'I' for Inactive)
REMARK    1  A    between atoms: C_2  and  O_3 
REMARK    2  A    between atoms: C_2  and  C_4 
REMARK    3  A    between atoms: C_6  and  N_7 
REMARK       I    between atoms: N_7  and  C_8 
REMARK    4  A    between atoms: C_8  and  C_9 
REMARK    5  A    between atoms: C_12  and  C_13 
REMARK    6  A    between atoms: C_18  and  C_19 
ROOT
HETATM    1  C   UNL     1       5.270  28.191  55.223  1.00  0.00     0.096 A 
HETATM    2  C   UNL     1       6.112  27.353  54.513  1.00  0.00     0.138 A 
HETATM    3  N   UNL     1       5.453  27.019  53.363  1.00  0.00    -0.240 N 
HETATM    4  C   UNL     1       5.958  26.093  52.366  1.00  0.00     0.221 C 
HETATM    5  C   UNL     1       7.483  25.929  52.513  1.00  0.00     0.068 C 
HETATM    6  C   UNL     1       7.964  25.820  53.973  1.00  0.00     0.143 C 
HETATM    7  N   UNL     1       7.355  26.883  54.766  1.00  0.00    -0.363 N 
HETATM    8  N   UNL     1       4.281  27.656  53.209  1.00  0.00    -0.181 NA
HETATM    9  C   UNL     1       4.159  28.342  54.351  1.00  0.00     0.160 A 
HETATM   10  H   UNL     1       7.762  27.038  55.693  1.00  0.00     0.162 HD
ENDROOT
BRANCH   1  11
HETATM   11  C   UNL     1       5.544  28.745  56.547  1.00  0.00     0.261 C 
HETATM   12  N   UNL     1       5.381  30.118  56.638  1.00  0.00    -0.323 N 
HETATM   13  H   UNL     1       5.101  30.608  55.802  1.00  0.00     0.169 HD
HETATM   14  O   UNL     1       5.875  28.012  57.474  1.00  0.00    -0.267 OA
BRANCH  12  15
HETATM   15  C   UNL     1       5.542  30.934  57.780  1.00  0.00     0.035 A 
HETATM   16  C   UNL     1       4.496  31.598  58.426  1.00  0.00     0.039 A 
HETATM   17  C   UNL     1       4.732  32.405  59.556  1.00  0.00    -0.028 A 
HETATM   18  C   UNL     1       6.041  32.524  60.040  1.00  0.00     0.010 A 
HETATM   19  C   UNL     1       7.091  31.865  59.405  1.00  0.00     0.003 A 
HETATM   20  C   UNL     1       6.842  31.074  58.281  1.00  0.00     0.029 A 
BRANCH  17  21
HETATM   21  C   UNL     1       3.569  33.088  60.241  1.00  0.00     0.147 C 
HETATM   22  C   UNL     1       3.132  34.335  59.483  1.00  0.00     0.044 C 
BRANCH  21  23
HETATM   23  O   UNL     1       2.464  32.192  60.341  1.00  0.00    -0.391 OA
HETATM   24  H   UNL     1       1.717  32.703  60.696  1.00  0.00     0.210 HD
ENDBRANCH  21  23
ENDBRANCH  17  21
ENDBRANCH  12  15
ENDBRANCH   1  11
BRANCH   4  25
HETATM   25  C   UNL     1       5.188  24.793  52.436  1.00  0.00     0.409 C 
HETATM   26  F   UNL     1       4.482  24.638  53.574  1.00  0.00    -0.169 F 
HETATM   27  F   UNL     1       4.318  24.666  51.406  1.00  0.00    -0.169 F 
HETATM   28  F   UNL     1       6.036  23.737  52.341  1.00  0.00    -0.169 F 
ENDBRANCH   4  25
BRANCH   6  29
HETATM   29  C   UNL     1       7.819  24.447  54.546  1.00  0.00     0.075 A 
HETATM   30  O   UNL     1       8.538  23.453  53.945  1.00  0.00    -0.325 OA
HETATM   31  C   UNL     1       8.275  22.306  54.623  1.00  0.00     0.142 A 
HETATM   32  C   UNL     1       7.406  22.547  55.660  1.00  0.00     0.027 A 
HETATM   33  C   UNL     1       7.116  23.930  55.617  1.00  0.00     0.037 A 
ENDBRANCH   6  29
TORSDOF 6
ENDMDL
MODEL 10
REMARK VINA RESULT:      -8.1      4.776      7.451
REMARK  6 active torsions:
REMARK  status: ('A' for Active; 'I' for Inactive)
REMARK    1  A    between atoms: C_2  and  O_3 
REMARK    2  A    between atoms: C_2  and  C_4 
REMARK    3  A    between atoms: C_6  and  N_7 
REMARK       I    between atoms: N_7  and  C_8 
REMARK    4  A    between atoms: C_8  and  C_9 
REMARK    5  A    between atoms: C_12  and  C_13 
REMARK    6  A    between atoms: C_18  and  C_19 
ROOT
HETATM    1  C   UNL     1       5.178  26.328  51.557  1.00  0.00     0.096 A 
HETATM    2  C   UNL     1       4.310  27.401  51.651  1.00  0.00     0.138 A 
HETATM    3  N   UNL     1       4.448  28.119  50.495  1.00  0.00    -0.240 N 
HETATM    4  C   UNL     1       3.766  29.369  50.217  1.00  0.00     0.221 C 
HETATM    5  C   UNL     1       2.537  29.522  51.134  1.00  0.00     0.068 C 
HETATM    6  C   UNL     1       2.784  29.093  52.592  1.00  0.00     0.143 C 
HETATM    7  N   UNL     1       3.438  27.787  52.610  1.00  0.00    -0.363 N 
HETATM    8  N   UNL     1       5.266  27.544  49.599  1.00  0.00    -0.181 NA
HETATM    9  C   UNL     1       5.729  26.475  50.256  1.00  0.00     0.160 A 
HETATM   10  H   UNL     1       3.459  27.310  53.516  1.00  0.00     0.162 HD
ENDROOT
BRANCH   1  11
HETATM   11  C   UNL     1       5.404  25.327  52.597  1.00  0.00     0.261 C 
HETATM   12  N   UNL     1       6.738  25.036  52.831  1.00  0.00    -0.323 N 
HETATM   13  H   UNL     1       7.423  25.521  52.273  1.00  0.00     0.169 HD
HETATM   14  O   UNL     1       4.457  24.825  53.196  1.00  0.00    -0.267 OA
BRANCH  12  15
HETATM   15  C   UNL     1       7.273  24.141  53.784  1.00  0.00     0.035 A 
HETATM   16  C   UNL     1       7.430  22.768  53.574  1.00  0.00     0.039 A 
HETATM   17  C   UNL     1       7.963  21.933  54.575  1.00  0.00    -0.028 A 
HETATM   18  C   UNL     1       8.351  22.503  55.794  1.00  0.00     0.010 A 
HETATM   19  C   UNL     1       8.201  23.870  56.014  1.00  0.00     0.003 A 
HETATM   20  C   UNL     1       7.665  24.684  55.014  1.00  0.00     0.029 A 
BRANCH  17  21
HETATM   21  C   UNL     1       8.139  20.456  54.299  1.00  0.00     0.147 C 
HETATM   22  C   UNL     1       8.597  20.208  52.867  1.00  0.00     0.044 C 
BRANCH  21  23
HETATM   23  O   UNL     1       9.097  19.900  55.198  1.00  0.00    -0.391 OA
HETATM   24  H   UNL     1       9.956  19.922  54.744  1.00  0.00     0.210 HD
ENDBRANCH  21  23
ENDBRANCH  17  21
ENDBRANCH  12  15
ENDBRANCH   1  11
BRANCH   4  25
HETATM   25  C   UNL     1       4.746  30.519  50.304  1.00  0.00     0.409 C 
HETATM   26  F   UNL     1       4.176  31.700  50.609  1.00  0.00    -0.169 F 
HETATM   27  F   UNL     1       5.711  30.290  51.227  1.00  0.00    -0.169 F 
HETATM   28  F   UNL     1       5.393  30.677  49.120  1.00  0.00    -0.169 F 
ENDBRANCH   4  25
BRANCH   6  29
HETATM   29  C   UNL     1       3.456  30.143  53.416  1.00  0.00     0.075 A 
HETATM   30  O   UNL     1       2.995  31.420  53.275  1.00  0.00    -0.325 OA
HETATM   31  C   UNL     1       3.724  32.202  54.113  1.00  0.00     0.142 A 
HETATM   32  C   UNL     1       4.642  31.446  54.802  1.00  0.00     0.027 A 
HETATM   33  C   UNL     1       4.465  30.114  54.359  1.00  0.00     0.037 A 
ENDBRANCH   6  29
TORSDOF 6
ENDMDL
