MODEL 1
REMARK VINA RESULT:      -7.6      0.000      0.000
REMARK  3 active torsions:
REMARK  status: ('A' for Active; 'I' for Inactive)
REMARK    1  A    between atoms: C_2  and  N_3 
REMARK    2  A    between atoms: C_2  and  C_14 
REMARK       I    between atoms: N_3  and  C_4 
REMARK    3  A    between atoms: C_4  and  C_5 
ROOT
HETATM    1  N   UNL     1       6.706  24.311  53.546  1.00  0.00    -0.347 N 
HETATM    2  C   UNL     1       5.683  25.224  53.531  1.00  0.00     0.268 C 
HETATM    3  O   UNL     1       4.997  25.471  54.519  1.00  0.00    -0.266 OA
HETATM    4  H   UNL     1       7.244  24.151  52.708  1.00  0.00     0.163 HD
ENDROOT
BRANCH   1   5
HETATM    5  C   UNL     1       7.083  23.595  54.751  1.00  0.00     0.114 C 
HETATM    6  C   UNL     1       8.018  24.436  55.627  1.00  0.00     0.037 C 
BRANCH   5   7
HETATM    7  C   UNL     1       7.687  22.255  54.377  1.00  0.00    -0.033 A 
HETATM    8  C   UNL     1       8.029  21.340  55.379  1.00  0.00     0.028 A 
HETATM    9  C   UNL     1       8.559  20.112  55.014  1.00  0.00     0.116 A 
HETATM   10  N   UNL     1       8.765  19.734  53.735  1.00  0.00    -0.273 NA
HETATM   11  C   UNL     1       8.423  20.622  52.780  1.00  0.00     0.116 A 
HETATM   12  C   UNL     1       7.886  21.873  53.045  1.00  0.00     0.028 A 
ENDBRANCH   5   7
ENDBRANCH   1   5
BRANCH   2  13
HETATM   13  C   UNL     1       5.460  25.887  52.266  1.00  0.00     0.103 A 
HETATM   14  N   UNL     1       4.696  25.294  51.276  1.00  0.00    -0.341 N 
HETATM   15  H   UNL     1       4.257  24.386  51.361  1.00  0.00     0.167 HD
HETATM   16  C   UNL     1       4.632  26.113  50.193  1.00  0.00     0.126 A 
HETATM   17 CL   UNL     1       3.738  25.580  48.853  1.00  0.00    -0.063 Cl
HETATM   18  C   UNL     1       5.346  27.251  50.445  1.00  0.00     0.074 A 
HETATM   19 CL   UNL     1       5.588  28.592  49.437  1.00  0.00    -0.081 Cl
HETATM   20  C   UNL     1       5.874  27.113  51.756  1.00  0.00     0.062 A 
ENDBRANCH   2  13
TORSDOF 3
ENDMDL
MODEL 2
REMARK VINA RESULT:      -7.5      1.478      2.083
REMARK  3 active torsions:
REMARK  status: ('A' for Active; 'I' for Inactive)
REMARK    1  A    between atoms: C_2  and  N_3 
REMARK    2  A    between atoms: C_2  and  C_14 
REMARK       I    between atoms: N_3  and  C_4 
REMARK    3  A    between atoms: C_4  and  C_5 
ROOT
HETATM    1  N   UNL     1       6.763  24.267  54.501  1.00  0.00    -0.347 N 
HETATM    2  C   UNL     1       5.782  25.188  54.767  1.00  0.00     0.268 C 
HETATM    3  O   UNL     1       5.280  25.323  55.879  1.00  0.00    -0.266 OA
HETATM    4  H   UNL     1       7.148  24.202  53.571  1.00  0.00     0.163 HD
ENDROOT
BRANCH   1   5
HETATM    5  C   UNL     1       7.312  23.406  55.533  1.00  0.00     0.114 C 
HETATM    6  C   UNL     1       8.407  24.124  56.330  1.00  0.00     0.037 C 
BRANCH   5   7
HETATM    7  C   UNL     1       7.802  22.114  54.908  1.00  0.00    -0.033 A 
HETATM    8  C   UNL     1       7.796  21.966  53.516  1.00  0.00     0.028 A 
HETATM    9  C   UNL     1       8.269  20.786  52.965  1.00  0.00     0.116 A 
HETATM   10  N   UNL     1       8.749  19.757  53.693  1.00  0.00    -0.273 NA
HETATM   11  C   UNL     1       8.757  19.916  55.032  1.00  0.00     0.116 A 
HETATM   12  C   UNL     1       8.306  21.058  55.677  1.00  0.00     0.028 A 
ENDBRANCH   5   7
ENDBRANCH   1   5
BRANCH   2  13
HETATM   13  C   UNL     1       5.372  26.001  53.644  1.00  0.00     0.103 A 
HETATM   14  N   UNL     1       4.439  27.011  53.798  1.00  0.00    -0.341 N 
HETATM   15  H   UNL     1       3.989  27.243  54.675  1.00  0.00     0.167 HD
HETATM   16  C   UNL     1       4.228  27.628  52.606  1.00  0.00     0.126 A 
HETATM   17 CL   UNL     1       3.115  28.908  52.566  1.00  0.00    -0.063 Cl
HETATM   18  C   UNL     1       5.011  27.042  51.650  1.00  0.00     0.074 A 
HETATM   19 CL   UNL     1       5.136  27.426  50.004  1.00  0.00    -0.081 Cl
HETATM   20  C   UNL     1       5.736  26.009  52.302  1.00  0.00     0.062 A 
ENDBRANCH   2  13
TORSDOF 3
ENDMDL
MODEL 3
REMARK VINA RESULT:      -7.5      5.273      7.587
REMARK  3 active torsions:
REMARK  status: ('A' for Active; 'I' for Inactive)
REMARK    1  A    between atoms: C_2  and  N_3 
REMARK    2  A    between atoms: C_2  and  C_14 
REMARK       I    between atoms: N_3  and  C_4 
REMARK    3  A    between atoms: C_4  and  C_5 
ROOT
HETATM    1  N   UNL     1       7.696  27.346  56.834  1.00  0.00    -0.347 N 
HETATM    2  C   UNL     1       7.891  26.061  57.274  1.00  0.00     0.268 C 
HETATM    3  O   UNL     1       7.896  25.759  58.463  1.00  0.00    -0.266 OA
HETATM    4  H   UNL     1       7.692  27.539  55.844  1.00  0.00     0.163 HD
ENDROOT
BRANCH   1   5
HETATM    5  C   UNL     1       7.439  28.443  57.749  1.00  0.00     0.114 C 
HETATM    6  C   UNL     1       6.114  29.139  57.422  1.00  0.00     0.037 C 
BRANCH   5   7
HETATM    7  C   UNL     1       8.616  29.400  57.736  1.00  0.00    -0.033 A 
HETATM    8  C   UNL     1       8.633  30.496  58.606  1.00  0.00     0.028 A 
HETATM    9  C   UNL     1       9.728  31.345  58.593  1.00  0.00     0.116 A 
HETATM   10  N   UNL     1      10.799  31.178  57.790  1.00  0.00    -0.273 NA
HETATM   11  C   UNL     1      10.773  30.113  56.962  1.00  0.00     0.116 A 
HETATM   12  C   UNL     1       9.724  29.207  56.902  1.00  0.00     0.028 A 
ENDBRANCH   5   7
ENDBRANCH   1   5
BRANCH   2  13
HETATM   13  C   UNL     1       8.090  25.073  56.237  1.00  0.00     0.103 A 
HETATM   14  N   UNL     1       7.663  25.303  54.941  1.00  0.00    -0.341 N 
HETATM   15  H   UNL     1       7.195  26.149  54.636  1.00  0.00     0.167 HD
HETATM   16  C   UNL     1       7.968  24.235  54.160  1.00  0.00     0.126 A 
HETATM   17 CL   UNL     1       7.534  24.306  52.521  1.00  0.00    -0.063 Cl
HETATM   18  C   UNL     1       8.596  23.286  54.918  1.00  0.00     0.074 A 
HETATM   19 CL   UNL     1       9.186  21.771  54.440  1.00  0.00    -0.081 Cl
HETATM   20  C   UNL     1       8.674  23.811  56.235  1.00  0.00     0.062 A 
ENDBRANCH   2  13
TORSDOF 3
ENDMDL
MODEL 4
REMARK VINA RESULT:      -7.4      5.469      7.711
REMARK  3 active torsions:
REMARK  status: ('A' for Active; 'I' for Inactive)
REMARK    1  A    between atoms: C_2  and  N_3 
REMARK    2  A    between atoms: C_2  and  C_14 
REMARK       I    between atoms: N_3  and  C_4 
REMARK    3  A    between atoms: C_4  and  C_5 
ROOT
HETATM    1  N   UNL     1       7.640  27.478  56.854  1.00  0.00    -0.347 N 
HETATM    2  C   UNL     1       7.818  26.185  57.276  1.00  0.00     0.268 C 
HETATM    3  O   UNL     1       7.842  25.870  58.462  1.00  0.00    -0.266 OA
HETATM    4  H   UNL     1       7.619  27.683  55.867  1.00  0.00     0.163 HD
ENDROOT
BRANCH   1   5
HETATM    5  C   UNL     1       7.425  28.571  57.787  1.00  0.00     0.114 C 
HETATM    6  C   UNL     1       6.117  29.310  57.483  1.00  0.00     0.037 C 
BRANCH   5   7
HETATM    7  C   UNL     1       8.629  29.493  57.774  1.00  0.00    -0.033 A 
HETATM    8  C   UNL     1       8.658  30.614  58.611  1.00  0.00     0.028 A 
HETATM    9  C   UNL     1       9.778  31.431  58.599  1.00  0.00     0.116 A 
HETATM   10  N   UNL     1      10.861  31.209  57.827  1.00  0.00    -0.273 NA
HETATM   11  C   UNL     1      10.823  30.121  57.031  1.00  0.00     0.116 A 
HETATM   12  C   UNL     1       9.750  29.244  56.972  1.00  0.00     0.028 A 
ENDBRANCH   5   7
ENDBRANCH   1   5
BRANCH   2  13
HETATM   13  C   UNL     1       7.974  25.205  56.225  1.00  0.00     0.103 A 
HETATM   14  N   UNL     1       8.546  23.972  56.480  1.00  0.00    -0.341 N 
HETATM   15  H   UNL     1       8.887  23.677  57.388  1.00  0.00     0.167 HD
HETATM   16  C   UNL     1       8.576  23.234  55.340  1.00  0.00     0.126 A 
HETATM   17 CL   UNL     1       9.238  21.674  55.426  1.00  0.00    -0.063 Cl
HETATM   18  C   UNL     1       8.028  23.960  54.319  1.00  0.00     0.074 A 
HETATM   19 CL   UNL     1       7.818  23.512  52.698  1.00  0.00    -0.081 Cl
HETATM   20  C   UNL     1       7.648  25.210  54.873  1.00  0.00     0.062 A 
ENDBRANCH   2  13
TORSDOF 3
ENDMDL
MODEL 5
REMARK VINA RESULT:      -7.3      4.419      6.874
REMARK  3 active torsions:
REMARK  status: ('A' for Active; 'I' for Inactive)
REMARK    1  A    between atoms: C_2  and  N_3 
REMARK    2  A    between atoms: C_2  and  C_14 
REMARK       I    between atoms: N_3  and  C_4 
REMARK    3  A    between atoms: C_4  and  C_5 
ROOT
HETATM    1  N   UNL     1       7.189  25.984  54.753  1.00  0.00    -0.347 N 
HETATM    2  C   UNL     1       6.381  24.952  54.347  1.00  0.00     0.268 C 
HETATM    3  O   UNL     1       5.205  25.111  54.036  1.00  0.00    -0.266 OA
HETATM    4  H   UNL     1       8.152  25.801  54.989  1.00  0.00     0.163 HD
ENDROOT
BRANCH   1   5
HETATM    5  C   UNL     1       6.719  27.356  54.805  1.00  0.00     0.114 C 
HETATM    6  C   UNL     1       6.826  28.033  53.434  1.00  0.00     0.037 C 
BRANCH   5   7
HETATM    7  C   UNL     1       7.472  28.110  55.884  1.00  0.00    -0.033 A 
HETATM    8  C   UNL     1       8.587  28.884  55.545  1.00  0.00     0.028 A 
HETATM    9  C   UNL     1       9.247  29.583  56.544  1.00  0.00     0.116 A 
HETATM   10  N   UNL     1       8.875  29.570  57.841  1.00  0.00    -0.273 NA
HETATM   11  C   UNL     1       7.795  28.826  58.152  1.00  0.00     0.116 A 
HETATM   12  C   UNL     1       7.068  28.093  57.225  1.00  0.00     0.028 A 
ENDBRANCH   5   7
ENDBRANCH   1   5
BRANCH   2  13
HETATM   13  C   UNL     1       7.010  23.651  54.305  1.00  0.00     0.103 A 
HETATM   14  N   UNL     1       7.231  22.928  55.464  1.00  0.00    -0.341 N 
HETATM   15  H   UNL     1       6.981  23.248  56.392  1.00  0.00     0.167 HD
HETATM   16  C   UNL     1       7.826  21.745  55.162  1.00  0.00     0.126 A 
HETATM   17 CL   UNL     1       8.187  20.693  56.444  1.00  0.00    -0.063 Cl
HETATM   18  C   UNL     1       8.007  21.663  53.810  1.00  0.00     0.074 A 
HETATM   19 CL   UNL     1       8.698  20.404  52.909  1.00  0.00    -0.081 Cl
HETATM   20  C   UNL     1       7.494  22.869  53.262  1.00  0.00     0.062 A 
ENDBRANCH   2  13
TORSDOF 3
ENDMDL
MODEL 6
REMARK VINA RESULT:      -7.1     14.939     16.814
REMARK  3 active torsions:
REMARK  status: ('A' for Active; 'I' for Inactive)
REMARK    1  A    between atoms: C_2  and  N_3 
REMARK    2  A    between atoms: C_2  and  C_14 
REMARK       I    between atoms: N_3  and  C_4 
REMARK    3  A    between atoms: C_4  and  C_5 
ROOT
HETATM    1  N   UNL     1       6.205  33.882  66.451  1.00  0.00    -0.347 N 
HETATM    2  C   UNL     1       5.470  33.502  65.357  1.00  0.00     0.268 C 
HETATM    3  O   UNL     1       4.243  33.499  65.349  1.00  0.00    -0.266 OA
HETATM    4  H   UNL     1       7.212  33.875  66.402  1.00  0.00     0.163 HD
ENDROOT
BRANCH   1   5
HETATM    5  C   UNL     1       5.581  34.350  67.675  1.00  0.00     0.114 C 
HETATM    6  C   UNL     1       5.101  35.799  67.534  1.00  0.00     0.037 C 
BRANCH   5   7
HETATM    7  C   UNL     1       6.540  34.167  68.836  1.00  0.00    -0.033 A 
HETATM    8  C   UNL     1       7.721  34.916  68.890  1.00  0.00     0.028 A 
HETATM    9  C   UNL     1       8.571  34.749  69.971  1.00  0.00     0.116 A 
HETATM   10  N   UNL     1       8.329  33.903  70.994  1.00  0.00    -0.273 NA
HETATM   11  C   UNL     1       7.184  33.194  70.933  1.00  0.00     0.116 A 
HETATM   12  C   UNL     1       6.269  33.291  69.894  1.00  0.00     0.028 A 
ENDBRANCH   5   7
ENDBRANCH   1   5
BRANCH   2  13
HETATM   13  C   UNL     1       6.239  33.104  64.199  1.00  0.00     0.103 A 
HETATM   14  N   UNL     1       5.639  32.958  62.961  1.00  0.00    -0.341 N 
HETATM   15  H   UNL     1       4.654  33.110  62.783  1.00  0.00     0.167 HD
HETATM   16  C   UNL     1       6.567  32.584  62.042  1.00  0.00     0.126 A 
HETATM   17 CL   UNL     1       6.046  32.349  60.444  1.00  0.00    -0.063 Cl
HETATM   18  C   UNL     1       7.787  32.478  62.650  1.00  0.00     0.074 A 
HETATM   19 CL   UNL     1       9.276  32.048  61.965  1.00  0.00    -0.081 Cl
HETATM   20  C   UNL     1       7.585  32.804  64.017  1.00  0.00     0.062 A 
ENDBRANCH   2  13
TORSDOF 3
ENDMDL
MODEL 7
REMARK VINA RESULT:      -7.0      4.635      5.796
REMARK  3 active torsions:
REMARK  status: ('A' for Active; 'I' for Inactive)
REMARK    1  A    between atoms: C_2  and  N_3 
REMARK    2  A    between atoms: C_2  and  C_14 
REMARK       I    between atoms: N_3  and  C_4 
REMARK    3  A    between atoms: C_4  and  C_5 
ROOT
HETATM    1  N   UNL     1       7.417  26.356  55.043  1.00  0.00    -0.347 N 
HETATM    2  C   UNL     1       7.547  27.707  54.846  1.00  0.00     0.268 C 
HETATM    3  O   UNL     1       7.268  28.255  53.784  1.00  0.00    -0.266 OA
HETATM    4  H   UNL     1       7.652  25.957  55.939  1.00  0.00     0.163 HD
ENDROOT
BRANCH   1   5
HETATM    5  C   UNL     1       6.897  25.474  54.014  1.00  0.00     0.114 C 
HETATM    6  C   UNL     1       5.379  25.311  54.137  1.00  0.00     0.037 C 
BRANCH   5   7
HETATM    7  C   UNL     1       7.629  24.146  54.068  1.00  0.00    -0.033 A 
HETATM    8  C   UNL     1       8.397  23.818  55.191  1.00  0.00     0.028 A 
HETATM    9  C   UNL     1       9.039  22.590  55.229  1.00  0.00     0.116 A 
HETATM   10  N   UNL     1       8.965  21.674  54.241  1.00  0.00    -0.273 NA
HETATM   11  C   UNL     1       8.216  22.000  53.169  1.00  0.00     0.116 A 
HETATM   12  C   UNL     1       7.535  23.202  53.038  1.00  0.00     0.028 A 
ENDBRANCH   5   7
ENDBRANCH   1   5
BRANCH   2  13
HETATM   13  C   UNL     1       8.036  28.457  55.982  1.00  0.00     0.103 A 
HETATM   14  N   UNL     1       9.285  29.051  55.959  1.00  0.00    -0.341 N 
HETATM   15  H   UNL     1       9.925  29.003  55.176  1.00  0.00     0.167 HD
HETATM   16  C   UNL     1       9.509  29.695  57.134  1.00  0.00     0.126 A 
HETATM   17 CL   UNL     1      10.991  30.501  57.322  1.00  0.00    -0.063 Cl
HETATM   18  C   UNL     1       8.422  29.540  57.948  1.00  0.00     0.074 A 
HETATM   19 CL   UNL     1       8.179  30.141  59.514  1.00  0.00    -0.081 Cl
HETATM   20  C   UNL     1       7.486  28.755  57.224  1.00  0.00     0.062 A 
ENDBRANCH   2  13
TORSDOF 3
ENDMDL
MODEL 8
REMARK VINA RESULT:      -7.0      3.224      3.802
REMARK  3 active torsions:
REMARK  status: ('A' for Active; 'I' for Inactive)
REMARK    1  A    between atoms: C_2  and  N_3 
REMARK    2  A    between atoms: C_2  and  C_14 
REMARK       I    between atoms: N_3  and  C_4 
REMARK    3  A    between atoms: C_4  and  C_5 
ROOT
HETATM    1  N   UNL     1       6.786  25.188  55.961  1.00  0.00    -0.347 N 
HETATM    2  C   UNL     1       5.587  25.636  56.454  1.00  0.00     0.268 C 
HETATM    3  O   UNL     1       4.956  25.034  57.317  1.00  0.00    -0.266 OA
HETATM    4  H   UNL     1       7.268  25.726  55.257  1.00  0.00     0.163 HD
ENDROOT
BRANCH   1   5
HETATM    5  C   UNL     1       7.422  23.981  56.458  1.00  0.00     0.114 C 
HETATM    6  C   UNL     1       8.736  24.303  57.178  1.00  0.00     0.037 C 
BRANCH   5   7
HETATM    7  C   UNL     1       7.610  23.000  55.317  1.00  0.00    -0.033 A 
HETATM    8  C   UNL     1       7.746  21.634  55.587  1.00  0.00     0.028 A 
HETATM    9  C   UNL     1       7.894  20.752  54.528  1.00  0.00     0.116 A 
HETATM   10  N   UNL     1       7.910  21.131  53.233  1.00  0.00    -0.273 NA
HETATM   11  C   UNL     1       7.769  22.449  52.987  1.00  0.00     0.116 A 
HETATM   12  C   UNL     1       7.615  23.408  53.977  1.00  0.00     0.028 A 
ENDBRANCH   5   7
ENDBRANCH   1   5
BRANCH   2  13
HETATM   13  C   UNL     1       5.107  26.877  55.888  1.00  0.00     0.103 A 
HETATM   14  N   UNL     1       4.388  27.778  56.653  1.00  0.00    -0.341 N 
HETATM   15  H   UNL     1       4.151  27.637  57.628  1.00  0.00     0.167 HD
HETATM   16  C   UNL     1       4.057  28.859  55.900  1.00  0.00     0.126 A 
HETATM   17 CL   UNL     1       3.169  30.098  56.645  1.00  0.00    -0.063 Cl
HETATM   18  C   UNL     1       4.548  28.695  54.634  1.00  0.00     0.074 A 
HETATM   19 CL   UNL     1       4.422  29.741  53.308  1.00  0.00    -0.081 Cl
HETATM   20  C   UNL     1       5.212  27.440  54.620  1.00  0.00     0.062 A 
ENDBRANCH   2  13
TORSDOF 3
ENDMDL
MODEL 9
REMARK VINA RESULT:      -7.0      1.118      1.625
REMARK  3 active torsions:
REMARK  status: ('A' for Active; 'I' for Inactive)
REMARK    1  A    between atoms: C_2  and  N_3 
REMARK    2  A    between atoms: C_2  and  C_14 
REMARK       I    between atoms: N_3  and  C_4 
REMARK    3  A    between atoms: C_4  and  C_5 
ROOT
HETATM    1  N   UNL     1       6.391  25.459  53.521  1.00  0.00    -0.347 N 
HETATM    2  C   UNL     1       5.195  25.436  52.850  1.00  0.00     0.268 C 
HETATM    3  O   UNL     1       4.220  24.806  53.249  1.00  0.00    -0.266 OA
HETATM    4  H   UNL     1       7.158  26.001  53.155  1.00  0.00     0.163 HD
ENDROOT
BRANCH   1   5
HETATM    5  C   UNL     1       6.580  24.767  54.783  1.00  0.00     0.114 C 
HETATM    6  C   UNL     1       7.165  25.702  55.847  1.00  0.00     0.037 C 
BRANCH   5   7
HETATM    7  C   UNL     1       7.434  23.533  54.562  1.00  0.00    -0.033 A 
HETATM    8  C   UNL     1       7.444  22.908  53.310  1.00  0.00     0.028 A 
HETATM    9  C   UNL     1       8.250  21.795  53.124  1.00  0.00     0.116 A 
HETATM   10  N   UNL     1       9.041  21.272  54.083  1.00  0.00    -0.273 NA
HETATM   11  C   UNL     1       9.027  21.889  55.281  1.00  0.00     0.116 A 
HETATM   12  C   UNL     1       8.257  23.007  55.565  1.00  0.00     0.028 A 
ENDBRANCH   5   7
ENDBRANCH   1   5
BRANCH   2  13
HETATM   13  C   UNL     1       5.152  26.212  51.631  1.00  0.00     0.103 A 
HETATM   14  N   UNL     1       4.591  25.695  50.477  1.00  0.00    -0.341 N 
HETATM   15  H   UNL     1       4.187  24.769  50.404  1.00  0.00     0.167 HD
HETATM   16  C   UNL     1       4.667  26.613  49.478  1.00  0.00     0.126 A 
HETATM   17 CL   UNL     1       4.032  26.186  47.963  1.00  0.00    -0.063 Cl
HETATM   18  C   UNL     1       5.274  27.743  49.949  1.00  0.00     0.074 A 
HETATM   19 CL   UNL     1       5.615  29.184  49.123  1.00  0.00    -0.081 Cl
HETATM   20  C   UNL     1       5.585  27.495  51.312  1.00  0.00     0.062 A 
ENDBRANCH   2  13
TORSDOF 3
ENDMDL
MODEL 10
REMARK VINA RESULT:      -7.0      1.995      2.319
REMARK  3 active torsions:
REMARK  status: ('A' for Active; 'I' for Inactive)
REMARK    1  A    between atoms: C_2  and  N_3 
REMARK    2  A    between atoms: C_2  and  C_14 
REMARK       I    between atoms: N_3  and  C_4 
REMARK    3  A    between atoms: C_4  and  C_5 
ROOT
HETATM    1  N   UNL     1       6.939  24.537  55.276  1.00  0.00    -0.347 N 
HETATM    2  C   UNL     1       5.909  25.306  55.755  1.00  0.00     0.268 C 
HETATM    3  O   UNL     1       5.424  25.149  56.871  1.00  0.00    -0.266 OA
HETATM    4  H   UNL     1       7.307  24.713  54.354  1.00  0.00     0.163 HD
ENDROOT
BRANCH   1   5
HETATM    5  C   UNL     1       7.564  23.500  56.078  1.00  0.00     0.114 C 
HETATM    6  C   UNL     1       8.788  24.040  56.826  1.00  0.00     0.037 C 
BRANCH   5   7
HETATM    7  C   UNL     1       7.899  22.311  55.198  1.00  0.00    -0.033 A 
HETATM    8  C   UNL     1       8.326  21.112  55.779  1.00  0.00     0.028 A 
HETATM    9  C   UNL     1       8.605  20.031  54.957  1.00  0.00     0.116 A 
HETATM   10  N   UNL     1       8.484  20.058  53.614  1.00  0.00    -0.273 NA
HETATM   11  C   UNL     1       8.064  21.217  53.068  1.00  0.00     0.116 A 
HETATM   12  C   UNL     1       7.759  22.353  53.805  1.00  0.00     0.028 A 
ENDBRANCH   5   7
ENDBRANCH   1   5
BRANCH   2  13
HETATM   13  C   UNL     1       5.424  26.326  54.852  1.00  0.00     0.103 A 
HETATM   14  N   UNL     1       5.413  26.121  53.484  1.00  0.00    -0.341 N 
HETATM   15  H   UNL     1       5.735  25.274  53.032  1.00  0.00     0.167 HD
HETATM   16  C   UNL     1       4.911  27.218  52.859  1.00  0.00     0.126 A 
HETATM   17 CL   UNL     1       4.804  27.181  51.166  1.00  0.00    -0.063 Cl
HETATM   18  C   UNL     1       4.583  28.160  53.794  1.00  0.00     0.074 A 
HETATM   19 CL   UNL     1       3.919  29.701  53.555  1.00  0.00    -0.081 Cl
HETATM   20  C   UNL     1       4.908  27.601  55.059  1.00  0.00     0.062 A 
ENDBRANCH   2  13
TORSDOF 3
ENDMDL
