MODEL 1
REMARK VINA RESULT:      -8.3      0.000      0.000
REMARK  3 active torsions:
REMARK  status: ('A' for Active; 'I' for Inactive)
REMARK       I    between atoms: C_2  and  N_3 
REMARK    1  A    between atoms: N_3  and  C_4 
REMARK    2  A    between atoms: C_7  and  C_8 
REMARK       I    between atoms: C_8  and  N_9 
REMARK    3  A    between atoms: N_9  and  C_10 
ROOT
HETATM    1  C   UNL     1       6.980  33.719  64.039  1.00  0.00     0.034 A 
HETATM    2  C   UNL     1       6.274  34.162  62.919  1.00  0.00     0.030 A 
HETATM    3  C   UNL     1       6.565  33.662  61.641  1.00  0.00     0.019 A 
HETATM    4  C   UNL     1       7.561  32.694  61.469  1.00  0.00     0.032 A 
HETATM    5  C   UNL     1       8.286  32.269  62.589  1.00  0.00     0.019 A 
HETATM    6  C   UNL     1       7.999  32.777  63.860  1.00  0.00     0.030 A 
ENDROOT
BRANCH   4   7
HETATM    7  C   UNL     1       7.908  32.092  60.141  1.00  0.00     0.257 C 
HETATM    8  N   UNL     1       7.137  31.015  59.749  1.00  0.00    -0.307 N 
HETATM    9  H   UNL     1       6.402  30.696  60.356  1.00  0.00     0.170 HD
HETATM   10  O   UNL     1       8.850  32.581  59.529  1.00  0.00    -0.267 OA
BRANCH   8  11
HETATM   11  C   UNL     1       7.338  30.257  58.584  1.00  0.00     0.130 A 
HETATM   12  N   UNL     1       8.264  29.283  58.541  1.00  0.00    -0.242 NA
HETATM   13  C   UNL     1       8.388  28.568  57.397  1.00  0.00     0.142 A 
HETATM   14  C   UNL     1       7.620  28.788  56.268  1.00  0.00     0.051 A 
HETATM   15 CL   UNL     1       7.828  27.843  54.853  1.00  0.00    -0.083 Cl
HETATM   16  C   UNL     1       6.671  29.799  56.314  1.00  0.00     0.029 A 
HETATM   17  C   UNL     1       6.523  30.540  57.489  1.00  0.00     0.052 A 
ENDBRANCH   8  11
ENDBRANCH   4   7
BRANCH   1  18
HETATM   18  N   UNL     1       6.740  34.165  65.354  1.00  0.00    -0.328 N 
HETATM   19  C   UNL     1       5.594  33.986  66.106  1.00  0.00     0.218 C 
HETATM   20  C   UNL     1       5.693  34.596  67.483  1.00  0.00     0.117 C 
HETATM   21  O   UNL     1       4.580  33.385  65.768  1.00  0.00    -0.274 OA
HETATM   22  H   UNL     1       7.507  34.650  65.800  1.00  0.00     0.169 HD
ENDBRANCH   1  18
TORSDOF 3
ENDMDL
MODEL 2
REMARK VINA RESULT:      -8.0      5.486     10.836
REMARK  3 active torsions:
REMARK  status: ('A' for Active; 'I' for Inactive)
REMARK       I    between atoms: C_2  and  N_3 
REMARK    1  A    between atoms: N_3  and  C_4 
REMARK    2  A    between atoms: C_7  and  C_8 
REMARK       I    between atoms: C_8  and  N_9 
REMARK    3  A    between atoms: N_9  and  C_10 
ROOT
HETATM    1  C   UNL     1       7.477  23.930  53.869  1.00  0.00     0.034 A 
HETATM    2  C   UNL     1       7.565  25.094  53.102  1.00  0.00     0.030 A 
HETATM    3  C   UNL     1       7.587  26.356  53.712  1.00  0.00     0.019 A 
HETATM    4  C   UNL     1       7.538  26.471  55.106  1.00  0.00     0.032 A 
HETATM    5  C   UNL     1       7.424  25.304  55.873  1.00  0.00     0.019 A 
HETATM    6  C   UNL     1       7.393  24.048  55.260  1.00  0.00     0.030 A 
ENDROOT
BRANCH   4   7
HETATM    7  C   UNL     1       7.587  27.782  55.831  1.00  0.00     0.257 C 
HETATM    8  N   UNL     1       8.589  27.911  56.774  1.00  0.00    -0.307 N 
HETATM    9  H   UNL     1       9.217  27.140  56.925  1.00  0.00     0.170 HD
HETATM   10  O   UNL     1       6.733  28.615  55.549  1.00  0.00    -0.267 OA
BRANCH   8  11
HETATM   11  C   UNL     1       8.769  29.019  57.617  1.00  0.00     0.130 A 
HETATM   12  N   UNL     1       7.959  29.230  58.669  1.00  0.00    -0.242 NA
HETATM   13  C   UNL     1       8.204  30.301  59.461  1.00  0.00     0.142 A 
HETATM   14  C   UNL     1       9.237  31.195  59.244  1.00  0.00     0.051 A 
HETATM   15 CL   UNL     1       9.492  32.530  60.288  1.00  0.00    -0.083 Cl
HETATM   16  C   UNL     1      10.065  30.979  58.152  1.00  0.00     0.029 A 
HETATM   17  C   UNL     1       9.833  29.874  57.330  1.00  0.00     0.052 A 
ENDBRANCH   8  11
ENDBRANCH   4   7
BRANCH   1  18
HETATM   18  N   UNL     1       7.460  22.627  53.331  1.00  0.00    -0.328 N 
HETATM   19  C   UNL     1       8.450  21.667  53.422  1.00  0.00     0.218 C 
HETATM   20  C   UNL     1       8.084  20.377  52.728  1.00  0.00     0.117 C 
HETATM   21  O   UNL     1       9.522  21.771  54.009  1.00  0.00    -0.274 OA
HETATM   22  H   UNL     1       6.613  22.364  52.844  1.00  0.00     0.169 HD
ENDBRANCH   1  18
TORSDOF 3
ENDMDL
MODEL 3
REMARK VINA RESULT:      -7.9      4.643      7.354
REMARK  3 active torsions:
REMARK  status: ('A' for Active; 'I' for Inactive)
REMARK       I    between atoms: C_2  and  N_3 
REMARK    1  A    between atoms: N_3  and  C_4 
REMARK    2  A    between atoms: C_7  and  C_8 
REMARK       I    between atoms: C_8  and  N_9 
REMARK    3  A    between atoms: N_9  and  C_10 
ROOT
HETATM    1  C   UNL     1       7.430  29.831  58.094  1.00  0.00     0.034 A 
HETATM    2  C   UNL     1       6.128  29.494  57.717  1.00  0.00     0.030 A 
HETATM    3  C   UNL     1       5.866  28.302  57.026  1.00  0.00     0.019 A 
HETATM    4  C   UNL     1       6.906  27.419  56.716  1.00  0.00     0.032 A 
HETATM    5  C   UNL     1       8.215  27.770  57.073  1.00  0.00     0.019 A 
HETATM    6  C   UNL     1       8.473  28.963  57.754  1.00  0.00     0.030 A 
ENDROOT
BRANCH   4   7
HETATM    7  C   UNL     1       6.701  26.115  56.007  1.00  0.00     0.257 C 
HETATM    8  N   UNL     1       7.837  25.356  55.801  1.00  0.00    -0.307 N 
HETATM    9  H   UNL     1       8.721  25.706  56.127  1.00  0.00     0.170 HD
HETATM   10  O   UNL     1       5.560  25.839  55.652  1.00  0.00    -0.267 OA
BRANCH   8  11
HETATM   11  C   UNL     1       7.883  24.143  55.095  1.00  0.00     0.130 A 
HETATM   12  N   UNL     1       7.818  22.963  55.736  1.00  0.00    -0.242 NA
HETATM   13  C   UNL     1       7.837  21.830  54.995  1.00  0.00     0.142 A 
HETATM   14  C   UNL     1       7.928  21.818  53.615  1.00  0.00     0.051 A 
HETATM   15 CL   UNL     1       7.944  20.345  52.738  1.00  0.00    -0.083 Cl
HETATM   16  C   UNL     1       8.004  23.037  52.958  1.00  0.00     0.029 A 
HETATM   17  C   UNL     1       7.975  24.216  53.706  1.00  0.00     0.052 A 
ENDBRANCH   8  11
ENDBRANCH   4   7
BRANCH   1  18
HETATM   18  N   UNL     1       7.772  31.003  58.799  1.00  0.00    -0.328 N 
HETATM   19  C   UNL     1       8.411  31.093  60.021  1.00  0.00     0.218 C 
HETATM   20  C   UNL     1       8.621  32.519  60.471  1.00  0.00     0.117 C 
HETATM   21  O   UNL     1       8.817  30.161  60.708  1.00  0.00    -0.274 OA
HETATM   22  H   UNL     1       7.540  31.874  58.340  1.00  0.00     0.169 HD
ENDBRANCH   1  18
TORSDOF 3
ENDMDL
MODEL 4
REMARK VINA RESULT:      -7.8      1.788      2.154
REMARK  3 active torsions:
REMARK  status: ('A' for Active; 'I' for Inactive)
REMARK       I    between atoms: C_2  and  N_3 
REMARK    1  A    between atoms: N_3  and  C_4 
REMARK    2  A    between atoms: C_7  and  C_8 
REMARK       I    between atoms: C_8  and  N_9 
REMARK    3  A    between atoms: N_9  and  C_10 
ROOT
HETATM    1  C   UNL     1       6.294  33.398  65.229  1.00  0.00     0.034 A 
HETATM    2  C   UNL     1       5.217  33.158  64.374  1.00  0.00     0.030 A 
HETATM    3  C   UNL     1       5.429  32.753  63.048  1.00  0.00     0.019 A 
HETATM    4  C   UNL     1       6.728  32.565  62.563  1.00  0.00     0.032 A 
HETATM    5  C   UNL     1       7.808  32.830  63.414  1.00  0.00     0.019 A 
HETATM    6  C   UNL     1       7.593  33.242  64.733  1.00  0.00     0.030 A 
ENDROOT
BRANCH   4   7
HETATM    7  C   UNL     1       7.032  32.105  61.169  1.00  0.00     0.257 C 
HETATM    8  N   UNL     1       8.194  31.373  61.017  1.00  0.00    -0.307 N 
HETATM    9  H   UNL     1       8.763  31.191  61.826  1.00  0.00     0.170 HD
HETATM   10  O   UNL     1       6.249  32.430  60.284  1.00  0.00    -0.267 OA
BRANCH   8  11
HETATM   11  C   UNL     1       8.706  30.912  59.794  1.00  0.00     0.130 A 
HETATM   12  N   UNL     1       8.201  29.817  59.198  1.00  0.00    -0.242 NA
HETATM   13  C   UNL     1       8.718  29.441  58.004  1.00  0.00     0.142 A 
HETATM   14  C   UNL     1       9.743  30.117  57.366  1.00  0.00     0.051 A 
HETATM   15 CL   UNL     1      10.349  29.587  55.853  1.00  0.00    -0.083 Cl
HETATM   16  C   UNL     1      10.267  31.240  57.988  1.00  0.00     0.029 A 
HETATM   17  C   UNL     1       9.739  31.648  59.215  1.00  0.00     0.052 A 
ENDBRANCH   8  11
ENDBRANCH   4   7
BRANCH   1  18
HETATM   18  N   UNL     1       6.163  33.796  66.575  1.00  0.00    -0.328 N 
HETATM   19  C   UNL     1       5.382  34.822  67.076  1.00  0.00     0.218 C 
HETATM   20  C   UNL     1       5.484  34.959  68.576  1.00  0.00     0.117 C 
HETATM   21  O   UNL     1       4.642  35.561  66.435  1.00  0.00    -0.274 OA
HETATM   22  H   UNL     1       6.685  33.250  67.247  1.00  0.00     0.169 HD
ENDBRANCH   1  18
TORSDOF 3
ENDMDL
MODEL 5
REMARK VINA RESULT:      -7.7     11.162     12.598
REMARK  3 active torsions:
REMARK  status: ('A' for Active; 'I' for Inactive)
REMARK       I    between atoms: C_2  and  N_3 
REMARK    1  A    between atoms: N_3  and  C_4 
REMARK    2  A    between atoms: C_7  and  C_8 
REMARK       I    between atoms: C_8  and  N_9 
REMARK    3  A    between atoms: N_9  and  C_10 
ROOT
HETATM    1  C   UNL     1       7.670  23.420  54.190  1.00  0.00     0.034 A 
HETATM    2  C   UNL     1       8.082  23.718  52.890  1.00  0.00     0.030 A 
HETATM    3  C   UNL     1       7.365  24.626  52.098  1.00  0.00     0.019 A 
HETATM    4  C   UNL     1       6.228  25.265  52.606  1.00  0.00     0.032 A 
HETATM    5  C   UNL     1       5.801  24.947  53.901  1.00  0.00     0.019 A 
HETATM    6  C   UNL     1       6.514  24.034  54.684  1.00  0.00     0.030 A 
ENDROOT
BRANCH   4   7
HETATM    7  C   UNL     1       5.428  26.269  51.832  1.00  0.00     0.257 C 
HETATM    8  N   UNL     1       5.664  26.307  50.472  1.00  0.00    -0.307 N 
HETATM    9  H   UNL     1       6.342  25.678  50.078  1.00  0.00     0.170 HD
HETATM   10  O   UNL     1       4.655  26.981  52.463  1.00  0.00    -0.267 OA
BRANCH   8  11
HETATM   11  C   UNL     1       5.083  27.218  49.575  1.00  0.00     0.130 A 
HETATM   12  N   UNL     1       5.453  28.511  49.561  1.00  0.00    -0.242 NA
HETATM   13  C   UNL     1       4.877  29.332  48.651  1.00  0.00     0.142 A 
HETATM   14  C   UNL     1       3.922  28.917  47.740  1.00  0.00     0.051 A 
HETATM   15 CL   UNL     1       3.234  30.011  46.613  1.00  0.00    -0.083 Cl
HETATM   16  C   UNL     1       3.537  27.585  47.764  1.00  0.00     0.029 A 
HETATM   17  C   UNL     1       4.128  26.722  48.689  1.00  0.00     0.052 A 
ENDBRANCH   8  11
ENDBRANCH   4   7
BRANCH   1  18
HETATM   18  N   UNL     1       8.342  22.528  55.050  1.00  0.00    -0.328 N 
HETATM   19  C   UNL     1       8.338  21.146  54.998  1.00  0.00     0.218 C 
HETATM   20  C   UNL     1       9.180  20.515  56.079  1.00  0.00     0.117 C 
HETATM   21  O   UNL     1       7.760  20.444  54.174  1.00  0.00    -0.274 OA
HETATM   22  H   UNL     1       8.909  22.955  55.770  1.00  0.00     0.169 HD
ENDBRANCH   1  18
TORSDOF 3
ENDMDL
MODEL 6
REMARK VINA RESULT:      -7.6      1.396      2.065
REMARK  3 active torsions:
REMARK  status: ('A' for Active; 'I' for Inactive)
REMARK       I    between atoms: C_2  and  N_3 
REMARK    1  A    between atoms: N_3  and  C_4 
REMARK    2  A    between atoms: C_7  and  C_8 
REMARK       I    between atoms: C_8  and  N_9 
REMARK    3  A    between atoms: N_9  and  C_10 
ROOT
HETATM    1  C   UNL     1       7.299  32.698  62.868  1.00  0.00     0.034 A 
HETATM    2  C   UNL     1       8.276  31.704  62.952  1.00  0.00     0.030 A 
HETATM    3  C   UNL     1       8.617  30.933  61.831  1.00  0.00     0.019 A 
HETATM    4  C   UNL     1       7.993  31.160  60.599  1.00  0.00     0.032 A 
HETATM    5  C   UNL     1       6.995  32.140  60.521  1.00  0.00     0.019 A 
HETATM    6  C   UNL     1       6.652  32.900  61.644  1.00  0.00     0.030 A 
ENDROOT
BRANCH   4   7
HETATM    7  C   UNL     1       8.324  30.400  59.351  1.00  0.00     0.257 C 
HETATM    8  N   UNL     1       7.307  29.623  58.831  1.00  0.00    -0.307 N 
HETATM    9  H   UNL     1       6.419  29.605  59.303  1.00  0.00     0.170 HD
HETATM   10  O   UNL     1       9.463  30.509  58.910  1.00  0.00    -0.267 OA
BRANCH   8  11
HETATM   11  C   UNL     1       7.424  28.775  57.718  1.00  0.00     0.130 A 
HETATM   12  N   UNL     1       7.774  27.484  57.862  1.00  0.00    -0.242 NA
HETATM   13  C   UNL     1       7.840  26.711  56.752  1.00  0.00     0.142 A 
HETATM   14  C   UNL     1       7.575  27.176  55.477  1.00  0.00     0.051 A 
HETATM   15 CL   UNL     1       7.675  26.142  54.114  1.00  0.00    -0.083 Cl
HETATM   16  C   UNL     1       7.223  28.510  55.332  1.00  0.00     0.029 A 
HETATM   17  C   UNL     1       7.141  29.320  56.467  1.00  0.00     0.052 A 
ENDBRANCH   8  11
ENDBRANCH   4   7
BRANCH   1  18
HETATM   18  N   UNL     1       6.909  33.519  63.945  1.00  0.00    -0.328 N 
HETATM   19  C   UNL     1       5.736  33.450  64.673  1.00  0.00     0.218 C 
HETATM   20  C   UNL     1       5.660  34.490  65.765  1.00  0.00     0.117 C 
HETATM   21  O   UNL     1       4.825  32.643  64.523  1.00  0.00    -0.274 OA
HETATM   22  H   UNL     1       7.580  34.221  64.227  1.00  0.00     0.169 HD
ENDBRANCH   1  18
TORSDOF 3
ENDMDL
MODEL 7
REMARK VINA RESULT:      -7.5      3.692      8.584
REMARK  3 active torsions:
REMARK  status: ('A' for Active; 'I' for Inactive)
REMARK       I    between atoms: C_2  and  N_3 
REMARK    1  A    between atoms: N_3  and  C_4 
REMARK    2  A    between atoms: C_7  and  C_8 
REMARK       I    between atoms: C_8  and  N_9 
REMARK    3  A    between atoms: N_9  and  C_10 
ROOT
HETATM    1  C   UNL     1       7.631  29.239  56.054  1.00  0.00     0.034 A 
HETATM    2  C   UNL     1       6.478  29.891  56.495  1.00  0.00     0.030 A 
HETATM    3  C   UNL     1       6.491  30.662  57.667  1.00  0.00     0.019 A 
HETATM    4  C   UNL     1       7.670  30.805  58.408  1.00  0.00     0.032 A 
HETATM    5  C   UNL     1       8.820  30.130  57.978  1.00  0.00     0.019 A 
HETATM    6  C   UNL     1       8.800  29.355  56.814  1.00  0.00     0.030 A 
ENDROOT
BRANCH   4   7
HETATM    7  C   UNL     1       7.771  31.635  59.651  1.00  0.00     0.257 C 
HETATM    8  N   UNL     1       7.047  31.182  60.737  1.00  0.00    -0.307 N 
HETATM    9  H   UNL     1       6.502  30.342  60.643  1.00  0.00     0.170 HD
HETATM   10  O   UNL     1       8.460  32.647  59.600  1.00  0.00    -0.267 OA
BRANCH   8  11
HETATM   11  C   UNL     1       6.938  31.844  61.970  1.00  0.00     0.130 A 
HETATM   12  N   UNL     1       5.737  32.099  62.519  1.00  0.00    -0.242 NA
HETATM   13  C   UNL     1       5.701  32.714  63.725  1.00  0.00     0.142 A 
HETATM   14  C   UNL     1       6.831  33.102  64.422  1.00  0.00     0.051 A 
HETATM   15 CL   UNL     1       6.714  33.875  65.947  1.00  0.00    -0.083 Cl
HETATM   16  C   UNL     1       8.068  32.845  63.849  1.00  0.00     0.029 A 
HETATM   17  C   UNL     1       8.124  32.203  62.610  1.00  0.00     0.052 A 
ENDBRANCH   8  11
ENDBRANCH   4   7
BRANCH   1  18
HETATM   18  N   UNL     1       7.699  28.457  54.884  1.00  0.00    -0.328 N 
HETATM   19  C   UNL     1       7.396  27.114  54.751  1.00  0.00     0.218 C 
HETATM   20  C   UNL     1       7.579  26.607  53.341  1.00  0.00     0.117 C 
HETATM   21  O   UNL     1       6.990  26.363  55.631  1.00  0.00    -0.274 OA
HETATM   22  H   UNL     1       7.982  28.946  54.044  1.00  0.00     0.169 HD
ENDBRANCH   1  18
TORSDOF 3
ENDMDL
MODEL 8
REMARK VINA RESULT:      -7.3      5.526     10.696
REMARK  3 active torsions:
REMARK  status: ('A' for Active; 'I' for Inactive)
REMARK       I    between atoms: C_2  and  N_3 
REMARK    1  A    between atoms: N_3  and  C_4 
REMARK    2  A    between atoms: C_7  and  C_8 
REMARK       I    between atoms: C_8  and  N_9 
REMARK    3  A    between atoms: N_9  and  C_10 
ROOT
HETATM    1  C   UNL     1       8.174  23.617  54.635  1.00  0.00     0.034 A 
HETATM    2  C   UNL     1       8.618  23.605  55.959  1.00  0.00     0.030 A 
HETATM    3  C   UNL     1       8.382  24.698  56.806  1.00  0.00     0.019 A 
HETATM    4  C   UNL     1       7.681  25.816  56.342  1.00  0.00     0.032 A 
HETATM    5  C   UNL     1       7.258  25.838  55.007  1.00  0.00     0.019 A 
HETATM    6  C   UNL     1       7.503  24.750  54.163  1.00  0.00     0.030 A 
ENDROOT
BRANCH   4   7
HETATM    7  C   UNL     1       7.364  27.007  57.195  1.00  0.00     0.257 C 
HETATM    8  N   UNL     1       6.554  27.964  56.616  1.00  0.00    -0.307 N 
HETATM    9  H   UNL     1       6.226  27.820  55.677  1.00  0.00     0.170 HD
HETATM   10  O   UNL     1       7.862  27.047  58.315  1.00  0.00    -0.267 OA
BRANCH   8  11
HETATM   11  C   UNL     1       6.197  29.187  57.206  1.00  0.00     0.130 A 
HETATM   12  N   UNL     1       7.133  30.026  57.685  1.00  0.00    -0.242 NA
HETATM   13  C   UNL     1       6.725  31.204  58.214  1.00  0.00     0.142 A 
HETATM   14  C   UNL     1       5.400  31.590  58.298  1.00  0.00     0.051 A 
HETATM   15 CL   UNL     1       4.954  33.098  58.979  1.00  0.00    -0.083 Cl
HETATM   16  C   UNL     1       4.437  30.718  57.811  1.00  0.00     0.029 A 
HETATM   17  C   UNL     1       4.840  29.503  57.252  1.00  0.00     0.052 A 
ENDBRANCH   8  11
ENDBRANCH   4   7
BRANCH   1  18
HETATM   18  N   UNL     1       8.363  22.556  53.727  1.00  0.00    -0.328 N 
HETATM   19  C   UNL     1       8.104  21.214  53.936  1.00  0.00     0.218 C 
HETATM   20  C   UNL     1       8.422  20.360  52.733  1.00  0.00     0.117 C 
HETATM   21  O   UNL     1       7.641  20.706  54.952  1.00  0.00    -0.274 OA
HETATM   22  H   UNL     1       8.706  22.817  52.812  1.00  0.00     0.169 HD
ENDBRANCH   1  18
TORSDOF 3
ENDMDL
MODEL 9
REMARK VINA RESULT:      -7.3      4.388      7.156
REMARK  3 active torsions:
REMARK  status: ('A' for Active; 'I' for Inactive)
REMARK       I    between atoms: C_2  and  N_3 
REMARK    1  A    between atoms: N_3  and  C_4 
REMARK    2  A    between atoms: C_7  and  C_8 
REMARK       I    between atoms: C_8  and  N_9 
REMARK    3  A    between atoms: N_9  and  C_10 
ROOT
HETATM    1  C   UNL     1       8.164  29.862  58.272  1.00  0.00     0.034 A 
HETATM    2  C   UNL     1       6.856  29.817  57.785  1.00  0.00     0.030 A 
HETATM    3  C   UNL     1       6.588  29.370  56.483  1.00  0.00     0.019 A 
HETATM    4  C   UNL     1       7.630  28.942  55.652  1.00  0.00     0.032 A 
HETATM    5  C   UNL     1       8.944  29.011  56.132  1.00  0.00     0.019 A 
HETATM    6  C   UNL     1       9.208  29.467  57.428  1.00  0.00     0.030 A 
ENDROOT
BRANCH   4   7
HETATM    7  C   UNL     1       7.420  28.424  54.262  1.00  0.00     0.257 C 
HETATM    8  N   UNL     1       6.233  28.788  53.657  1.00  0.00    -0.307 N 
HETATM    9  H   UNL     1       5.585  29.366  54.164  1.00  0.00     0.170 HD
HETATM   10  O   UNL     1       8.296  27.709  53.789  1.00  0.00    -0.267 OA
BRANCH   8  11
HETATM   11  C   UNL     1       5.802  28.352  52.394  1.00  0.00     0.130 A 
HETATM   12  N   UNL     1       5.785  29.187  51.339  1.00  0.00    -0.242 NA
HETATM   13  C   UNL     1       5.387  28.698  50.141  1.00  0.00     0.142 A 
HETATM   14  C   UNL     1       4.989  27.388  49.941  1.00  0.00     0.051 A 
HETATM   15 CL   UNL     1       4.499  26.833  48.395  1.00  0.00    -0.083 Cl
HETATM   16  C   UNL     1       5.000  26.532  51.033  1.00  0.00     0.029 A 
HETATM   17  C   UNL     1       5.416  27.018  52.274  1.00  0.00     0.052 A 
ENDBRANCH   8  11
ENDBRANCH   4   7
BRANCH   1  18
HETATM   18  N   UNL     1       8.512  30.288  59.569  1.00  0.00    -0.328 N 
HETATM   19  C   UNL     1       9.047  31.509  59.938  1.00  0.00     0.218 C 
HETATM   20  C   UNL     1       9.288  31.620  61.424  1.00  0.00     0.117 C 
HETATM   21  O   UNL     1       9.297  32.454  59.198  1.00  0.00    -0.274 OA
HETATM   22  H   UNL     1       8.325  29.629  60.313  1.00  0.00     0.169 HD
ENDBRANCH   1  18
TORSDOF 3
ENDMDL
MODEL 10
REMARK VINA RESULT:      -7.2      4.681      7.521
REMARK  3 active torsions:
REMARK  status: ('A' for Active; 'I' for Inactive)
REMARK       I    between atoms: C_2  and  N_3 
REMARK    1  A    between atoms: N_3  and  C_4 
REMARK    2  A    between atoms: C_7  and  C_8 
REMARK       I    between atoms: C_8  and  N_9 
REMARK    3  A    between atoms: N_9  and  C_10 
ROOT
HETATM    1  C   UNL     1       6.545  29.788  57.985  1.00  0.00     0.034 A 
HETATM    2  C   UNL     1       7.874  29.399  57.809  1.00  0.00     0.030 A 
HETATM    3  C   UNL     1       8.207  28.350  56.940  1.00  0.00     0.019 A 
HETATM    4  C   UNL     1       7.210  27.684  56.218  1.00  0.00     0.032 A 
HETATM    5  C   UNL     1       5.875  28.059  56.414  1.00  0.00     0.019 A 
HETATM    6  C   UNL     1       5.546  29.099  57.289  1.00  0.00     0.030 A 
ENDROOT
BRANCH   4   7
HETATM    7  C   UNL     1       7.490  26.576  55.249  1.00  0.00     0.257 C 
HETATM    8  N   UNL     1       7.559  25.307  55.789  1.00  0.00    -0.307 N 
HETATM    9  H   UNL     1       7.422  25.191  56.779  1.00  0.00     0.170 HD
HETATM   10  O   UNL     1       7.656  26.883  54.074  1.00  0.00    -0.267 OA
BRANCH   8  11
HETATM   11  C   UNL     1       7.884  24.141  55.078  1.00  0.00     0.130 A 
HETATM   12  N   UNL     1       8.896  23.346  55.471  1.00  0.00    -0.242 NA
HETATM   13  C   UNL     1       9.140  22.220  54.760  1.00  0.00     0.142 A 
HETATM   14  C   UNL     1       8.411  21.844  53.645  1.00  0.00     0.051 A 
HETATM   15 CL   UNL     1       8.772  20.403  52.792  1.00  0.00    -0.083 Cl
HETATM   16  C   UNL     1       7.374  22.671  53.238  1.00  0.00     0.029 A 
HETATM   17  C   UNL     1       7.102  23.831  53.966  1.00  0.00     0.052 A 
ENDBRANCH   8  11
ENDBRANCH   4   7
BRANCH   1  18
HETATM   18  N   UNL     1       6.132  30.837  58.831  1.00  0.00    -0.328 N 
HETATM   19  C   UNL     1       5.799  32.129  58.468  1.00  0.00     0.218 C 
HETATM   20  C   UNL     1       5.394  32.984  59.645  1.00  0.00     0.117 C 
HETATM   21  O   UNL     1       5.782  32.591  57.332  1.00  0.00    -0.274 OA
HETATM   22  H   UNL     1       6.051  30.604  59.813  1.00  0.00     0.169 HD
ENDBRANCH   1  18
TORSDOF 3
ENDMDL
