MODEL 1
REMARK VINA RESULT:      -9.8      0.000      0.000
REMARK  5 active torsions:
REMARK  status: ('A' for Active; 'I' for Inactive)
REMARK    1  A    between atoms: C_3  and  O_4 
REMARK    2  A    between atoms: C_6  and  C_7 
REMARK       I    between atoms: N_10  and  C_11 
REMARK    3  A    between atoms: C_11  and  C_12 
REMARK    4  A    between atoms: C_18  and  C_19 
REMARK    5  A    between atoms: C_19  and  O_20 
ROOT
HETATM    1  C   UNL     1       6.589  23.555  54.644  1.00  0.00     0.022 C 
HETATM    2  C   UNL     1       6.768  24.348  55.962  1.00  0.00     0.029 C 
HETATM    3  C   UNL     1       7.846  25.434  55.905  1.00  0.00     0.127 C 
HETATM    4  N   UNL     1       7.694  26.244  54.702  1.00  0.00    -0.348 N 
HETATM    5  C   UNL     1       7.579  27.629  54.635  1.00  0.00     0.253 C 
HETATM    6  O   UNL     1       7.689  28.261  53.585  1.00  0.00    -0.267 OA
HETATM    7  C   UNL     1       7.764  25.483  53.461  1.00  0.00     0.127 C 
HETATM    8  C   UNL     1       6.600  24.499  53.420  1.00  0.00     0.029 C 
ENDROOT
BRANCH   5   9
HETATM    9  C   UNL     1       7.264  28.414  55.853  1.00  0.00     0.034 A 
HETATM   10  C   UNL     1       8.300  28.652  56.767  1.00  0.00     0.051 A 
HETATM   11  C   UNL     1       8.047  29.501  57.852  1.00  0.00     0.086 A 
HETATM   12  C   UNL     1       6.788  30.075  57.994  1.00  0.00     0.062 A 
HETATM   13  N   UNL     1       8.888  29.916  58.855  1.00  0.00    -0.231 NA
HETATM   14  N   UNL     1       6.896  30.852  59.120  1.00  0.00    -0.341 N 
HETATM   15  C   UNL     1       5.739  29.860  57.098  1.00  0.00     0.033 A 
HETATM   16  H   UNL     1       6.175  31.450  59.499  1.00  0.00     0.167 HD
HETATM   17  C   UNL     1       8.176  30.737  59.601  1.00  0.00     0.128 A 
HETATM   18  C   UNL     1       6.012  29.030  56.005  1.00  0.00     0.019 A 
BRANCH  17  19
HETATM   19  C   UNL     1       8.668  31.512  60.768  1.00  0.00     0.242 C 
BRANCH  19  20
HETATM   20  O   UNL     1       9.311  32.670  60.252  1.00  0.00    -0.393 OA
HETATM   21  H   UNL     1      10.174  32.358  59.912  1.00  0.00     0.209 HD
ENDBRANCH  19  20
ENDBRANCH  17  19
ENDBRANCH   5   9
BRANCH   1  22
HETATM   22  C   UNL     1       7.495  22.348  54.430  1.00  0.00    -0.051 A 
HETATM   23  C   UNL     1       8.211  21.713  55.452  1.00  0.00     0.044 A 
HETATM   24  C   UNL     1       9.009  20.604  55.174  1.00  0.00     0.066 A 
HETATM   25  C   UNL     1       9.115  20.095  53.886  1.00  0.00     0.036 A 
HETATM   26  C   UNL     1       8.406  20.707  52.857  1.00  0.00     0.003 A 
HETATM   27  C   UNL     1       7.604  21.818  53.128  1.00  0.00     0.007 A 
BRANCH  24  28
HETATM   28  O   UNL     1       9.678  20.030  56.216  1.00  0.00    -0.361 OA
HETATM   29  H   UNL     1      10.111  19.222  55.897  1.00  0.00     0.217 HD
ENDBRANCH  24  28
ENDBRANCH   1  22
TORSDOF 5
ENDMDL
MODEL 2
REMARK VINA RESULT:      -9.4      2.006      8.834
REMARK  5 active torsions:
REMARK  status: ('A' for Active; 'I' for Inactive)
REMARK    1  A    between atoms: C_3  and  O_4 
REMARK    2  A    between atoms: C_6  and  C_7 
REMARK       I    between atoms: N_10  and  C_11 
REMARK    3  A    between atoms: C_11  and  C_12 
REMARK    4  A    between atoms: C_18  and  C_19 
REMARK    5  A    between atoms: C_19  and  O_20 
ROOT
HETATM    1  C   UNL     1       8.033  30.217  57.542  1.00  0.00     0.022 C 
HETATM    2  C   UNL     1       8.738  28.880  57.203  1.00  0.00     0.029 C 
HETATM    3  C   UNL     1       7.870  27.636  57.419  1.00  0.00     0.127 C 
HETATM    4  N   UNL     1       6.553  27.820  56.820  1.00  0.00    -0.348 N 
HETATM    5  C   UNL     1       5.928  26.983  55.900  1.00  0.00     0.253 C 
HETATM    6  O   UNL     1       4.734  27.072  55.617  1.00  0.00    -0.267 OA
HETATM    7  C   UNL     1       5.820  28.968  57.338  1.00  0.00     0.127 C 
HETATM    8  C   UNL     1       6.588  30.240  56.994  1.00  0.00     0.029 C 
ENDROOT
BRANCH   5   9
HETATM    9  C   UNL     1       6.709  25.956  55.172  1.00  0.00     0.034 A 
HETATM   10  C   UNL     1       6.736  24.656  55.697  1.00  0.00     0.051 A 
HETATM   11  C   UNL     1       7.360  23.650  54.949  1.00  0.00     0.086 A 
HETATM   12  C   UNL     1       7.934  23.963  53.721  1.00  0.00     0.062 A 
HETATM   13  N   UNL     1       7.492  22.310  55.221  1.00  0.00    -0.231 NA
HETATM   14  N   UNL     1       8.419  22.766  53.258  1.00  0.00    -0.341 N 
HETATM   15  C   UNL     1       7.919  25.246  53.171  1.00  0.00     0.033 A 
HETATM   16  H   UNL     1       8.867  22.613  52.366  1.00  0.00     0.167 HD
HETATM   17  C   UNL     1       8.124  21.796  54.184  1.00  0.00     0.128 A 
HETATM   18  C   UNL     1       7.271  26.237  53.916  1.00  0.00     0.019 A 
BRANCH  17  19
HETATM   19  C   UNL     1       8.431  20.360  53.967  1.00  0.00     0.242 C 
BRANCH  19  20
HETATM   20  O   UNL     1       8.069  20.058  52.626  1.00  0.00    -0.393 OA
HETATM   21  H   UNL     1       7.241  19.541  52.690  1.00  0.00     0.209 HD
ENDBRANCH  19  20
ENDBRANCH  17  19
ENDBRANCH   5   9
BRANCH   1  22
HETATM   22  C   UNL     1       8.091  30.686  58.991  1.00  0.00    -0.051 A 
HETATM   23  C   UNL     1       8.768  30.005  60.009  1.00  0.00     0.044 A 
HETATM   24  C   UNL     1       8.785  30.510  61.309  1.00  0.00     0.066 A 
HETATM   25  C   UNL     1       8.137  31.697  61.631  1.00  0.00     0.036 A 
HETATM   26  C   UNL     1       7.464  32.393  60.631  1.00  0.00     0.003 A 
HETATM   27  C   UNL     1       7.445  31.894  59.327  1.00  0.00     0.007 A 
BRANCH  24  28
HETATM   28  O   UNL     1       9.465  29.799  62.254  1.00  0.00    -0.361 OA
HETATM   29  H   UNL     1       9.558  28.884  61.944  1.00  0.00     0.217 HD
ENDBRANCH  24  28
ENDBRANCH   1  22
TORSDOF 5
ENDMDL
MODEL 3
REMARK VINA RESULT:      -9.3      5.080      7.473
REMARK  5 active torsions:
REMARK  status: ('A' for Active; 'I' for Inactive)
REMARK    1  A    between atoms: C_3  and  O_4 
REMARK    2  A    between atoms: C_6  and  C_7 
REMARK       I    between atoms: N_10  and  C_11 
REMARK    3  A    between atoms: C_11  and  C_12 
REMARK    4  A    between atoms: C_18  and  C_19 
REMARK    5  A    between atoms: C_19  and  O_20 
ROOT
HETATM    1  C   UNL     1       7.866  24.826  53.597  1.00  0.00     0.022 C 
HETATM    2  C   UNL     1       7.534  25.235  52.140  1.00  0.00     0.029 C 
HETATM    3  C   UNL     1       6.039  25.407  51.857  1.00  0.00     0.127 C 
HETATM    4  N   UNL     1       5.412  26.220  52.894  1.00  0.00    -0.348 N 
HETATM    5  C   UNL     1       4.654  27.372  52.709  1.00  0.00     0.253 C 
HETATM    6  O   UNL     1       3.965  27.870  53.598  1.00  0.00    -0.267 OA
HETATM    7  C   UNL     1       5.549  25.675  54.238  1.00  0.00     0.127 C 
HETATM    8  C   UNL     1       7.028  25.641  54.608  1.00  0.00     0.029 C 
ENDROOT
BRANCH   5   9
HETATM    9  C   UNL     1       4.687  28.090  51.413  1.00  0.00     0.034 A 
HETATM   10  C   UNL     1       3.583  27.954  50.558  1.00  0.00     0.051 A 
HETATM   11  C   UNL     1       3.545  28.730  49.393  1.00  0.00     0.086 A 
HETATM   12  C   UNL     1       4.592  29.602  49.115  1.00  0.00     0.062 A 
HETATM   13  N   UNL     1       2.577  28.806  48.422  1.00  0.00    -0.231 NA
HETATM   14  N   UNL     1       4.225  30.209  47.941  1.00  0.00    -0.341 N 
HETATM   15  C   UNL     1       5.701  29.762  49.948  1.00  0.00     0.033 A 
HETATM   16  H   UNL     1       4.738  30.937  47.464  1.00  0.00     0.167 HD
HETATM   17  C   UNL     1       3.003  29.711  47.563  1.00  0.00     0.128 A 
HETATM   18  C   UNL     1       5.716  29.000  51.122  1.00  0.00     0.019 A 
BRANCH  17  19
HETATM   19  C   UNL     1       2.265  30.210  46.376  1.00  0.00     0.242 C 
BRANCH  19  20
HETATM   20  O   UNL     1       1.247  29.259  46.093  1.00  0.00    -0.393 OA
HETATM   21  H   UNL     1       1.235  29.173  45.118  1.00  0.00     0.209 HD
ENDBRANCH  19  20
ENDBRANCH  17  19
ENDBRANCH   5   9
BRANCH   1  22
HETATM   22  C   UNL     1       7.846  23.337  53.924  1.00  0.00    -0.051 A 
HETATM   23  C   UNL     1       7.970  22.323  52.967  1.00  0.00     0.044 A 
HETATM   24  C   UNL     1       7.957  20.982  53.351  1.00  0.00     0.066 A 
HETATM   25  C   UNL     1       7.824  20.614  54.684  1.00  0.00     0.036 A 
HETATM   26  C   UNL     1       7.706  21.608  55.651  1.00  0.00     0.003 A 
HETATM   27  C   UNL     1       7.721  22.952  55.274  1.00  0.00     0.007 A 
BRANCH  24  28
HETATM   28  O   UNL     1       8.085  20.043  52.369  1.00  0.00    -0.361 OA
HETATM   29  H   UNL     1       7.854  19.176  52.741  1.00  0.00     0.217 HD
ENDBRANCH  24  28
ENDBRANCH   1  22
TORSDOF 5
ENDMDL
MODEL 4
REMARK VINA RESULT:      -9.0      4.488      6.389
REMARK  5 active torsions:
REMARK  status: ('A' for Active; 'I' for Inactive)
REMARK    1  A    between atoms: C_3  and  O_4 
REMARK    2  A    between atoms: C_6  and  C_7 
REMARK       I    between atoms: N_10  and  C_11 
REMARK    3  A    between atoms: C_11  and  C_12 
REMARK    4  A    between atoms: C_18  and  C_19 
REMARK    5  A    between atoms: C_19  and  O_20 
ROOT
HETATM    1  C   UNL     1       7.923  24.652  53.876  1.00  0.00     0.022 C 
HETATM    2  C   UNL     1       7.650  25.149  52.435  1.00  0.00     0.029 C 
HETATM    3  C   UNL     1       6.166  25.312  52.094  1.00  0.00     0.127 C 
HETATM    4  N   UNL     1       5.475  26.044  53.150  1.00  0.00    -0.348 N 
HETATM    5  C   UNL     1       4.702  27.192  53.005  1.00  0.00     0.253 C 
HETATM    6  O   UNL     1       3.963  27.618  53.892  1.00  0.00    -0.267 OA
HETATM    7  C   UNL     1       5.562  25.415  54.462  1.00  0.00     0.127 C 
HETATM    8  C   UNL     1       7.023  25.384  54.898  1.00  0.00     0.029 C 
ENDROOT
BRANCH   5   9
HETATM    9  C   UNL     1       4.778  27.993  51.761  1.00  0.00     0.034 A 
HETATM   10  C   UNL     1       5.191  29.330  51.864  1.00  0.00     0.051 A 
HETATM   11  C   UNL     1       5.393  30.056  50.684  1.00  0.00     0.086 A 
HETATM   12  C   UNL     1       5.178  29.442  49.455  1.00  0.00     0.062 A 
HETATM   13  N   UNL     1       5.821  31.350  50.514  1.00  0.00    -0.231 NA
HETATM   14  N   UNL     1       5.490  30.409  48.534  1.00  0.00    -0.341 N 
HETATM   15  C   UNL     1       4.771  28.113  49.320  1.00  0.00     0.033 A 
HETATM   16  H   UNL     1       5.485  30.295  47.530  1.00  0.00     0.167 HD
HETATM   17  C   UNL     1       5.881  31.537  49.211  1.00  0.00     0.128 A 
HETATM   18  C   UNL     1       4.597  27.390  50.506  1.00  0.00     0.019 A 
BRANCH  17  19
HETATM   19  C   UNL     1       6.371  32.758  48.521  1.00  0.00     0.242 C 
BRANCH  19  20
HETATM   20  O   UNL     1       5.781  32.766  47.228  1.00  0.00    -0.393 OA
HETATM   21  H   UNL     1       5.060  32.106  47.267  1.00  0.00     0.209 HD
ENDBRANCH  19  20
ENDBRANCH  17  19
ENDBRANCH   5   9
BRANCH   1  22
HETATM   22  C   UNL     1       7.920  23.145  54.105  1.00  0.00    -0.051 A 
HETATM   23  C   UNL     1       8.059  22.197  53.085  1.00  0.00     0.044 A 
HETATM   24  C   UNL     1       8.061  20.834  53.380  1.00  0.00     0.066 A 
HETATM   25  C   UNL     1       7.928  20.378  54.686  1.00  0.00     0.036 A 
HETATM   26  C   UNL     1       7.796  21.305  55.716  1.00  0.00     0.003 A 
HETATM   27  C   UNL     1       7.795  22.671  55.427  1.00  0.00     0.007 A 
BRANCH  24  28
HETATM   28  O   UNL     1       8.203  19.962  52.340  1.00  0.00    -0.361 OA
HETATM   29  H   UNL     1       9.150  19.859  52.151  1.00  0.00     0.217 HD
ENDBRANCH  24  28
ENDBRANCH   1  22
TORSDOF 5
ENDMDL
MODEL 5
REMARK VINA RESULT:      -8.9      2.646      4.956
REMARK  5 active torsions:
REMARK  status: ('A' for Active; 'I' for Inactive)
REMARK    1  A    between atoms: C_3  and  O_4 
REMARK    2  A    between atoms: C_6  and  C_7 
REMARK       I    between atoms: N_10  and  C_11 
REMARK    3  A    between atoms: C_11  and  C_12 
REMARK    4  A    between atoms: C_18  and  C_19 
REMARK    5  A    between atoms: C_19  and  O_20 
ROOT
HETATM    1  C   UNL     1       7.209  28.253  56.135  1.00  0.00     0.022 C 
HETATM    2  C   UNL     1       6.841  28.609  57.597  1.00  0.00     0.029 C 
HETATM    3  C   UNL     1       8.045  28.844  58.513  1.00  0.00     0.127 C 
HETATM    4  N   UNL     1       9.008  29.735  57.875  1.00  0.00    -0.348 N 
HETATM    5  C   UNL     1       9.530  30.915  58.397  1.00  0.00     0.253 C 
HETATM    6  O   UNL     1      10.504  31.488  57.912  1.00  0.00    -0.267 OA
HETATM    7  C   UNL     1       9.511  29.248  56.597  1.00  0.00     0.127 C 
HETATM    8  C   UNL     1       8.350  29.156  55.613  1.00  0.00     0.029 C 
ENDROOT
BRANCH   5   9
HETATM    9  C   UNL     1       8.884  31.569  59.560  1.00  0.00     0.034 A 
HETATM   10  C   UNL     1       7.533  31.927  59.446  1.00  0.00     0.051 A 
HETATM   11  C   UNL     1       6.880  32.424  60.581  1.00  0.00     0.086 A 
HETATM   12  C   UNL     1       7.581  32.551  61.776  1.00  0.00     0.062 A 
HETATM   13  N   UNL     1       5.572  32.809  60.740  1.00  0.00    -0.231 NA
HETATM   14  N   UNL     1       6.652  33.029  62.665  1.00  0.00    -0.341 N 
HETATM   15  C   UNL     1       8.924  32.199  61.920  1.00  0.00     0.033 A 
HETATM   16  H   UNL     1       6.806  33.202  63.648  1.00  0.00     0.167 HD
HETATM   17  C   UNL     1       5.455  33.160  62.006  1.00  0.00     0.128 A 
HETATM   18  C   UNL     1       9.559  31.681  60.786  1.00  0.00     0.019 A 
BRANCH  17  19
HETATM   19  C   UNL     1       4.204  33.576  62.689  1.00  0.00     0.242 C 
BRANCH  19  20
HETATM   20  O   UNL     1       4.326  33.183  64.049  1.00  0.00    -0.393 OA
HETATM   21  H   UNL     1       4.265  32.206  64.043  1.00  0.00     0.209 HD
ENDBRANCH  19  20
ENDBRANCH  17  19
ENDBRANCH   5   9
BRANCH   1  22
HETATM   22  C   UNL     1       7.469  26.784  55.821  1.00  0.00    -0.051 A 
HETATM   23  C   UNL     1       7.722  25.807  56.792  1.00  0.00     0.044 A 
HETATM   24  C   UNL     1       7.936  24.480  56.421  1.00  0.00     0.066 A 
HETATM   25  C   UNL     1       7.902  24.088  55.089  1.00  0.00     0.036 A 
HETATM   26  C   UNL     1       7.645  25.042  54.109  1.00  0.00     0.003 A 
HETATM   27  C   UNL     1       7.428  26.373  54.473  1.00  0.00     0.007 A 
BRANCH  24  28
HETATM   28  O   UNL     1       8.174  23.578  57.417  1.00  0.00    -0.361 OA
HETATM   29  H   UNL     1       8.005  22.686  57.071  1.00  0.00     0.217 HD
ENDBRANCH  24  28
ENDBRANCH   1  22
TORSDOF 5
ENDMDL
MODEL 6
REMARK VINA RESULT:      -8.5      4.225      6.472
REMARK  5 active torsions:
REMARK  status: ('A' for Active; 'I' for Inactive)
REMARK    1  A    between atoms: C_3  and  O_4 
REMARK    2  A    between atoms: C_6  and  C_7 
REMARK       I    between atoms: N_10  and  C_11 
REMARK    3  A    between atoms: C_11  and  C_12 
REMARK    4  A    between atoms: C_18  and  C_19 
REMARK    5  A    between atoms: C_19  and  O_20 
ROOT
HETATM    1  C   UNL     1       7.980  24.581  53.589  1.00  0.00     0.022 C 
HETATM    2  C   UNL     1       7.097  24.999  52.387  1.00  0.00     0.029 C 
HETATM    3  C   UNL     1       5.639  25.297  52.748  1.00  0.00     0.127 C 
HETATM    4  N   UNL     1       5.569  26.173  53.912  1.00  0.00    -0.348 N 
HETATM    5  C   UNL     1       4.890  27.385  54.008  1.00  0.00     0.253 C 
HETATM    6  O   UNL     1       4.679  27.951  55.079  1.00  0.00    -0.267 OA
HETATM    7  C   UNL     1       6.219  25.635  55.100  1.00  0.00     0.127 C 
HETATM    8  C   UNL     1       7.709  25.478  54.818  1.00  0.00     0.029 C 
ENDROOT
BRANCH   5   9
HETATM    9  C   UNL     1       4.427  28.081  52.784  1.00  0.00     0.034 A 
HETATM   10  C   UNL     1       5.320  28.185  51.708  1.00  0.00     0.051 A 
HETATM   11  C   UNL     1       4.850  28.723  50.504  1.00  0.00     0.086 A 
HETATM   12  C   UNL     1       3.527  29.139  50.408  1.00  0.00     0.062 A 
HETATM   13  N   UNL     1       5.504  28.900  49.309  1.00  0.00    -0.231 NA
HETATM   14  N   UNL     1       3.401  29.575  49.114  1.00  0.00    -0.341 N 
HETATM   15  C   UNL     1       2.613  29.044  51.460  1.00  0.00     0.033 A 
HETATM   16  H   UNL     1       2.553  29.913  48.681  1.00  0.00     0.167 HD
HETATM   17  C   UNL     1       4.609  29.405  48.484  1.00  0.00     0.128 A 
HETATM   18  C   UNL     1       3.088  28.482  52.650  1.00  0.00     0.019 A 
BRANCH  17  19
HETATM   19  C   UNL     1       4.811  29.698  47.042  1.00  0.00     0.242 C 
BRANCH  19  20
HETATM   20  O   UNL     1       4.616  31.096  46.873  1.00  0.00    -0.393 OA
HETATM   21  H   UNL     1       5.505  31.462  46.692  1.00  0.00     0.209 HD
ENDBRANCH  19  20
ENDBRANCH  17  19
ENDBRANCH   5   9
BRANCH   1  22
HETATM   22  C   UNL     1       7.991  23.104  53.964  1.00  0.00    -0.051 A 
HETATM   23  C   UNL     1       8.113  22.628  55.275  1.00  0.00     0.044 A 
HETATM   24  C   UNL     1       8.100  21.258  55.536  1.00  0.00     0.066 A 
HETATM   25  C   UNL     1       7.964  20.330  54.511  1.00  0.00     0.036 A 
HETATM   26  C   UNL     1       7.835  20.782  53.202  1.00  0.00     0.003 A 
HETATM   27  C   UNL     1       7.845  22.153  52.934  1.00  0.00     0.007 A 
BRANCH  24  28
HETATM   28  O   UNL     1       8.220  20.862  56.836  1.00  0.00    -0.361 OA
HETATM   29  H   UNL     1       7.345  20.905  57.254  1.00  0.00     0.217 HD
ENDBRANCH  24  28
ENDBRANCH   1  22
TORSDOF 5
ENDMDL
MODEL 7
REMARK VINA RESULT:      -8.5      4.144      5.874
REMARK  5 active torsions:
REMARK  status: ('A' for Active; 'I' for Inactive)
REMARK    1  A    between atoms: C_3  and  O_4 
REMARK    2  A    between atoms: C_6  and  C_7 
REMARK       I    between atoms: N_10  and  C_11 
REMARK    3  A    between atoms: C_11  and  C_12 
REMARK    4  A    between atoms: C_18  and  C_19 
REMARK    5  A    between atoms: C_19  and  O_20 
ROOT
HETATM    1  C   UNL     1       5.333  27.296  50.640  1.00  0.00     0.022 C 
HETATM    2  C   UNL     1       5.035  28.264  51.812  1.00  0.00     0.029 C 
HETATM    3  C   UNL     1       4.322  27.614  53.001  1.00  0.00     0.127 C 
HETATM    4  N   UNL     1       4.976  26.365  53.371  1.00  0.00    -0.348 N 
HETATM    5  C   UNL     1       5.454  26.011  54.629  1.00  0.00     0.253 C 
HETATM    6  O   UNL     1       5.780  24.862  54.924  1.00  0.00    -0.267 OA
HETATM    7  C   UNL     1       5.030  25.382  52.296  1.00  0.00     0.127 C 
HETATM    8  C   UNL     1       5.874  25.944  51.157  1.00  0.00     0.029 C 
ENDROOT
BRANCH   5   9
HETATM    9  C   UNL     1       5.641  27.044  55.676  1.00  0.00     0.034 A 
HETATM   10  C   UNL     1       6.897  27.134  56.293  1.00  0.00     0.051 A 
HETATM   11  C   UNL     1       7.123  28.189  57.187  1.00  0.00     0.086 A 
HETATM   12  C   UNL     1       6.108  29.104  57.440  1.00  0.00     0.062 A 
HETATM   13  N   UNL     1       8.259  28.515  57.887  1.00  0.00    -0.231 NA
HETATM   14  N   UNL     1       6.667  29.997  58.318  1.00  0.00    -0.341 N 
HETATM   15  C   UNL     1       4.849  29.042  56.838  1.00  0.00     0.033 A 
HETATM   16  H   UNL     1       6.221  30.825  58.687  1.00  0.00     0.167 HD
HETATM   17  C   UNL     1       7.964  29.613  58.553  1.00  0.00     0.128 A 
HETATM   18  C   UNL     1       4.643  27.998  55.928  1.00  0.00     0.019 A 
BRANCH  17  19
HETATM   19  C   UNL     1       8.895  30.405  59.397  1.00  0.00     0.242 C 
BRANCH  19  20
HETATM   20  O   UNL     1       8.682  29.997  60.741  1.00  0.00    -0.393 OA
HETATM   21  H   UNL     1       9.536  30.144  61.196  1.00  0.00     0.209 HD
ENDBRANCH  19  20
ENDBRANCH  17  19
ENDBRANCH   5   9
BRANCH   1  22
HETATM   22  C   UNL     1       4.233  27.100  49.603  1.00  0.00    -0.051 A 
HETATM   23  C   UNL     1       4.178  26.021  48.712  1.00  0.00     0.044 A 
HETATM   24  C   UNL     1       3.127  25.908  47.802  1.00  0.00     0.066 A 
HETATM   25  C   UNL     1       2.110  26.853  47.751  1.00  0.00     0.036 A 
HETATM   26  C   UNL     1       2.144  27.930  48.632  1.00  0.00     0.003 A 
HETATM   27  C   UNL     1       3.191  28.049  49.548  1.00  0.00     0.007 A 
BRANCH  24  28
HETATM   28  O   UNL     1       3.131  24.831  46.965  1.00  0.00    -0.361 OA
HETATM   29  H   UNL     1       3.182  25.152  46.049  1.00  0.00     0.217 HD
ENDBRANCH  24  28
ENDBRANCH   1  22
TORSDOF 5
ENDMDL
MODEL 8
REMARK VINA RESULT:      -8.5      2.508      4.720
REMARK  5 active torsions:
REMARK  status: ('A' for Active; 'I' for Inactive)
REMARK    1  A    between atoms: C_3  and  O_4 
REMARK    2  A    between atoms: C_6  and  C_7 
REMARK       I    between atoms: N_10  and  C_11 
REMARK    3  A    between atoms: C_11  and  C_12 
REMARK    4  A    between atoms: C_18  and  C_19 
REMARK    5  A    between atoms: C_19  and  O_20 
ROOT
HETATM    1  C   UNL     1       7.098  28.076  55.575  1.00  0.00     0.022 C 
HETATM    2  C   UNL     1       6.483  28.370  56.965  1.00  0.00     0.029 C 
HETATM    3  C   UNL     1       7.509  28.511  58.093  1.00  0.00     0.127 C 
HETATM    4  N   UNL     1       8.596  29.395  57.689  1.00  0.00    -0.348 N 
HETATM    5  C   UNL     1       9.049  30.526  58.363  1.00  0.00     0.253 C 
HETATM    6  O   UNL     1      10.111  31.086  58.093  1.00  0.00    -0.267 OA
HETATM    7  C   UNL     1       9.306  28.956  56.495  1.00  0.00     0.127 C 
HETATM    8  C   UNL     1       8.339  28.960  55.316  1.00  0.00     0.029 C 
ENDROOT
BRANCH   5   9
HETATM    9  C   UNL     1       8.224  31.143  59.428  1.00  0.00     0.034 A 
HETATM   10  C   UNL     1       8.761  31.204  60.722  1.00  0.00     0.051 A 
HETATM   11  C   UNL     1       8.048  31.902  61.705  1.00  0.00     0.086 A 
HETATM   12  C   UNL     1       6.838  32.504  61.378  1.00  0.00     0.062 A 
HETATM   13  N   UNL     1       8.368  32.134  63.021  1.00  0.00    -0.231 NA
HETATM   14  N   UNL     1       6.434  33.109  62.541  1.00  0.00    -0.341 N 
HETATM   15  C   UNL     1       6.280  32.463  60.098  1.00  0.00     0.033 A 
HETATM   16  H   UNL     1       5.607  33.677  62.658  1.00  0.00     0.167 HD
HETATM   17  C   UNL     1       7.386  32.871  63.501  1.00  0.00     0.128 A 
HETATM   18  C   UNL     1       7.015  31.785  59.119  1.00  0.00     0.019 A 
BRANCH  17  19
HETATM   19  C   UNL     1       7.311  33.452  64.866  1.00  0.00     0.242 C 
BRANCH  19  20
HETATM   20  O   UNL     1       6.013  34.012  65.006  1.00  0.00    -0.393 OA
HETATM   21  H   UNL     1       5.776  33.888  65.947  1.00  0.00     0.209 HD
ENDBRANCH  19  20
ENDBRANCH  17  19
ENDBRANCH   5   9
BRANCH   1  22
HETATM   22  C   UNL     1       7.367  26.616  55.227  1.00  0.00    -0.051 A 
HETATM   23  C   UNL     1       7.565  26.143  53.925  1.00  0.00     0.044 A 
HETATM   24  C   UNL     1       7.820  24.792  53.693  1.00  0.00     0.066 A 
HETATM   25  C   UNL     1       7.888  23.880  54.739  1.00  0.00     0.036 A 
HETATM   26  C   UNL     1       7.701  24.331  56.042  1.00  0.00     0.003 A 
HETATM   27  C   UNL     1       7.447  25.683  56.282  1.00  0.00     0.007 A 
BRANCH  24  28
HETATM   28  O   UNL     1       8.007  24.397  52.400  1.00  0.00    -0.361 OA
HETATM   29  H   UNL     1       8.150  23.437  52.389  1.00  0.00     0.217 HD
ENDBRANCH  24  28
ENDBRANCH   1  22
TORSDOF 5
ENDMDL
MODEL 9
REMARK VINA RESULT:      -8.2      5.876      8.660
REMARK  5 active torsions:
REMARK  status: ('A' for Active; 'I' for Inactive)
REMARK    1  A    between atoms: C_3  and  O_4 
REMARK    2  A    between atoms: C_6  and  C_7 
REMARK       I    between atoms: N_10  and  C_11 
REMARK    3  A    between atoms: C_11  and  C_12 
REMARK    4  A    between atoms: C_18  and  C_19 
REMARK    5  A    between atoms: C_19  and  O_20 
ROOT
HETATM    1  C   UNL     1       7.588  25.672  52.671  1.00  0.00     0.022 C 
HETATM    2  C   UNL     1       6.738  25.377  51.411  1.00  0.00     0.029 C 
HETATM    3  C   UNL     1       5.259  25.753  51.543  1.00  0.00     0.127 C 
HETATM    4  N   UNL     1       5.120  27.096  52.093  1.00  0.00    -0.348 N 
HETATM    5  C   UNL     1       4.403  28.155  51.543  1.00  0.00     0.253 C 
HETATM    6  O   UNL     1       4.136  29.180  52.168  1.00  0.00    -0.267 OA
HETATM    7  C   UNL     1       5.741  27.271  53.399  1.00  0.00     0.127 C 
HETATM    8  C   UNL     1       7.245  27.058  53.263  1.00  0.00     0.029 C 
ENDROOT
BRANCH   5   9
HETATM    9  C   UNL     1       3.965  28.107  50.127  1.00  0.00     0.034 A 
HETATM   10  C   UNL     1       2.660  27.671  49.858  1.00  0.00     0.051 A 
HETATM   11  C   UNL     1       2.193  27.747  48.540  1.00  0.00     0.086 A 
HETATM   12  C   UNL     1       3.026  28.242  47.544  1.00  0.00     0.062 A 
HETATM   13  N   UNL     1       0.961  27.419  48.027  1.00  0.00    -0.231 NA
HETATM   14  N   UNL     1       2.258  28.203  46.408  1.00  0.00    -0.341 N 
HETATM   15  C   UNL     1       4.328  28.688  47.782  1.00  0.00     0.033 A 
HETATM   16  H   UNL     1       2.535  28.531  45.493  1.00  0.00     0.167 HD
HETATM   17  C   UNL     1       1.021  27.712  46.743  1.00  0.00     0.128 A 
HETATM   18  C   UNL     1       4.775  28.630  49.107  1.00  0.00     0.019 A 
BRANCH  17  19
HETATM   19  C   UNL     1      -0.094  27.612  45.768  1.00  0.00     0.242 C 
BRANCH  19  20
HETATM   20  O   UNL     1      -1.302  27.658  46.515  1.00  0.00    -0.393 OA
HETATM   21  H   UNL     1      -1.699  26.768  46.423  1.00  0.00     0.209 HD
ENDBRANCH  19  20
ENDBRANCH  17  19
ENDBRANCH   5   9
BRANCH   1  22
HETATM   22  C   UNL     1       7.628  24.596  53.751  1.00  0.00    -0.051 A 
HETATM   23  C   UNL     1       7.633  24.863  55.125  1.00  0.00     0.044 A 
HETATM   24  C   UNL     1       7.657  23.819  56.049  1.00  0.00     0.066 A 
HETATM   25  C   UNL     1       7.673  22.491  55.639  1.00  0.00     0.036 A 
HETATM   26  C   UNL     1       7.662  22.204  54.277  1.00  0.00     0.003 A 
HETATM   27  C   UNL     1       7.637  23.245  53.346  1.00  0.00     0.007 A 
BRANCH  24  28
HETATM   28  O   UNL     1       7.657  24.148  57.373  1.00  0.00    -0.361 OA
HETATM   29  H   UNL     1       7.386  25.076  57.460  1.00  0.00     0.217 HD
ENDBRANCH  24  28
ENDBRANCH   1  22
TORSDOF 5
ENDMDL
MODEL 10
REMARK VINA RESULT:      -8.2      3.698      5.771
REMARK  5 active torsions:
REMARK  status: ('A' for Active; 'I' for Inactive)
REMARK    1  A    between atoms: C_3  and  O_4 
REMARK    2  A    between atoms: C_6  and  C_7 
REMARK       I    between atoms: N_10  and  C_11 
REMARK    3  A    between atoms: C_11  and  C_12 
REMARK    4  A    between atoms: C_18  and  C_19 
REMARK    5  A    between atoms: C_19  and  O_20 
ROOT
HETATM    1  C   UNL     1       8.299  24.304  54.997  1.00  0.00     0.022 C 
HETATM    2  C   UNL     1       7.592  25.057  53.843  1.00  0.00     0.029 C 
HETATM    3  C   UNL     1       6.087  25.257  54.048  1.00  0.00     0.127 C 
HETATM    4  N   UNL     1       5.816  25.766  55.388  1.00  0.00    -0.348 N 
HETATM    5  C   UNL     1       5.092  26.908  55.718  1.00  0.00     0.253 C 
HETATM    6  O   UNL     1       4.705  27.149  56.861  1.00  0.00    -0.267 OA
HETATM    7  C   UNL     1       6.299  24.905  56.459  1.00  0.00     0.127 C 
HETATM    8  C   UNL     1       7.819  24.817  56.374  1.00  0.00     0.029 C 
ENDROOT
BRANCH   5   9
HETATM    9  C   UNL     1       4.794  27.929  54.686  1.00  0.00     0.034 A 
HETATM   10  C   UNL     1       4.503  27.486  53.388  1.00  0.00     0.051 A 
HETATM   11  C   UNL     1       4.091  28.432  52.440  1.00  0.00     0.086 A 
HETATM   12  C   UNL     1       3.987  29.769  52.805  1.00  0.00     0.062 A 
HETATM   13  N   UNL     1       3.721  28.254  51.129  1.00  0.00    -0.231 NA
HETATM   14  N   UNL     1       3.542  30.397  51.670  1.00  0.00    -0.341 N 
HETATM   15  C   UNL     1       4.265  30.239  54.090  1.00  0.00     0.033 A 
HETATM   16  H   UNL     1       3.315  31.378  51.584  1.00  0.00     0.167 HD
HETATM   17  C   UNL     1       3.385  29.450  50.689  1.00  0.00     0.128 A 
HETATM   18  C   UNL     1       4.652  29.282  55.035  1.00  0.00     0.019 A 
BRANCH  17  19
HETATM   19  C   UNL     1       2.836  29.768  49.346  1.00  0.00     0.242 C 
BRANCH  19  20
HETATM   20  O   UNL     1       3.079  28.636  48.522  1.00  0.00    -0.393 OA
HETATM   21  H   UNL     1       3.231  27.893  49.140  1.00  0.00     0.209 HD
ENDBRANCH  19  20
ENDBRANCH  17  19
ENDBRANCH   5   9
BRANCH   1  22
HETATM   22  C   UNL     1       8.302  22.781  54.936  1.00  0.00    -0.051 A 
HETATM   23  C   UNL     1       8.214  22.044  53.749  1.00  0.00     0.044 A 
HETATM   24  C   UNL     1       8.238  20.650  53.778  1.00  0.00     0.066 A 
HETATM   25  C   UNL     1       8.350  19.954  54.976  1.00  0.00     0.036 A 
HETATM   26  C   UNL     1       8.445  20.669  56.166  1.00  0.00     0.003 A 
HETATM   27  C   UNL     1       8.425  22.065  56.144  1.00  0.00     0.007 A 
BRANCH  24  28
HETATM   28  O   UNL     1       8.151  19.992  52.586  1.00  0.00    -0.361 OA
HETATM   29  H   UNL     1       7.434  20.390  52.065  1.00  0.00     0.217 HD
ENDBRANCH  24  28
ENDBRANCH   1  22
TORSDOF 5
ENDMDL
