MODEL 1
REMARK VINA RESULT:      -9.4      0.000      0.000
REMARK  5 active torsions:
REMARK  status: ('A' for Active; 'I' for Inactive)
REMARK    1  A    between atoms: C_2  and  C_3 
REMARK    2  A    between atoms: C_7  and  C_8 
REMARK       I    between atoms: C_8  and  N_9 
REMARK    3  A    between atoms: N_9  and  C_10 
REMARK    4  A    between atoms: C_13  and  C_14 
REMARK       I    between atoms: C_14  and  N_15 
REMARK    5  A    between atoms: N_15  and  C_16 
ROOT
HETATM    1  C   UNL     1       6.852  32.727  63.154  1.00  0.00     0.035 A 
HETATM    2  C   UNL     1       5.486  32.753  63.441  1.00  0.00     0.030 A 
HETATM    3  C   UNL     1       5.018  33.284  64.651  1.00  0.00     0.019 A 
HETATM    4  C   UNL     1       5.917  33.786  65.598  1.00  0.00     0.032 A 
HETATM    5  C   UNL     1       7.284  33.789  65.300  1.00  0.00     0.019 A 
HETATM    6  C   UNL     1       7.746  33.263  64.089  1.00  0.00     0.030 A 
ENDROOT
BRANCH   1   7
HETATM    7  N   UNL     1       7.406  32.186  61.976  1.00  0.00    -0.322 N 
HETATM    8  C   UNL     1       8.226  31.081  61.853  1.00  0.00     0.274 C 
HETATM    9  O   UNL     1       8.573  30.349  62.773  1.00  0.00    -0.266 OA
HETATM   10  H   UNL     1       7.188  32.681  61.123  1.00  0.00     0.169 HD
BRANCH   8  11
HETATM   11  C   UNL     1       8.684  30.823  60.507  1.00  0.00     0.120 A 
HETATM   12  N   UNL     1       7.991  29.983  59.675  1.00  0.00    -0.273 N 
HETATM   13  N   UNL     1       8.546  29.827  58.464  1.00  0.00    -0.179 NA
HETATM   14  H   UNL     1       7.131  29.486  59.893  1.00  0.00     0.189 HD
HETATM   15  C   UNL     1       9.641  30.592  58.508  1.00  0.00     0.056 A 
HETATM   16  C   UNL     1       9.769  31.242  59.760  1.00  0.00     0.065 A 
BRANCH  15  17
HETATM   17  C   UNL     1      10.552  30.677  57.332  1.00  0.00     0.056 C 
HETATM   18  C   UNL     1      10.180  29.684  56.241  1.00  0.00     0.011 C 
ENDBRANCH  15  17
ENDBRANCH   8  11
ENDBRANCH   1   7
BRANCH   4  19
HETATM   19  C   UNL     1       5.480  34.332  66.916  1.00  0.00     0.252 C 
HETATM   20  N   UNL     1       6.317  34.102  67.990  1.00  0.00    -0.352 N 
HETATM   21  H   UNL     1       7.250  33.766  67.805  1.00  0.00     0.163 HD
HETATM   22  O   UNL     1       4.443  34.982  66.995  1.00  0.00    -0.268 OA
BRANCH  20  23
HETATM   23  C   UNL     1       6.078  34.720  69.291  1.00  0.00     0.084 C 
HETATM   24  C   UNL     1       5.862  33.649  70.367  1.00  0.00     0.025 C 
HETATM   25  C   UNL     1       7.145  32.903  70.735  1.00  0.00     0.002 C 
HETATM   26  C   UNL     1       8.268  33.864  71.110  1.00  0.00     0.000 C 
HETATM   27  C   UNL     1       8.511  34.905  70.023  1.00  0.00     0.002 C 
HETATM   28  C   UNL     1       7.231  35.661  69.668  1.00  0.00     0.025 C 
ENDBRANCH  20  23
ENDBRANCH   4  19
TORSDOF 5
ENDMDL
MODEL 2
REMARK VINA RESULT:      -9.1      5.730      9.376
REMARK  5 active torsions:
REMARK  status: ('A' for Active; 'I' for Inactive)
REMARK    1  A    between atoms: C_2  and  C_3 
REMARK    2  A    between atoms: C_7  and  C_8 
REMARK       I    between atoms: C_8  and  N_9 
REMARK    3  A    between atoms: N_9  and  C_10 
REMARK    4  A    between atoms: C_13  and  C_14 
REMARK       I    between atoms: C_14  and  N_15 
REMARK    5  A    between atoms: N_15  and  C_16 
ROOT
HETATM    1  C   UNL     1       7.233  26.348  56.856  1.00  0.00     0.035 A 
HETATM    2  C   UNL     1       5.960  26.914  56.946  1.00  0.00     0.030 A 
HETATM    3  C   UNL     1       5.795  28.247  57.344  1.00  0.00     0.019 A 
HETATM    4  C   UNL     1       6.907  29.031  57.672  1.00  0.00     0.032 A 
HETATM    5  C   UNL     1       8.186  28.475  57.555  1.00  0.00     0.019 A 
HETATM    6  C   UNL     1       8.346  27.145  57.152  1.00  0.00     0.030 A 
ENDROOT
BRANCH   1   7
HETATM    7  N   UNL     1       7.483  25.009  56.492  1.00  0.00    -0.322 N 
HETATM    8  C   UNL     1       8.344  24.112  57.095  1.00  0.00     0.274 C 
HETATM    9  O   UNL     1       9.009  24.332  58.101  1.00  0.00    -0.266 OA
HETATM   10  H   UNL     1       6.984  24.677  55.680  1.00  0.00     0.169 HD
BRANCH   8  11
HETATM   11  C   UNL     1       8.425  22.828  56.436  1.00  0.00     0.120 A 
HETATM   12  N   UNL     1       8.430  21.664  57.159  1.00  0.00    -0.273 N 
HETATM   13  N   UNL     1       8.530  20.553  56.412  1.00  0.00    -0.179 NA
HETATM   14  H   UNL     1       8.373  21.576  58.170  1.00  0.00     0.189 HD
HETATM   15  C   UNL     1       8.593  21.011  55.158  1.00  0.00     0.056 A 
HETATM   16  C   UNL     1       8.525  22.425  55.118  1.00  0.00     0.065 A 
BRANCH  15  17
HETATM   17  C   UNL     1       8.725  20.065  54.014  1.00  0.00     0.056 C 
HETATM   18  C   UNL     1       8.128  20.626  52.731  1.00  0.00     0.011 C 
ENDBRANCH  15  17
ENDBRANCH   8  11
ENDBRANCH   1   7
BRANCH   4  19
HETATM   19  C   UNL     1       6.791  30.444  58.134  1.00  0.00     0.252 C 
HETATM   20  N   UNL     1       7.394  30.754  59.338  1.00  0.00    -0.352 N 
HETATM   21  H   UNL     1       8.037  30.086  59.736  1.00  0.00     0.163 HD
HETATM   22  O   UNL     1       6.215  31.271  57.435  1.00  0.00    -0.268 OA
BRANCH  20  23
HETATM   23  C   UNL     1       7.485  32.131  59.815  1.00  0.00     0.084 C 
HETATM   24  C   UNL     1       6.515  32.366  60.979  1.00  0.00     0.025 C 
HETATM   25  C   UNL     1       6.955  31.679  62.272  1.00  0.00     0.002 C 
HETATM   26  C   UNL     1       8.388  32.045  62.646  1.00  0.00     0.000 C 
HETATM   27  C   UNL     1       9.360  31.774  61.503  1.00  0.00     0.002 C 
HETATM   28  C   UNL     1       8.927  32.475  60.215  1.00  0.00     0.025 C 
ENDBRANCH  20  23
ENDBRANCH   4  19
TORSDOF 5
ENDMDL
MODEL 3
REMARK VINA RESULT:      -9.0      5.732      9.326
REMARK  5 active torsions:
REMARK  status: ('A' for Active; 'I' for Inactive)
REMARK    1  A    between atoms: C_2  and  C_3 
REMARK    2  A    between atoms: C_7  and  C_8 
REMARK       I    between atoms: C_8  and  N_9 
REMARK    3  A    between atoms: N_9  and  C_10 
REMARK    4  A    between atoms: C_13  and  C_14 
REMARK       I    between atoms: C_14  and  N_15 
REMARK    5  A    between atoms: N_15  and  C_16 
ROOT
HETATM    1  C   UNL     1       7.051  27.001  56.421  1.00  0.00     0.035 A 
HETATM    2  C   UNL     1       5.784  27.582  56.499  1.00  0.00     0.030 A 
HETATM    3  C   UNL     1       5.608  28.838  57.096  1.00  0.00     0.019 A 
HETATM    4  C   UNL     1       6.701  29.525  57.636  1.00  0.00     0.032 A 
HETATM    5  C   UNL     1       7.976  28.957  57.532  1.00  0.00     0.019 A 
HETATM    6  C   UNL     1       8.148  27.706  56.932  1.00  0.00     0.030 A 
ENDROOT
BRANCH   1   7
HETATM    7  N   UNL     1       7.308  25.731  55.864  1.00  0.00    -0.322 N 
HETATM    8  C   UNL     1       7.506  25.413  54.534  1.00  0.00     0.274 C 
HETATM    9  O   UNL     1       7.535  26.216  53.608  1.00  0.00    -0.266 OA
HETATM   10  H   UNL     1       7.332  24.963  56.518  1.00  0.00     0.169 HD
BRANCH   8  11
HETATM   11  C   UNL     1       7.680  24.002  54.278  1.00  0.00     0.120 A 
HETATM   12  N   UNL     1       7.840  23.531  53.001  1.00  0.00    -0.273 N 
HETATM   13  N   UNL     1       7.971  22.198  52.917  1.00  0.00    -0.179 NA
HETATM   14  H   UNL     1       7.861  24.084  52.148  1.00  0.00     0.189 HD
HETATM   15  C   UNL     1       7.893  21.786  54.186  1.00  0.00     0.056 A 
HETATM   16  C   UNL     1       7.718  22.873  55.075  1.00  0.00     0.065 A 
BRANCH  15  17
HETATM   17  C   UNL     1       7.983  20.335  54.516  1.00  0.00     0.056 C 
HETATM   18  C   UNL     1       8.455  20.097  55.943  1.00  0.00     0.011 C 
ENDBRANCH  15  17
ENDBRANCH   8  11
ENDBRANCH   1   7
BRANCH   4  19
HETATM   19  C   UNL     1       6.569  30.848  58.312  1.00  0.00     0.252 C 
HETATM   20  N   UNL     1       7.274  31.015  59.489  1.00  0.00    -0.352 N 
HETATM   21  H   UNL     1       7.981  30.335  59.723  1.00  0.00     0.163 HD
HETATM   22  O   UNL     1       5.892  31.732  57.799  1.00  0.00    -0.268 OA
BRANCH  20  23
HETATM   23  C   UNL     1       7.351  32.312  60.155  1.00  0.00     0.084 C 
HETATM   24  C   UNL     1       6.372  32.374  61.334  1.00  0.00     0.025 C 
HETATM   25  C   UNL     1       6.810  31.515  62.520  1.00  0.00     0.002 C 
HETATM   26  C   UNL     1       8.237  31.835  62.953  1.00  0.00     0.000 C 
HETATM   27  C   UNL     1       9.218  31.734  61.789  1.00  0.00     0.002 C 
HETATM   28  C   UNL     1       8.788  32.606  60.610  1.00  0.00     0.025 C 
ENDBRANCH  20  23
ENDBRANCH   4  19
TORSDOF 5
ENDMDL
MODEL 4
REMARK VINA RESULT:      -8.5      5.392      8.886
REMARK  5 active torsions:
REMARK  status: ('A' for Active; 'I' for Inactive)
REMARK    1  A    between atoms: C_2  and  C_3 
REMARK    2  A    between atoms: C_7  and  C_8 
REMARK       I    between atoms: C_8  and  N_9 
REMARK    3  A    between atoms: N_9  and  C_10 
REMARK    4  A    between atoms: C_13  and  C_14 
REMARK       I    between atoms: C_14  and  N_15 
REMARK    5  A    between atoms: N_15  and  C_16 
ROOT
HETATM    1  C   UNL     1       7.185  27.498  56.846  1.00  0.00     0.035 A 
HETATM    2  C   UNL     1       8.221  28.216  57.446  1.00  0.00     0.030 A 
HETATM    3  C   UNL     1       7.985  29.474  58.016  1.00  0.00     0.019 A 
HETATM    4  C   UNL     1       6.705  30.039  57.980  1.00  0.00     0.032 A 
HETATM    5  C   UNL     1       5.659  29.309  57.406  1.00  0.00     0.019 A 
HETATM    6  C   UNL     1       5.898  28.051  56.844  1.00  0.00     0.030 A 
ENDROOT
BRANCH   1   7
HETATM    7  N   UNL     1       7.344  26.242  56.226  1.00  0.00    -0.322 N 
HETATM    8  C   UNL     1       7.433  25.968  54.875  1.00  0.00     0.274 C 
HETATM    9  O   UNL     1       7.433  26.804  53.979  1.00  0.00    -0.266 OA
HETATM   10  H   UNL     1       7.378  25.449  56.849  1.00  0.00     0.169 HD
BRANCH   8  11
HETATM   11  C   UNL     1       7.523  24.561  54.556  1.00  0.00     0.120 A 
HETATM   12  N   UNL     1       7.355  23.606  55.525  1.00  0.00    -0.273 N 
HETATM   13  N   UNL     1       7.486  22.346  55.084  1.00  0.00    -0.179 NA
HETATM   14  H   UNL     1       7.153  23.768  56.508  1.00  0.00     0.189 HD
HETATM   15  C   UNL     1       7.750  22.484  53.782  1.00  0.00     0.056 A 
HETATM   16  C   UNL     1       7.778  23.848  53.400  1.00  0.00     0.065 A 
BRANCH  15  17
HETATM   17  C   UNL     1       7.979  21.286  52.925  1.00  0.00     0.056 C 
HETATM   18  C   UNL     1       8.686  20.167  53.676  1.00  0.00     0.011 C 
ENDBRANCH  15  17
ENDBRANCH   8  11
ENDBRANCH   1   7
BRANCH   4  19
HETATM   19  C   UNL     1       6.402  31.388  58.540  1.00  0.00     0.252 C 
HETATM   20  N   UNL     1       6.479  31.520  59.913  1.00  0.00    -0.352 N 
HETATM   21  H   UNL     1       6.921  30.782  60.440  1.00  0.00     0.163 HD
HETATM   22  O   UNL     1       6.139  32.318  57.786  1.00  0.00    -0.268 OA
BRANCH  20  23
HETATM   23  C   UNL     1       6.361  32.822  60.563  1.00  0.00     0.084 C 
HETATM   24  C   UNL     1       4.932  33.045  61.073  1.00  0.00     0.025 C 
HETATM   25  C   UNL     1       4.590  32.184  62.289  1.00  0.00     0.002 C 
HETATM   26  C   UNL     1       5.619  32.346  63.403  1.00  0.00     0.000 C 
HETATM   27  C   UNL     1       7.038  32.086  62.907  1.00  0.00     0.002 C 
HETATM   28  C   UNL     1       7.383  32.959  61.700  1.00  0.00     0.025 C 
ENDBRANCH  20  23
ENDBRANCH   4  19
TORSDOF 5
ENDMDL
MODEL 5
REMARK VINA RESULT:      -8.3      5.172      8.836
REMARK  5 active torsions:
REMARK  status: ('A' for Active; 'I' for Inactive)
REMARK    1  A    between atoms: C_2  and  C_3 
REMARK    2  A    between atoms: C_7  and  C_8 
REMARK       I    between atoms: C_8  and  N_9 
REMARK    3  A    between atoms: N_9  and  C_10 
REMARK    4  A    between atoms: C_13  and  C_14 
REMARK       I    between atoms: C_14  and  N_15 
REMARK    5  A    between atoms: N_15  and  C_16 
ROOT
HETATM    1  C   UNL     1       7.782  27.677  56.751  1.00  0.00     0.035 A 
HETATM    2  C   UNL     1       6.595  28.275  57.176  1.00  0.00     0.030 A 
HETATM    3  C   UNL     1       6.615  29.489  57.877  1.00  0.00     0.019 A 
HETATM    4  C   UNL     1       7.831  30.115  58.173  1.00  0.00     0.032 A 
HETATM    5  C   UNL     1       9.020  29.532  57.722  1.00  0.00     0.019 A 
HETATM    6  C   UNL     1       8.995  28.324  57.018  1.00  0.00     0.030 A 
ENDROOT
BRANCH   1   7
HETATM    7  N   UNL     1       7.850  26.446  56.067  1.00  0.00    -0.322 N 
HETATM    8  C   UNL     1       7.424  26.164  54.783  1.00  0.00     0.274 C 
HETATM    9  O   UNL     1       6.948  26.976  53.998  1.00  0.00    -0.266 OA
HETATM   10  H   UNL     1       8.241  25.676  56.590  1.00  0.00     0.169 HD
BRANCH   8  11
HETATM   11  C   UNL     1       7.571  24.779  54.396  1.00  0.00     0.120 A 
HETATM   12  N   UNL     1       7.611  24.417  53.075  1.00  0.00    -0.273 N 
HETATM   13  N   UNL     1       7.732  23.096  52.870  1.00  0.00    -0.179 NA
HETATM   14  H   UNL     1       7.553  25.039  52.273  1.00  0.00     0.189 HD
HETATM   15  C   UNL     1       7.772  22.580  54.102  1.00  0.00     0.056 A 
HETATM   16  C   UNL     1       7.682  23.590  55.091  1.00  0.00     0.065 A 
BRANCH  15  17
HETATM   17  C   UNL     1       7.891  21.107  54.301  1.00  0.00     0.056 C 
HETATM   18  C   UNL     1       7.685  20.704  55.754  1.00  0.00     0.011 C 
ENDBRANCH  15  17
ENDBRANCH   8  11
ENDBRANCH   1   7
BRANCH   4  19
HETATM   19  C   UNL     1       7.916  31.389  58.944  1.00  0.00     0.252 C 
HETATM   20  N   UNL     1       6.886  31.649  59.827  1.00  0.00    -0.352 N 
HETATM   21  H   UNL     1       6.251  30.899  60.055  1.00  0.00     0.163 HD
HETATM   22  O   UNL     1       8.887  32.125  58.804  1.00  0.00    -0.268 OA
BRANCH  20  23
HETATM   23  C   UNL     1       6.937  32.780  60.749  1.00  0.00     0.084 C 
HETATM   24  C   UNL     1       5.532  33.347  60.989  1.00  0.00     0.025 C 
HETATM   25  C   UNL     1       4.656  32.432  61.845  1.00  0.00     0.002 C 
HETATM   26  C   UNL     1       5.345  32.054  63.153  1.00  0.00     0.000 C 
HETATM   27  C   UNL     1       6.726  31.453  62.914  1.00  0.00     0.002 C 
HETATM   28  C   UNL     1       7.606  32.376  62.071  1.00  0.00     0.025 C 
ENDBRANCH  20  23
ENDBRANCH   4  19
TORSDOF 5
ENDMDL
MODEL 6
REMARK VINA RESULT:      -8.3      4.760     12.471
REMARK  5 active torsions:
REMARK  status: ('A' for Active; 'I' for Inactive)
REMARK    1  A    between atoms: C_2  and  C_3 
REMARK    2  A    between atoms: C_7  and  C_8 
REMARK       I    between atoms: C_8  and  N_9 
REMARK    3  A    between atoms: N_9  and  C_10 
REMARK    4  A    between atoms: C_13  and  C_14 
REMARK       I    between atoms: C_14  and  N_15 
REMARK    5  A    between atoms: N_15  and  C_16 
ROOT
HETATM    1  C   UNL     1       6.831  29.965  57.749  1.00  0.00     0.035 A 
HETATM    2  C   UNL     1       7.854  29.140  57.278  1.00  0.00     0.030 A 
HETATM    3  C   UNL     1       7.772  28.551  56.009  1.00  0.00     0.019 A 
HETATM    4  C   UNL     1       6.654  28.771  55.197  1.00  0.00     0.032 A 
HETATM    5  C   UNL     1       5.642  29.622  55.655  1.00  0.00     0.019 A 
HETATM    6  C   UNL     1       5.730  30.212  56.920  1.00  0.00     0.030 A 
ENDROOT
BRANCH   1   7
HETATM    7  N   UNL     1       6.824  30.572  59.022  1.00  0.00    -0.322 N 
HETATM    8  C   UNL     1       7.671  31.554  59.499  1.00  0.00     0.274 C 
HETATM    9  O   UNL     1       8.558  32.101  58.854  1.00  0.00    -0.266 OA
HETATM   10  H   UNL     1       6.125  30.230  59.665  1.00  0.00     0.169 HD
BRANCH   8  11
HETATM   11  C   UNL     1       7.445  31.918  60.879  1.00  0.00     0.120 A 
HETATM   12  N   UNL     1       6.202  31.803  61.444  1.00  0.00    -0.273 N 
HETATM   13  N   UNL     1       6.141  32.196  62.726  1.00  0.00    -0.179 NA
HETATM   14  H   UNL     1       5.357  31.465  60.990  1.00  0.00     0.189 HD
HETATM   15  C   UNL     1       7.390  32.581  63.006  1.00  0.00     0.056 A 
HETATM   16  C   UNL     1       8.244  32.421  61.888  1.00  0.00     0.065 A 
BRANCH  15  17
HETATM   17  C   UNL     1       7.734  33.107  64.357  1.00  0.00     0.056 C 
HETATM   18  C   UNL     1       6.584  33.881  64.985  1.00  0.00     0.011 C 
ENDBRANCH  15  17
ENDBRANCH   8  11
ENDBRANCH   1   7
BRANCH   4  19
HETATM   19  C   UNL     1       6.497  28.145  53.852  1.00  0.00     0.252 C 
HETATM   20  N   UNL     1       7.072  26.901  53.678  1.00  0.00    -0.352 N 
HETATM   21  H   UNL     1       7.384  26.399  54.495  1.00  0.00     0.163 HD
HETATM   22  O   UNL     1       5.849  28.718  52.983  1.00  0.00    -0.268 OA
BRANCH  20  23
HETATM   23  C   UNL     1       6.851  26.122  52.463  1.00  0.00     0.084 C 
HETATM   24  C   UNL     1       8.072  25.248  52.151  1.00  0.00     0.025 C 
HETATM   25  C   UNL     1       8.227  24.072  53.116  1.00  0.00     0.002 C 
HETATM   26  C   UNL     1       6.949  23.246  53.210  1.00  0.00     0.000 C 
HETATM   27  C   UNL     1       5.740  24.108  53.559  1.00  0.00     0.002 C 
HETATM   28  C   UNL     1       5.577  25.273  52.583  1.00  0.00     0.025 C 
ENDBRANCH  20  23
ENDBRANCH   4  19
TORSDOF 5
ENDMDL
MODEL 7
REMARK VINA RESULT:      -8.3      4.194     12.067
REMARK  5 active torsions:
REMARK  status: ('A' for Active; 'I' for Inactive)
REMARK    1  A    between atoms: C_2  and  C_3 
REMARK    2  A    between atoms: C_7  and  C_8 
REMARK       I    between atoms: C_8  and  N_9 
REMARK    3  A    between atoms: N_9  and  C_10 
REMARK    4  A    between atoms: C_13  and  C_14 
REMARK       I    between atoms: C_14  and  N_15 
REMARK    5  A    between atoms: N_15  and  C_16 
ROOT
HETATM    1  C   UNL     1       7.338  30.324  58.514  1.00  0.00     0.035 A 
HETATM    2  C   UNL     1       6.345  30.320  57.533  1.00  0.00     0.030 A 
HETATM    3  C   UNL     1       6.548  29.665  56.310  1.00  0.00     0.019 A 
HETATM    4  C   UNL     1       7.759  29.013  56.049  1.00  0.00     0.032 A 
HETATM    5  C   UNL     1       8.744  28.991  57.042  1.00  0.00     0.019 A 
HETATM    6  C   UNL     1       8.535  29.642  58.262  1.00  0.00     0.030 A 
ENDROOT
BRANCH   1   7
HETATM    7  N   UNL     1       7.224  30.982  59.755  1.00  0.00    -0.322 N 
HETATM    8  C   UNL     1       8.076  30.901  60.840  1.00  0.00     0.274 C 
HETATM    9  O   UNL     1       9.122  30.262  60.875  1.00  0.00    -0.266 OA
HETATM   10  H   UNL     1       6.409  31.567  59.867  1.00  0.00     0.169 HD
BRANCH   8  11
HETATM   11  C   UNL     1       7.642  31.649  61.997  1.00  0.00     0.120 A 
HETATM   12  N   UNL     1       6.317  31.705  62.344  1.00  0.00    -0.273 N 
HETATM   13  N   UNL     1       6.063  32.451  63.430  1.00  0.00    -0.179 NA
HETATM   14  H   UNL     1       5.544  31.251  61.864  1.00  0.00     0.189 HD
HETATM   15  C   UNL     1       7.266  32.899  63.803  1.00  0.00     0.056 A 
HETATM   16  C   UNL     1       8.286  32.421  62.946  1.00  0.00     0.065 A 
BRANCH  15  17
HETATM   17  C   UNL     1       7.406  33.792  64.988  1.00  0.00     0.056 C 
HETATM   18  C   UNL     1       6.119  33.886  65.795  1.00  0.00     0.011 C 
ENDBRANCH  15  17
ENDBRANCH   8  11
ENDBRANCH   1   7
BRANCH   4  19
HETATM   19  C   UNL     1       8.044  28.328  54.755  1.00  0.00     0.252 C 
HETATM   20  N   UNL     1       7.164  27.335  54.373  1.00  0.00    -0.352 N 
HETATM   21  H   UNL     1       6.286  27.259  54.864  1.00  0.00     0.163 HD
HETATM   22  O   UNL     1       8.999  28.683  54.073  1.00  0.00    -0.268 OA
BRANCH  20  23
HETATM   23  C   UNL     1       7.247  26.705  53.058  1.00  0.00     0.084 C 
HETATM   24  C   UNL     1       7.484  25.196  53.195  1.00  0.00     0.025 C 
HETATM   25  C   UNL     1       6.254  24.441  53.699  1.00  0.00     0.002 C 
HETATM   26  C   UNL     1       5.019  24.746  52.857  1.00  0.00     0.000 C 
HETATM   27  C   UNL     1       4.759  26.245  52.753  1.00  0.00     0.002 C 
HETATM   28  C   UNL     1       5.985  26.997  52.233  1.00  0.00     0.025 C 
ENDBRANCH  20  23
ENDBRANCH   4  19
TORSDOF 5
ENDMDL
MODEL 8
REMARK VINA RESULT:      -7.7      8.959     12.998
REMARK  5 active torsions:
REMARK  status: ('A' for Active; 'I' for Inactive)
REMARK    1  A    between atoms: C_2  and  C_3 
REMARK    2  A    between atoms: C_7  and  C_8 
REMARK       I    between atoms: C_8  and  N_9 
REMARK    3  A    between atoms: N_9  and  C_10 
REMARK    4  A    between atoms: C_13  and  C_14 
REMARK       I    between atoms: C_14  and  N_15 
REMARK    5  A    between atoms: N_15  and  C_16 
ROOT
HETATM    1  C   UNL     1       5.858  27.978  57.103  1.00  0.00     0.035 A 
HETATM    2  C   UNL     1       5.285  26.747  56.780  1.00  0.00     0.030 A 
HETATM    3  C   UNL     1       6.063  25.582  56.742  1.00  0.00     0.019 A 
HETATM    4  C   UNL     1       7.435  25.637  57.015  1.00  0.00     0.032 A 
HETATM    5  C   UNL     1       8.005  26.865  57.368  1.00  0.00     0.019 A 
HETATM    6  C   UNL     1       7.224  28.024  57.411  1.00  0.00     0.030 A 
ENDROOT
BRANCH   1   7
HETATM    7  N   UNL     1       5.153  29.198  57.136  1.00  0.00    -0.322 N 
HETATM    8  C   UNL     1       4.789  29.997  56.068  1.00  0.00     0.274 C 
HETATM    9  O   UNL     1       4.989  29.737  54.887  1.00  0.00    -0.266 OA
HETATM   10  H   UNL     1       4.902  29.533  58.054  1.00  0.00     0.169 HD
BRANCH   8  11
HETATM   11  C   UNL     1       4.129  31.226  56.441  1.00  0.00     0.120 A 
HETATM   12  N   UNL     1       2.893  31.543  55.940  1.00  0.00    -0.273 N 
HETATM   13  N   UNL     1       2.415  32.724  56.361  1.00  0.00    -0.179 NA
HETATM   14  H   UNL     1       2.336  30.984  55.299  1.00  0.00     0.189 HD
HETATM   15  C   UNL     1       3.374  33.194  57.164  1.00  0.00     0.056 A 
HETATM   16  C   UNL     1       4.463  32.293  57.254  1.00  0.00     0.065 A 
BRANCH  15  17
HETATM   17  C   UNL     1       3.220  34.519  57.831  1.00  0.00     0.056 C 
HETATM   18  C   UNL     1       4.219  35.544  57.312  1.00  0.00     0.011 C 
ENDBRANCH  15  17
ENDBRANCH   8  11
ENDBRANCH   1   7
BRANCH   4  19
HETATM   19  C   UNL     1       8.319  24.437  56.957  1.00  0.00     0.252 C 
HETATM   20  N   UNL     1       8.252  23.674  55.807  1.00  0.00    -0.352 N 
HETATM   21  H   UNL     1       7.779  24.060  55.004  1.00  0.00     0.163 HD
HETATM   22  O   UNL     1       9.082  24.194  57.885  1.00  0.00    -0.268 OA
BRANCH  20  23
HETATM   23  C   UNL     1       9.179  22.572  55.567  1.00  0.00     0.084 C 
HETATM   24  C   UNL     1       8.667  21.281  56.219  1.00  0.00     0.025 C 
HETATM   25  C   UNL     1       7.459  20.686  55.497  1.00  0.00     0.002 C 
HETATM   26  C   UNL     1       7.728  20.499  54.007  1.00  0.00     0.000 C 
HETATM   27  C   UNL     1       8.199  21.791  53.349  1.00  0.00     0.002 C 
HETATM   28  C   UNL     1       9.417  22.377  54.063  1.00  0.00     0.025 C 
ENDBRANCH  20  23
ENDBRANCH   4  19
TORSDOF 5
ENDMDL
MODEL 9
REMARK VINA RESULT:      -7.5      5.406     12.590
REMARK  5 active torsions:
REMARK  status: ('A' for Active; 'I' for Inactive)
REMARK    1  A    between atoms: C_2  and  C_3 
REMARK    2  A    between atoms: C_7  and  C_8 
REMARK       I    between atoms: C_8  and  N_9 
REMARK    3  A    between atoms: N_9  and  C_10 
REMARK    4  A    between atoms: C_13  and  C_14 
REMARK       I    between atoms: C_14  and  N_15 
REMARK    5  A    between atoms: N_15  and  C_16 
ROOT
HETATM    1  C   UNL     1       5.471  30.162  57.657  1.00  0.00     0.035 A 
HETATM    2  C   UNL     1       6.544  29.529  57.028  1.00  0.00     0.030 A 
HETATM    3  C   UNL     1       6.350  28.787  55.855  1.00  0.00     0.019 A 
HETATM    4  C   UNL     1       5.071  28.658  55.302  1.00  0.00     0.032 A 
HETATM    5  C   UNL     1       3.999  29.316  55.915  1.00  0.00     0.019 A 
HETATM    6  C   UNL     1       4.198  30.060  57.083  1.00  0.00     0.030 A 
ENDROOT
BRANCH   1   7
HETATM    7  N   UNL     1       5.577  30.902  58.853  1.00  0.00    -0.322 N 
HETATM    8  C   UNL     1       5.753  32.265  58.994  1.00  0.00     0.274 C 
HETATM    9  O   UNL     1       5.799  33.075  58.075  1.00  0.00    -0.266 OA
HETATM   10  H   UNL     1       5.537  30.363  59.705  1.00  0.00     0.169 HD
BRANCH   8  11
HETATM   11  C   UNL     1       5.893  32.710  60.362  1.00  0.00     0.120 A 
HETATM   12  N   UNL     1       6.531  31.934  61.294  1.00  0.00    -0.273 N 
HETATM   13  N   UNL     1       6.568  32.469  62.524  1.00  0.00    -0.179 NA
HETATM   14  H   UNL     1       6.956  31.023  61.138  1.00  0.00     0.189 HD
HETATM   15  C   UNL     1       5.930  33.635  62.389  1.00  0.00     0.056 A 
HETATM   16  C   UNL     1       5.495  33.837  61.056  1.00  0.00     0.065 A 
BRANCH  15  17
HETATM   17  C   UNL     1       5.747  34.537  63.561  1.00  0.00     0.056 C 
HETATM   18  C   UNL     1       5.678  36.002  63.156  1.00  0.00     0.011 C 
ENDBRANCH  15  17
ENDBRANCH   8  11
ENDBRANCH   1   7
BRANCH   4  19
HETATM   19  C   UNL     1       4.798  27.854  54.075  1.00  0.00     0.252 C 
HETATM   20  N   UNL     1       5.698  26.848  53.782  1.00  0.00    -0.352 N 
HETATM   21  H   UNL     1       6.360  26.577  54.493  1.00  0.00     0.163 HD
HETATM   22  O   UNL     1       3.795  28.079  53.407  1.00  0.00    -0.268 OA
BRANCH  20  23
HETATM   23  C   UNL     1       5.454  25.896  52.702  1.00  0.00     0.084 C 
HETATM   24  C   UNL     1       6.595  25.934  51.678  1.00  0.00     0.025 C 
HETATM   25  C   UNL     1       7.889  25.312  52.203  1.00  0.00     0.002 C 
HETATM   26  C   UNL     1       7.660  23.904  52.743  1.00  0.00     0.000 C 
HETATM   27  C   UNL     1       6.553  23.871  53.791  1.00  0.00     0.002 C 
HETATM   28  C   UNL     1       5.254  24.479  53.259  1.00  0.00     0.025 C 
ENDBRANCH  20  23
ENDBRANCH   4  19
TORSDOF 5
ENDMDL
MODEL 10
REMARK VINA RESULT:      -7.4      7.233     14.710
REMARK  5 active torsions:
REMARK  status: ('A' for Active; 'I' for Inactive)
REMARK    1  A    between atoms: C_2  and  C_3 
REMARK    2  A    between atoms: C_7  and  C_8 
REMARK       I    between atoms: C_8  and  N_9 
REMARK    3  A    between atoms: N_9  and  C_10 
REMARK    4  A    between atoms: C_13  and  C_14 
REMARK       I    between atoms: C_14  and  N_15 
REMARK    5  A    between atoms: N_15  and  C_16 
ROOT
HETATM    1  C   UNL     1       6.395  28.709  54.575  1.00  0.00     0.035 A 
HETATM    2  C   UNL     1       5.118  29.039  54.118  1.00  0.00     0.030 A 
HETATM    3  C   UNL     1       4.573  28.405  52.994  1.00  0.00     0.019 A 
HETATM    4  C   UNL     1       5.307  27.436  52.301  1.00  0.00     0.032 A 
HETATM    5  C   UNL     1       6.575  27.082  52.775  1.00  0.00     0.019 A 
HETATM    6  C   UNL     1       7.114  27.714  53.900  1.00  0.00     0.030 A 
ENDROOT
BRANCH   1   7
HETATM    7  N   UNL     1       7.026  29.318  55.678  1.00  0.00    -0.322 N 
HETATM    8  C   UNL     1       6.850  29.035  57.019  1.00  0.00     0.274 C 
HETATM    9  O   UNL     1       6.130  28.151  57.470  1.00  0.00    -0.266 OA
HETATM   10  H   UNL     1       7.669  30.064  55.457  1.00  0.00     0.169 HD
BRANCH   8  11
HETATM   11  C   UNL     1       7.597  29.890  57.913  1.00  0.00     0.120 A 
HETATM   12  N   UNL     1       8.944  29.716  58.093  1.00  0.00    -0.273 N 
HETATM   13  N   UNL     1       9.498  30.572  58.966  1.00  0.00    -0.179 NA
HETATM   14  H   UNL     1       9.532  29.019  57.644  1.00  0.00     0.189 HD
HETATM   15  C   UNL     1       8.475  31.330  59.369  1.00  0.00     0.056 A 
HETATM   16  C   UNL     1       7.266  30.950  58.736  1.00  0.00     0.065 A 
BRANCH  15  17
HETATM   17  C   UNL     1       8.685  32.413  60.372  1.00  0.00     0.056 C 
HETATM   18  C   UNL     1       9.193  31.876  61.702  1.00  0.00     0.011 C 
ENDBRANCH  15  17
ENDBRANCH   8  11
ENDBRANCH   1   7
BRANCH   4  19
HETATM   19  C   UNL     1       4.793  26.752  51.080  1.00  0.00     0.252 C 
HETATM   20  N   UNL     1       4.046  27.521  50.208  1.00  0.00    -0.352 N 
HETATM   21  H   UNL     1       4.054  28.523  50.326  1.00  0.00     0.163 HD
HETATM   22  O   UNL     1       5.071  25.576  50.874  1.00  0.00    -0.268 OA
BRANCH  20  23
HETATM   23  C   UNL     1       3.624  27.009  48.907  1.00  0.00     0.084 C 
HETATM   24  C   UNL     1       2.224  27.522  48.551  1.00  0.00     0.025 C 
HETATM   25  C   UNL     1       2.205  29.009  48.195  1.00  0.00     0.002 C 
HETATM   26  C   UNL     1       3.223  29.342  47.108  1.00  0.00     0.000 C 
HETATM   27  C   UNL     1       4.624  28.867  47.479  1.00  0.00     0.002 C 
HETATM   28  C   UNL     1       4.644  27.377  47.820  1.00  0.00     0.025 C 
ENDBRANCH  20  23
ENDBRANCH   4  19
TORSDOF 5
ENDMDL
