MODEL 1
REMARK VINA RESULT:      -8.4      0.000      0.000
REMARK  3 active torsions:
REMARK  status: ('A' for Active; 'I' for Inactive)
REMARK    1  A    between atoms: N_6  and  C_7 
REMARK    2  A    between atoms: C_7  and  C_8 
REMARK    3  A    between atoms: N_10  and  C_11 
ROOT
HETATM    1  C   UNL     1       7.941  22.687  55.090  1.00  0.00     0.073 A 
HETATM    2  C   UNL     1       8.216  21.391  55.598  1.00  0.00     0.062 A 
HETATM    3 CL   UNL     1       8.228  21.005  57.285  1.00  0.00    -0.082 Cl
HETATM    4  C   UNL     1       8.430  20.299  54.740  1.00  0.00     0.026 A 
HETATM    5  C   UNL     1       8.347  20.446  53.362  1.00  0.00     0.003 A 
HETATM    6  C   UNL     1       8.038  21.689  52.830  1.00  0.00     0.025 A 
HETATM    7  C   UNL     1       7.838  22.797  53.674  1.00  0.00     0.072 A 
HETATM    8  C   UNL     1       7.517  24.044  53.033  1.00  0.00     0.102 C 
HETATM    9  N   UNL     1       7.220  25.023  52.480  1.00  0.00    -0.191 NA
ENDROOT
BRANCH   1  10
HETATM   10  N   UNL     1       7.770  23.853  55.869  1.00  0.00    -0.378 N 
HETATM   11  C   UNL     1       6.461  23.955  56.538  1.00  0.00     0.129 C 
HETATM   12  C   UNL     1       6.185  25.440  56.880  1.00  0.00     0.032 C 
HETATM   13  C   UNL     1       7.333  25.991  57.745  1.00  0.00     0.009 C 
HETATM   14  C   UNL     1       8.705  25.758  57.103  1.00  0.00     0.020 C 
HETATM   15  C   UNL     1       8.894  24.287  56.722  1.00  0.00     0.123 C 
BRANCH  12  16
HETATM   16  C   UNL     1       5.993  26.245  55.573  1.00  0.00     0.278 C 
BRANCH  16  17
HETATM   17  N   UNL     1       5.890  27.710  55.747  1.00  0.00     0.092 N 
HETATM   18  C   UNL     1       4.599  28.250  55.277  1.00  0.00     0.300 C 
HETATM   19  C   UNL     1       4.406  28.260  53.743  1.00  0.00     0.264 C 
HETATM   20  N   UNL     1       5.583  28.929  53.051  1.00  0.00    -0.072 N 
HETATM   21  C   UNL     1       5.453  28.877  51.558  1.00  0.00     0.269 C 
HETATM   22  H   UNL     1       5.577  29.916  53.336  1.00  0.00     0.279 HD
HETATM   23  C   UNL     1       6.916  28.354  53.511  1.00  0.00     0.264 C 
HETATM   24  C   UNL     1       7.003  28.394  55.049  1.00  0.00     0.300 C 
ENDBRANCH  16  17
ENDBRANCH  12  16
ENDBRANCH   1  10
TORSDOF 3
ENDMDL
MODEL 2
REMARK VINA RESULT:      -7.7      2.738      4.318
REMARK  3 active torsions:
REMARK  status: ('A' for Active; 'I' for Inactive)
REMARK    1  A    between atoms: N_6  and  C_7 
REMARK    2  A    between atoms: C_7  and  C_8 
REMARK    3  A    between atoms: N_10  and  C_11 
ROOT
HETATM    1  C   UNL     1       7.256  24.243  54.765  1.00  0.00     0.073 A 
HETATM    2  C   UNL     1       6.985  23.718  53.476  1.00  0.00     0.062 A 
HETATM    3 CL   UNL     1       5.816  24.392  52.393  1.00  0.00    -0.082 Cl
HETATM    4  C   UNL     1       7.715  22.634  52.958  1.00  0.00     0.026 A 
HETATM    5  C   UNL     1       8.753  22.061  53.682  1.00  0.00     0.003 A 
HETATM    6  C   UNL     1       9.075  22.576  54.928  1.00  0.00     0.025 A 
HETATM    7  C   UNL     1       8.343  23.649  55.469  1.00  0.00     0.072 A 
HETATM    8  C   UNL     1       8.753  24.119  56.765  1.00  0.00     0.102 C 
HETATM    9  N   UNL     1       9.140  24.495  57.795  1.00  0.00    -0.191 NA
ENDROOT
BRANCH   1  10
HETATM   10  N   UNL     1       6.540  25.287  55.393  1.00  0.00    -0.378 N 
HETATM   11  C   UNL     1       6.304  26.465  54.539  1.00  0.00     0.129 C 
HETATM   12  C   UNL     1       6.029  27.693  55.441  1.00  0.00     0.032 C 
HETATM   13  C   UNL     1       4.839  27.392  56.371  1.00  0.00     0.009 C 
HETATM   14  C   UNL     1       5.034  26.091  57.155  1.00  0.00     0.020 C 
HETATM   15  C   UNL     1       5.373  24.926  56.220  1.00  0.00     0.123 C 
BRANCH  12  16
HETATM   16  C   UNL     1       7.312  28.058  56.224  1.00  0.00     0.278 C 
BRANCH  16  17
HETATM   17  N   UNL     1       7.814  29.432  56.003  1.00  0.00     0.092 N 
HETATM   18  C   UNL     1       9.221  29.597  56.415  1.00  0.00     0.300 C 
HETATM   19  C   UNL     1       9.469  29.584  57.940  1.00  0.00     0.264 C 
HETATM   20  N   UNL     1       8.555  30.570  58.649  1.00  0.00    -0.072 N 
HETATM   21  C   UNL     1       8.723  30.515  60.138  1.00  0.00     0.269 C 
HETATM   22  H   UNL     1       8.825  31.510  58.334  1.00  0.00     0.279 HD
HETATM   23  C   UNL     1       7.097  30.383  58.249  1.00  0.00     0.264 C 
HETATM   24  C   UNL     1       6.965  30.415  56.714  1.00  0.00     0.300 C 
ENDBRANCH  16  17
ENDBRANCH  12  16
ENDBRANCH   1  10
TORSDOF 3
ENDMDL
MODEL 3
REMARK VINA RESULT:      -7.7      1.840      3.701
REMARK  3 active torsions:
REMARK  status: ('A' for Active; 'I' for Inactive)
REMARK    1  A    between atoms: N_6  and  C_7 
REMARK    2  A    between atoms: C_7  and  C_8 
REMARK    3  A    between atoms: N_10  and  C_11 
ROOT
HETATM    1  C   UNL     1       7.749  22.508  54.640  1.00  0.00     0.073 A 
HETATM    2  C   UNL     1       8.111  21.212  54.192  1.00  0.00     0.062 A 
HETATM    3 CL   UNL     1       8.202  20.764  52.523  1.00  0.00    -0.082 Cl
HETATM    4  C   UNL     1       8.499  20.207  55.096  1.00  0.00     0.026 A 
HETATM    5  C   UNL     1       8.570  20.461  56.459  1.00  0.00     0.003 A 
HETATM    6  C   UNL     1       8.264  21.729  56.929  1.00  0.00     0.025 A 
HETATM    7  C   UNL     1       7.858  22.741  56.041  1.00  0.00     0.072 A 
HETATM    8  C   UNL     1       7.565  24.026  56.619  1.00  0.00     0.102 C 
HETATM    9  N   UNL     1       7.377  25.058  57.120  1.00  0.00    -0.191 NA
ENDROOT
BRANCH   1  10
HETATM   10  N   UNL     1       7.291  23.561  53.817  1.00  0.00    -0.378 N 
HETATM   11  C   UNL     1       8.358  24.290  53.108  1.00  0.00     0.129 C 
HETATM   12  C   UNL     1       7.830  25.690  52.708  1.00  0.00     0.032 C 
HETATM   13  C   UNL     1       6.557  25.536  51.856  1.00  0.00     0.009 C 
HETATM   14  C   UNL     1       5.504  24.661  52.545  1.00  0.00     0.020 C 
HETATM   15  C   UNL     1       6.098  23.320  52.982  1.00  0.00     0.123 C 
BRANCH  12  16
HETATM   16  C   UNL     1       7.591  26.536  53.980  1.00  0.00     0.278 C 
BRANCH  16  17
HETATM   17  N   UNL     1       7.593  28.000  53.770  1.00  0.00     0.092 N 
HETATM   18  C   UNL     1       8.304  28.728  54.839  1.00  0.00     0.300 C 
HETATM   19  C   UNL     1       7.582  28.766  56.206  1.00  0.00     0.264 C 
HETATM   20  N   UNL     1       6.150  29.250  56.051  1.00  0.00    -0.072 N 
HETATM   21  C   UNL     1       5.407  29.218  57.353  1.00  0.00     0.269 C 
HETATM   22  H   UNL     1       6.195  30.227  55.736  1.00  0.00     0.279 HD
HETATM   23  C   UNL     1       5.403  28.482  54.969  1.00  0.00     0.264 C 
HETATM   24  C   UNL     1       6.207  28.509  53.655  1.00  0.00     0.300 C 
ENDBRANCH  16  17
ENDBRANCH  12  16
ENDBRANCH   1  10
TORSDOF 3
ENDMDL
MODEL 4
REMARK VINA RESULT:      -7.3      0.981      1.130
REMARK  3 active torsions:
REMARK  status: ('A' for Active; 'I' for Inactive)
REMARK    1  A    between atoms: N_6  and  C_7 
REMARK    2  A    between atoms: C_7  and  C_8 
REMARK    3  A    between atoms: N_10  and  C_11 
ROOT
HETATM    1  C   UNL     1       7.741  22.985  54.775  1.00  0.00     0.073 A 
HETATM    2  C   UNL     1       8.086  21.792  55.460  1.00  0.00     0.062 A 
HETATM    3 CL   UNL     1       7.990  21.611  57.178  1.00  0.00    -0.082 Cl
HETATM    4  C   UNL     1       8.468  20.632  54.764  1.00  0.00     0.026 A 
HETATM    5  C   UNL     1       8.489  20.607  53.376  1.00  0.00     0.003 A 
HETATM    6  C   UNL     1       8.117  21.741  52.671  1.00  0.00     0.025 A 
HETATM    7  C   UNL     1       7.749  22.916  53.352  1.00  0.00     0.072 A 
HETATM    8  C   UNL     1       7.373  24.041  52.538  1.00  0.00     0.102 C 
HETATM    9  N   UNL     1       7.039  24.914  51.845  1.00  0.00    -0.191 NA
ENDROOT
BRANCH   1  10
HETATM   10  N   UNL     1       7.403  24.213  55.386  1.00  0.00    -0.378 N 
HETATM   11  C   UNL     1       6.040  24.263  55.944  1.00  0.00     0.129 C 
HETATM   12  C   UNL     1       5.603  25.743  56.075  1.00  0.00     0.032 C 
HETATM   13  C   UNL     1       6.622  26.505  56.942  1.00  0.00     0.009 C 
HETATM   14  C   UNL     1       8.057  26.335  56.432  1.00  0.00     0.020 C 
HETATM   15  C   UNL     1       8.409  24.855  56.253  1.00  0.00     0.123 C 
BRANCH  12  16
HETATM   16  C   UNL     1       5.447  26.363  54.667  1.00  0.00     0.278 C 
BRANCH  16  17
HETATM   17  N   UNL     1       5.538  27.839  54.616  1.00  0.00     0.092 N 
HETATM   18  C   UNL     1       4.226  28.496  54.772  1.00  0.00     0.300 C 
HETATM   19  C   UNL     1       3.269  28.357  53.566  1.00  0.00     0.264 C 
HETATM   20  N   UNL     1       3.957  28.771  52.275  1.00  0.00    -0.072 N 
HETATM   21  C   UNL     1       3.072  28.567  51.083  1.00  0.00     0.269 C 
HETATM   22  H   UNL     1       4.160  29.776  52.352  1.00  0.00     0.279 HD
HETATM   23  C   UNL     1       5.298  28.072  52.096  1.00  0.00     0.264 C 
HETATM   24  C   UNL     1       6.169  28.276  53.350  1.00  0.00     0.300 C 
ENDBRANCH  16  17
ENDBRANCH  12  16
ENDBRANCH   1  10
TORSDOF 3
ENDMDL
MODEL 5
REMARK VINA RESULT:      -7.1      2.551      3.935
REMARK  3 active torsions:
REMARK  status: ('A' for Active; 'I' for Inactive)
REMARK    1  A    between atoms: N_6  and  C_7 
REMARK    2  A    between atoms: C_7  and  C_8 
REMARK    3  A    between atoms: N_10  and  C_11 
ROOT
HETATM    1  C   UNL     1       7.362  24.322  54.898  1.00  0.00     0.073 A 
HETATM    2  C   UNL     1       8.469  23.690  55.519  1.00  0.00     0.062 A 
HETATM    3 CL   UNL     1       9.008  24.059  57.122  1.00  0.00    -0.082 Cl
HETATM    4  C   UNL     1       9.170  22.650  54.885  1.00  0.00     0.026 A 
HETATM    5  C   UNL     1       8.779  22.184  53.636  1.00  0.00     0.003 A 
HETATM    6  C   UNL     1       7.675  22.748  53.017  1.00  0.00     0.025 A 
HETATM    7  C   UNL     1       6.973  23.802  53.630  1.00  0.00     0.072 A 
HETATM    8  C   UNL     1       5.838  24.322  52.914  1.00  0.00     0.102 C 
HETATM    9  N   UNL     1       4.905  24.686  52.324  1.00  0.00    -0.191 NA
ENDROOT
BRANCH   1  10
HETATM   10  N   UNL     1       6.635  25.411  55.429  1.00  0.00    -0.378 N 
HETATM   11  C   UNL     1       6.510  26.564  54.520  1.00  0.00     0.129 C 
HETATM   12  C   UNL     1       6.207  27.832  55.356  1.00  0.00     0.032 C 
HETATM   13  C   UNL     1       4.936  27.604  56.195  1.00  0.00     0.009 C 
HETATM   14  C   UNL     1       5.021  26.326  57.036  1.00  0.00     0.020 C 
HETATM   15  C   UNL     1       5.393  25.118  56.171  1.00  0.00     0.123 C 
BRANCH  12  16
HETATM   16  C   UNL     1       7.434  28.184  56.228  1.00  0.00     0.278 C 
BRANCH  16  17
HETATM   17  N   UNL     1       7.948  29.561  56.065  1.00  0.00     0.092 N 
HETATM   18  C   UNL     1       9.346  29.705  56.516  1.00  0.00     0.300 C 
HETATM   19  C   UNL     1       9.557  29.640  58.045  1.00  0.00     0.264 C 
HETATM   20  N   UNL     1       8.630  30.607  58.764  1.00  0.00    -0.072 N 
HETATM   21  C   UNL     1       8.762  30.501  60.254  1.00  0.00     0.269 C 
HETATM   22  H   UNL     1       8.912  31.556  58.488  1.00  0.00     0.279 HD
HETATM   23  C   UNL     1       7.182  30.441  58.324  1.00  0.00     0.264 C 
HETATM   24  C   UNL     1       7.087  30.525  56.788  1.00  0.00     0.300 C 
ENDBRANCH  16  17
ENDBRANCH  12  16
ENDBRANCH   1  10
TORSDOF 3
ENDMDL
MODEL 6
REMARK VINA RESULT:      -6.9      3.667      6.582
REMARK  3 active torsions:
REMARK  status: ('A' for Active; 'I' for Inactive)
REMARK    1  A    between atoms: N_6  and  C_7 
REMARK    2  A    between atoms: C_7  and  C_8 
REMARK    3  A    between atoms: N_10  and  C_11 
ROOT
HETATM    1  C   UNL     1       8.256  29.641  57.372  1.00  0.00     0.073 A 
HETATM    2  C   UNL     1       9.581  30.047  57.672  1.00  0.00     0.062 A 
HETATM    3 CL   UNL     1      10.985  29.380  56.911  1.00  0.00    -0.082 Cl
HETATM    4  C   UNL     1       9.840  31.093  58.575  1.00  0.00     0.026 A 
HETATM    5  C   UNL     1       8.801  31.786  59.182  1.00  0.00     0.003 A 
HETATM    6  C   UNL     1       7.491  31.444  58.880  1.00  0.00     0.025 A 
HETATM    7  C   UNL     1       7.215  30.389  57.992  1.00  0.00     0.072 A 
HETATM    8  C   UNL     1       5.827  30.110  57.736  1.00  0.00     0.102 C 
HETATM    9  N   UNL     1       4.696  29.943  57.525  1.00  0.00    -0.191 NA
ENDROOT
BRANCH   1  10
HETATM   10  N   UNL     1       7.900  28.566  56.526  1.00  0.00    -0.378 N 
HETATM   11  C   UNL     1       8.287  28.746  55.115  1.00  0.00     0.129 C 
HETATM   12  C   UNL     1       7.403  27.831  54.231  1.00  0.00     0.032 C 
HETATM   13  C   UNL     1       7.546  26.371  54.699  1.00  0.00     0.009 C 
HETATM   14  C   UNL     1       7.275  26.216  56.199  1.00  0.00     0.020 C 
HETATM   15  C   UNL     1       8.122  27.194  57.019  1.00  0.00     0.123 C 
BRANCH  12  16
HETATM   16  C   UNL     1       5.939  28.324  54.276  1.00  0.00     0.278 C 
BRANCH  16  17
HETATM   17  N   UNL     1       5.036  27.706  53.281  1.00  0.00     0.092 N 
HETATM   18  C   UNL     1       5.532  27.847  51.898  1.00  0.00     0.300 C 
HETATM   19  C   UNL     1       5.458  29.276  51.311  1.00  0.00     0.264 C 
HETATM   20  N   UNL     1       4.063  29.858  51.472  1.00  0.00    -0.072 N 
HETATM   21  C   UNL     1       3.990  31.273  50.982  1.00  0.00     0.269 C 
HETATM   22  H   UNL     1       3.432  29.290  50.894  1.00  0.00     0.279 HD
HETATM   23  C   UNL     1       3.559  29.742  52.904  1.00  0.00     0.264 C 
HETATM   24  C   UNL     1       3.676  28.283  53.386  1.00  0.00     0.300 C 
ENDBRANCH  16  17
ENDBRANCH  12  16
ENDBRANCH   1  10
TORSDOF 3
ENDMDL
MODEL 7
REMARK VINA RESULT:      -6.9      2.685      6.979
REMARK  3 active torsions:
REMARK  status: ('A' for Active; 'I' for Inactive)
REMARK    1  A    between atoms: N_6  and  C_7 
REMARK    2  A    between atoms: C_7  and  C_8 
REMARK    3  A    between atoms: N_10  and  C_11 
ROOT
HETATM    1  C   UNL     1       5.429  27.816  55.125  1.00  0.00     0.073 A 
HETATM    2  C   UNL     1       4.376  28.712  54.811  1.00  0.00     0.062 A 
HETATM    3 CL   UNL     1       3.542  28.719  53.295  1.00  0.00    -0.082 Cl
HETATM    4  C   UNL     1       3.884  29.626  55.760  1.00  0.00     0.026 A 
HETATM    5  C   UNL     1       4.394  29.658  57.051  1.00  0.00     0.003 A 
HETATM    6  C   UNL     1       5.394  28.767  57.407  1.00  0.00     0.025 A 
HETATM    7  C   UNL     1       5.910  27.859  56.465  1.00  0.00     0.072 A 
HETATM    8  C   UNL     1       6.943  26.970  56.927  1.00  0.00     0.102 C 
HETATM    9  N   UNL     1       7.747  26.243  57.350  1.00  0.00    -0.191 NA
ENDROOT
BRANCH   1  10
HETATM   10  N   UNL     1       6.027  26.906  54.225  1.00  0.00    -0.378 N 
HETATM   11  C   UNL     1       5.137  25.825  53.767  1.00  0.00     0.129 C 
HETATM   12  C   UNL     1       6.000  24.641  53.265  1.00  0.00     0.032 C 
HETATM   13  C   UNL     1       6.949  25.131  52.156  1.00  0.00     0.009 C 
HETATM   14  C   UNL     1       7.775  26.344  52.597  1.00  0.00     0.020 C 
HETATM   15  C   UNL     1       6.877  27.454  53.150  1.00  0.00     0.123 C 
BRANCH  12  16
HETATM   16  C   UNL     1       6.759  24.012  54.456  1.00  0.00     0.278 C 
BRANCH  16  17
HETATM   17  N   UNL     1       8.167  23.648  54.183  1.00  0.00     0.092 N 
HETATM   18  C   UNL     1       8.292  22.401  53.405  1.00  0.00     0.300 C 
HETATM   19  C   UNL     1       7.941  21.105  54.172  1.00  0.00     0.264 C 
HETATM   20  N   UNL     1       8.701  21.029  55.486  1.00  0.00    -0.072 N 
HETATM   21  C   UNL     1       8.315  19.819  56.283  1.00  0.00     0.269 C 
HETATM   22  H   UNL     1       9.699  20.949  55.252  1.00  0.00     0.279 HD
HETATM   23  C   UNL     1       8.551  22.303  56.306  1.00  0.00     0.264 C 
HETATM   24  C   UNL     1       8.925  23.527  55.449  1.00  0.00     0.300 C 
ENDBRANCH  16  17
ENDBRANCH  12  16
ENDBRANCH   1  10
TORSDOF 3
ENDMDL
MODEL 8
REMARK VINA RESULT:      -6.8      2.646      5.668
REMARK  3 active torsions:
REMARK  status: ('A' for Active; 'I' for Inactive)
REMARK    1  A    between atoms: N_6  and  C_7 
REMARK    2  A    between atoms: C_7  and  C_8 
REMARK    3  A    between atoms: N_10  and  C_11 
ROOT
HETATM    1  C   UNL     1       5.814  26.879  51.926  1.00  0.00     0.073 A 
HETATM    2  C   UNL     1       4.946  26.839  50.805  1.00  0.00     0.062 A 
HETATM    3 CL   UNL     1       4.337  25.374  50.115  1.00  0.00    -0.082 Cl
HETATM    4  C   UNL     1       4.456  28.018  50.215  1.00  0.00     0.026 A 
HETATM    5  C   UNL     1       4.783  29.264  50.733  1.00  0.00     0.003 A 
HETATM    6  C   UNL     1       5.595  29.341  51.854  1.00  0.00     0.025 A 
HETATM    7  C   UNL     1       6.107  28.172  52.446  1.00  0.00     0.072 A 
HETATM    8  C   UNL     1       6.937  28.350  53.609  1.00  0.00     0.102 C 
HETATM    9  N   UNL     1       7.568  28.533  54.568  1.00  0.00    -0.191 NA
ENDROOT
BRANCH   1  10
HETATM   10  N   UNL     1       6.401  25.755  52.548  1.00  0.00    -0.378 N 
HETATM   11  C   UNL     1       5.486  24.988  53.412  1.00  0.00     0.129 C 
HETATM   12  C   UNL     1       6.322  24.165  54.424  1.00  0.00     0.032 C 
HETATM   13  C   UNL     1       7.308  23.261  53.662  1.00  0.00     0.009 C 
HETATM   14  C   UNL     1       8.163  24.050  52.664  1.00  0.00     0.020 C 
HETATM   15  C   UNL     1       7.288  24.899  51.737  1.00  0.00     0.123 C 
BRANCH  12  16
HETATM   16  C   UNL     1       7.037  25.123  55.405  1.00  0.00     0.278 C 
BRANCH  16  17
HETATM   17  N   UNL     1       6.519  25.105  56.790  1.00  0.00     0.092 N 
HETATM   18  C   UNL     1       5.165  25.681  56.900  1.00  0.00     0.300 C 
HETATM   19  C   UNL     1       5.082  27.214  56.721  1.00  0.00     0.264 C 
HETATM   20  N   UNL     1       6.071  27.922  57.633  1.00  0.00    -0.072 N 
HETATM   21  C   UNL     1       6.064  29.406  57.417  1.00  0.00     0.269 C 
HETATM   22  H   UNL     1       5.772  27.741  58.599  1.00  0.00     0.279 HD
HETATM   23  C   UNL     1       7.476  27.351  57.502  1.00  0.00     0.264 C 
HETATM   24  C   UNL     1       7.443  25.823  57.698  1.00  0.00     0.300 C 
ENDBRANCH  16  17
ENDBRANCH  12  16
ENDBRANCH   1  10
TORSDOF 3
ENDMDL
MODEL 9
REMARK VINA RESULT:      -6.7      8.214     11.437
REMARK  3 active torsions:
REMARK  status: ('A' for Active; 'I' for Inactive)
REMARK    1  A    between atoms: N_6  and  C_7 
REMARK    2  A    between atoms: C_7  and  C_8 
REMARK    3  A    between atoms: N_10  and  C_11 
ROOT
HETATM    1  C   UNL     1       5.443  33.788  63.119  1.00  0.00     0.073 A 
HETATM    2  C   UNL     1       4.973  34.093  64.422  1.00  0.00     0.062 A 
HETATM    3 CL   UNL     1       3.336  34.531  64.773  1.00  0.00    -0.082 Cl
HETATM    4  C   UNL     1       5.811  33.988  65.546  1.00  0.00     0.026 A 
HETATM    5  C   UNL     1       7.122  33.548  65.420  1.00  0.00     0.003 A 
HETATM    6  C   UNL     1       7.603  33.200  64.167  1.00  0.00     0.025 A 
HETATM    7  C   UNL     1       6.783  33.317  63.030  1.00  0.00     0.072 A 
HETATM    8  C   UNL     1       7.367  32.928  61.774  1.00  0.00     0.102 C 
HETATM    9  N   UNL     1       7.862  32.566  60.785  1.00  0.00    -0.191 NA
ENDROOT
BRANCH   1  10
HETATM   10  N   UNL     1       4.696  33.920  61.927  1.00  0.00    -0.378 N 
HETATM   11  C   UNL     1       3.499  33.063  61.857  1.00  0.00     0.129 C 
HETATM   12  C   UNL     1       3.098  32.879  60.373  1.00  0.00     0.032 C 
HETATM   13  C   UNL     1       2.872  34.258  59.727  1.00  0.00     0.009 C 
HETATM   14  C   UNL     1       4.071  35.192  59.923  1.00  0.00     0.020 C 
HETATM   15  C   UNL     1       4.469  35.280  61.399  1.00  0.00     0.123 C 
BRANCH  12  16
HETATM   16  C   UNL     1       4.182  32.055  59.641  1.00  0.00     0.278 C 
BRANCH  16  17
HETATM   17  N   UNL     1       4.186  32.189  58.168  1.00  0.00     0.092 N 
HETATM   18  C   UNL     1       3.535  31.050  57.491  1.00  0.00     0.300 C 
HETATM   19  C   UNL     1       4.323  29.720  57.530  1.00  0.00     0.264 C 
HETATM   20  N   UNL     1       5.751  29.920  57.050  1.00  0.00    -0.072 N 
HETATM   21  C   UNL     1       6.555  28.659  57.156  1.00  0.00     0.269 C 
HETATM   22  H   UNL     1       5.701  30.181  56.058  1.00  0.00     0.279 HD
HETATM   23  C   UNL     1       6.437  31.075  57.768  1.00  0.00     0.264 C 
HETATM   24  C   UNL     1       5.570  32.345  57.666  1.00  0.00     0.300 C 
ENDBRANCH  16  17
ENDBRANCH  12  16
ENDBRANCH   1  10
TORSDOF 3
ENDMDL
MODEL 10
REMARK VINA RESULT:      -6.7      2.790      3.799
REMARK  3 active torsions:
REMARK  status: ('A' for Active; 'I' for Inactive)
REMARK    1  A    between atoms: N_6  and  C_7 
REMARK    2  A    between atoms: C_7  and  C_8 
REMARK    3  A    between atoms: N_10  and  C_11 
ROOT
HETATM    1  C   UNL     1       7.590  25.894  55.300  1.00  0.00     0.073 A 
HETATM    2  C   UNL     1       7.985  24.603  55.735  1.00  0.00     0.062 A 
HETATM    3 CL   UNL     1       8.281  24.197  57.391  1.00  0.00    -0.082 Cl
HETATM    4  C   UNL     1       8.093  23.529  54.835  1.00  0.00     0.026 A 
HETATM    5  C   UNL     1       7.785  23.690  53.490  1.00  0.00     0.003 A 
HETATM    6  C   UNL     1       7.355  24.927  53.037  1.00  0.00     0.025 A 
HETATM    7  C   UNL     1       7.258  26.017  53.921  1.00  0.00     0.072 A 
HETATM    8  C   UNL     1       6.798  27.260  53.361  1.00  0.00     0.102 C 
HETATM    9  N   UNL     1       6.385  28.235  52.880  1.00  0.00    -0.191 NA
ENDROOT
BRANCH   1  10
HETATM   10  N   UNL     1       7.510  27.045  56.117  1.00  0.00    -0.378 N 
HETATM   11  C   UNL     1       6.310  27.107  56.969  1.00  0.00     0.129 C 
HETATM   12  C   UNL     1       6.055  28.580  57.373  1.00  0.00     0.032 C 
HETATM   13  C   UNL     1       7.305  29.144  58.074  1.00  0.00     0.009 C 
HETATM   14  C   UNL     1       8.574  28.952  57.237  1.00  0.00     0.020 C 
HETATM   15  C   UNL     1       8.736  27.491  56.806  1.00  0.00     0.123 C 
BRANCH  12  16
HETATM   16  C   UNL     1       5.660  29.399  56.122  1.00  0.00     0.278 C 
BRANCH  16  17
HETATM   17  N   UNL     1       4.234  29.782  56.047  1.00  0.00     0.092 N 
HETATM   18  C   UNL     1       3.940  30.662  54.899  1.00  0.00     0.300 C 
HETATM   19  C   UNL     1       4.484  32.105  55.016  1.00  0.00     0.264 C 
HETATM   20  N   UNL     1       4.066  32.738  56.333  1.00  0.00    -0.072 N 
HETATM   21  C   UNL     1       4.650  34.109  56.502  1.00  0.00     0.269 C 
HETATM   22  H   UNL     1       3.043  32.830  56.311  1.00  0.00     0.279 HD
HETATM   23  C   UNL     1       4.394  31.846  57.523  1.00  0.00     0.264 C 
HETATM   24  C   UNL     1       3.806  30.439  57.303  1.00  0.00     0.300 C 
ENDBRANCH  16  17
ENDBRANCH  12  16
ENDBRANCH   1  10
TORSDOF 3
ENDMDL
