MODEL 1
REMARK VINA RESULT:      -9.9      0.000      0.000
REMARK  12 active torsions:
REMARK  status: ('A' for Active; 'I' for Inactive)
REMARK    1  A    between atoms: C_2  and  N_3 
REMARK    2  A    between atoms: N_3  and  C_5 
REMARK    3  A    between atoms: N_3  and  C_39 
REMARK    4  A    between atoms: C_5  and  C_6 
REMARK    5  A    between atoms: N_7  and  C_8 
REMARK    6  A    between atoms: C_12  and  N_13 
REMARK    7  A    between atoms: C_16  and  C_17 
REMARK       I    between atoms: C_17  and  N_18 
REMARK    8  A    between atoms: N_18  and  N_19 
REMARK    9  A    between atoms: C_20  and  C_21 
REMARK   10  A    between atoms: C_22  and  O_23 
REMARK   11  A    between atoms: O_23  and  C_24 
REMARK   12  A    between atoms: C_24  and  C_25 
ROOT
HETATM    1  C   UNL     1       8.396  29.643  58.241  1.00  0.00     0.294 C 
HETATM    2  N   UNL     1       8.512  28.529  57.428  1.00  0.00    -0.242 N 
HETATM    3  O   UNL     1       9.304  29.953  59.007  1.00  0.00    -0.264 OA
HETATM    4  H   UNL     1       9.427  28.086  57.404  1.00  0.00     0.192 HD
ENDROOT
BRANCH   1   5
HETATM    5  C   UNL     1       7.170  30.421  58.146  1.00  0.00     0.176 C 
HETATM    6  C   UNL     1       6.682  31.419  58.985  1.00  0.00     0.102 C 
HETATM    7  N   UNL     1       5.418  31.700  58.461  1.00  0.00    -0.191 N 
HETATM    8  N   UNL     1       5.304  31.087  57.254  1.00  0.00    -0.058 NA
HETATM    9  N   UNL     1       6.343  30.296  57.070  1.00  0.00    -0.124 NA
BRANCH   6  10
HETATM   10  C   UNL     1       7.296  32.024  60.188  1.00  0.00     0.296 C 
BRANCH  10  11
HETATM   11  N   UNL     1       7.062  31.263  61.500  1.00  0.00    -0.066 N 
HETATM   12  H   UNL     1       6.684  30.360  61.182  1.00  0.00     0.280 HD
BRANCH  11  13
HETATM   13  C   UNL     1       6.011  31.875  62.399  1.00  0.00     0.231 C 
HETATM   14  C   UNL     1       5.956  33.379  62.198  1.00  0.00     0.034 C 
ENDBRANCH  11  13
BRANCH  11  15
HETATM   15  C   UNL     1       8.355  30.912  62.214  1.00  0.00     0.231 C 
HETATM   16  C   UNL     1       9.481  31.846  61.805  1.00  0.00     0.034 C 
ENDBRANCH  11  15
ENDBRANCH  10  11
ENDBRANCH   6  10
BRANCH   7  17
HETATM   17  C   UNL     1       4.368  32.500  58.973  1.00  0.00     0.229 A 
HETATM   18  N   UNL     1       4.282  33.792  58.658  1.00  0.00    -0.081 NA
HETATM   19  O   UNL     1       3.153  34.233  59.351  1.00  0.00    -0.103 OA
HETATM   20  N   UNL     1       2.554  33.192  60.046  1.00  0.00    -0.083 NA
HETATM   21  C   UNL     1       3.311  32.120  59.821  1.00  0.00     0.201 A 
BRANCH  21  22
HETATM   22  N   UNL     1       3.061  30.893  60.308  1.00  0.00    -0.379 N 
HETATM   23  H   UNL     1       2.670  30.792  61.242  1.00  0.00     0.158 HD
HETATM   24  H   UNL     1       3.530  30.058  59.961  1.00  0.00     0.158 HD
ENDBRANCH  21  22
ENDBRANCH   7  17
ENDBRANCH   1   5
BRANCH   2  25
HETATM   25  N   UNL     1       7.475  28.005  56.720  1.00  0.00    -0.183 NA
HETATM   26  C   UNL     1       7.775  27.592  55.530  1.00  0.00     0.153 C 
BRANCH  26  27
HETATM   27  C   UNL     1       6.772  26.933  54.679  1.00  0.00     0.018 A 
HETATM   28  C   UNL     1       6.406  25.589  54.848  1.00  0.00     0.081 A 
HETATM   29  C   UNL     1       5.390  25.042  54.061  1.00  0.00     0.039 A 
HETATM   30  C   UNL     1       4.783  25.816  53.070  1.00  0.00     0.026 A 
HETATM   31  C   UNL     1       5.186  27.137  52.875  1.00  0.00     0.035 A 
HETATM   32 CL   UNL     1       4.445  28.082  51.645  1.00  0.00    -0.084 Cl
HETATM   33  C   UNL     1       6.178  27.703  53.674  1.00  0.00     0.039 A 
BRANCH  28  34
HETATM   34  O   UNL     1       7.016  24.751  55.751  1.00  0.00    -0.346 OA
BRANCH  34  35
HETATM   35  C   UNL     1       8.296  24.337  55.246  1.00  0.00     0.219 C 
BRANCH  35  36
HETATM   36  C   UNL     1       8.188  22.935  54.709  1.00  0.00     0.026 A 
HETATM   37  C   UNL     1       8.176  21.804  55.538  1.00  0.00     0.045 A 
HETATM   38 CL   UNL     1       8.330  21.928  57.253  1.00  0.00    -0.084 Cl
HETATM   39  C   UNL     1       8.034  20.520  54.995  1.00  0.00     0.024 A 
HETATM   40  C   UNL     1       7.901  20.347  53.618  1.00  0.00     0.005 A 
HETATM   41  C   UNL     1       7.931  21.457  52.782  1.00  0.00     0.043 A 
HETATM   42  C   UNL     1       8.086  22.729  53.329  1.00  0.00     0.126 A 
HETATM   43  F   UNL     1       8.163  23.773  52.489  1.00  0.00    -0.205 F 
ENDBRANCH  35  36
ENDBRANCH  34  35
ENDBRANCH  28  34
ENDBRANCH  26  27
ENDBRANCH   2  25
TORSDOF 12
ENDMDL
MODEL 2
REMARK VINA RESULT:      -9.8      1.756      2.277
REMARK  12 active torsions:
REMARK  status: ('A' for Active; 'I' for Inactive)
REMARK    1  A    between atoms: C_2  and  N_3 
REMARK    2  A    between atoms: N_3  and  C_5 
REMARK    3  A    between atoms: N_3  and  C_39 
REMARK    4  A    between atoms: C_5  and  C_6 
REMARK    5  A    between atoms: N_7  and  C_8 
REMARK    6  A    between atoms: C_12  and  N_13 
REMARK    7  A    between atoms: C_16  and  C_17 
REMARK       I    between atoms: C_17  and  N_18 
REMARK    8  A    between atoms: N_18  and  N_19 
REMARK    9  A    between atoms: C_20  and  C_21 
REMARK   10  A    between atoms: C_22  and  O_23 
REMARK   11  A    between atoms: O_23  and  C_24 
REMARK   12  A    between atoms: C_24  and  C_25 
ROOT
HETATM    1  C   UNL     1       7.540  28.399  57.543  1.00  0.00     0.294 C 
HETATM    2  N   UNL     1       7.872  27.725  56.382  1.00  0.00    -0.242 N 
HETATM    3  O   UNL     1       8.257  28.322  58.536  1.00  0.00    -0.264 OA
HETATM    4  H   UNL     1       8.793  27.295  56.362  1.00  0.00     0.192 HD
ENDROOT
BRANCH   1   5
HETATM    5  C   UNL     1       6.322  29.196  57.535  1.00  0.00     0.176 C 
HETATM    6  C   UNL     1       6.132  30.536  57.859  1.00  0.00     0.102 C 
HETATM    7  N   UNL     1       4.746  30.700  57.786  1.00  0.00    -0.191 N 
HETATM    8  N   UNL     1       4.211  29.594  57.207  1.00  0.00    -0.058 NA
HETATM    9  N   UNL     1       5.148  28.676  57.076  1.00  0.00    -0.124 NA
BRANCH   6  10
HETATM   10  C   UNL     1       7.124  31.562  58.251  1.00  0.00     0.296 C 
BRANCH  10  11
HETATM   11  N   UNL     1       8.149  31.119  59.304  1.00  0.00    -0.066 N 
HETATM   12  H   UNL     1       8.271  30.117  59.104  1.00  0.00     0.280 HD
BRANCH  11  13
HETATM   13  C   UNL     1       7.659  31.214  60.733  1.00  0.00     0.231 C 
HETATM   14  C   UNL     1       8.773  30.849  61.698  1.00  0.00     0.034 C 
ENDBRANCH  11  13
BRANCH  11  15
HETATM   15  C   UNL     1       9.522  31.727  59.082  1.00  0.00     0.231 C 
HETATM   16  C   UNL     1      10.245  31.050  57.930  1.00  0.00     0.034 C 
ENDBRANCH  11  15
ENDBRANCH  10  11
ENDBRANCH   6  10
BRANCH   7  17
HETATM   17  C   UNL     1       3.929  31.789  58.169  1.00  0.00     0.229 A 
HETATM   18  N   UNL     1       3.319  32.539  57.251  1.00  0.00    -0.081 NA
HETATM   19  O   UNL     1       2.634  33.498  58.000  1.00  0.00    -0.103 OA
HETATM   20  N   UNL     1       2.813  33.292  59.361  1.00  0.00    -0.083 NA
HETATM   21  C   UNL     1       3.622  32.240  59.467  1.00  0.00     0.201 A 
BRANCH  21  22
HETATM   22  N   UNL     1       4.029  31.706  60.630  1.00  0.00    -0.379 N 
HETATM   23  H   UNL     1       4.603  32.257  61.265  1.00  0.00     0.158 HD
HETATM   24  H   UNL     1       4.092  30.700  60.781  1.00  0.00     0.158 HD
ENDBRANCH  21  22
ENDBRANCH   7  17
ENDBRANCH   1   5
BRANCH   2  25
HETATM   25  N   UNL     1       7.026  27.590  55.324  1.00  0.00    -0.183 NA
HETATM   26  C   UNL     1       7.397  26.727  54.432  1.00  0.00     0.153 C 
BRANCH  26  27
HETATM   27  C   UNL     1       6.545  26.420  53.272  1.00  0.00     0.018 A 
HETATM   28  C   UNL     1       5.957  25.160  53.082  1.00  0.00     0.081 A 
HETATM   29  C   UNL     1       5.094  24.954  52.004  1.00  0.00     0.039 A 
HETATM   30  C   UNL     1       4.865  25.982  51.087  1.00  0.00     0.026 A 
HETATM   31  C   UNL     1       5.491  27.217  51.255  1.00  0.00     0.035 A 
HETATM   32 CL   UNL     1       5.217  28.475  50.117  1.00  0.00    -0.084 Cl
HETATM   33  C   UNL     1       6.332  27.444  52.344  1.00  0.00     0.039 A 
BRANCH  28  34
HETATM   34  O   UNL     1       6.200  24.085  53.901  1.00  0.00    -0.346 OA
BRANCH  34  35
HETATM   35  C   UNL     1       7.440  23.457  53.530  1.00  0.00     0.219 C 
BRANCH  35  36
HETATM   36  C   UNL     1       7.824  22.455  54.584  1.00  0.00     0.026 A 
HETATM   37  C   UNL     1       8.068  21.105  54.294  1.00  0.00     0.045 A 
HETATM   38 CL   UNL     1       7.903  20.471  52.697  1.00  0.00    -0.084 Cl
HETATM   39  C   UNL     1       8.462  20.216  55.303  1.00  0.00     0.024 A 
HETATM   40  C   UNL     1       8.619  20.661  56.614  1.00  0.00     0.005 A 
HETATM   41  C   UNL     1       8.361  21.992  56.921  1.00  0.00     0.043 A 
HETATM   42  C   UNL     1       7.957  22.866  55.914  1.00  0.00     0.126 A 
HETATM   43  F   UNL     1       7.667  24.131  56.255  1.00  0.00    -0.205 F 
ENDBRANCH  35  36
ENDBRANCH  34  35
ENDBRANCH  28  34
ENDBRANCH  26  27
ENDBRANCH   2  25
TORSDOF 12
ENDMDL
MODEL 3
REMARK VINA RESULT:      -9.6      2.050      4.185
REMARK  12 active torsions:
REMARK  status: ('A' for Active; 'I' for Inactive)
REMARK    1  A    between atoms: C_2  and  N_3 
REMARK    2  A    between atoms: N_3  and  C_5 
REMARK    3  A    between atoms: N_3  and  C_39 
REMARK    4  A    between atoms: C_5  and  C_6 
REMARK    5  A    between atoms: N_7  and  C_8 
REMARK    6  A    between atoms: C_12  and  N_13 
REMARK    7  A    between atoms: C_16  and  C_17 
REMARK       I    between atoms: C_17  and  N_18 
REMARK    8  A    between atoms: N_18  and  N_19 
REMARK    9  A    between atoms: C_20  and  C_21 
REMARK   10  A    between atoms: C_22  and  O_23 
REMARK   11  A    between atoms: O_23  and  C_24 
REMARK   12  A    between atoms: C_24  and  C_25 
ROOT
HETATM    1  C   UNL     1       4.169  30.069  57.334  1.00  0.00     0.294 C 
HETATM    2  N   UNL     1       3.465  29.969  56.148  1.00  0.00    -0.242 N 
HETATM    3  O   UNL     1       3.621  30.482  58.352  1.00  0.00    -0.264 OA
HETATM    4  H   UNL     1       2.461  30.115  56.210  1.00  0.00     0.192 HD
ENDROOT
BRANCH   1   5
HETATM    5  C   UNL     1       5.569  29.668  57.323  1.00  0.00     0.176 C 
HETATM    6  C   UNL     1       6.698  30.364  57.743  1.00  0.00     0.102 C 
HETATM    7  N   UNL     1       7.756  29.530  57.372  1.00  0.00    -0.191 N 
HETATM    8  N   UNL     1       7.247  28.326  57.001  1.00  0.00    -0.058 NA
HETATM    9  N   UNL     1       5.933  28.409  56.945  1.00  0.00    -0.124 NA
BRANCH   6  10
HETATM   10  C   UNL     1       6.803  31.696  58.379  1.00  0.00     0.296 C 
BRANCH  10  11
HETATM   11  N   UNL     1       6.286  31.779  59.822  1.00  0.00    -0.066 N 
HETATM   12  H   UNL     1       5.693  30.942  59.906  1.00  0.00     0.280 HD
BRANCH  11  13
HETATM   13  C   UNL     1       5.390  32.968  60.097  1.00  0.00     0.231 C 
HETATM   14  C   UNL     1       4.817  32.882  61.500  1.00  0.00     0.034 C 
ENDBRANCH  11  13
BRANCH  11  15
HETATM   15  C   UNL     1       7.383  31.583  60.853  1.00  0.00     0.231 C 
HETATM   16  C   UNL     1       8.526  32.559  60.632  1.00  0.00     0.034 C 
ENDBRANCH  11  15
ENDBRANCH  10  11
ENDBRANCH   6  10
BRANCH   7  17
HETATM   17  C   UNL     1       9.152  29.760  57.376  1.00  0.00     0.229 A 
HETATM   18  N   UNL     1       9.781  30.105  58.500  1.00  0.00    -0.081 NA
HETATM   19  O   UNL     1      11.113  30.255  58.107  1.00  0.00    -0.103 OA
HETATM   20  N   UNL     1      11.274  29.965  56.759  1.00  0.00    -0.083 NA
HETATM   21  C   UNL     1      10.058  29.668  56.303  1.00  0.00     0.201 A 
BRANCH  21  22
HETATM   22  N   UNL     1       9.785  29.312  55.037  1.00  0.00    -0.379 N 
HETATM   23  H   UNL     1      10.219  28.482  54.641  1.00  0.00     0.158 HD
HETATM   24  H   UNL     1       9.447  29.975  54.341  1.00  0.00     0.158 HD
ENDBRANCH  21  22
ENDBRANCH   7  17
ENDBRANCH   1   5
BRANCH   2  25
HETATM   25  N   UNL     1       4.052  29.729  54.943  1.00  0.00    -0.183 NA
HETATM   26  C   UNL     1       3.728  28.605  54.388  1.00  0.00     0.153 C 
BRANCH  26  27
HETATM   27  C   UNL     1       4.226  28.247  53.051  1.00  0.00     0.018 A 
HETATM   28  C   UNL     1       4.972  27.082  52.813  1.00  0.00     0.081 A 
HETATM   29  C   UNL     1       5.349  26.756  51.508  1.00  0.00     0.039 A 
HETATM   30  C   UNL     1       5.035  27.617  50.455  1.00  0.00     0.026 A 
HETATM   31  C   UNL     1       4.336  28.798  50.706  1.00  0.00     0.035 A 
HETATM   32 CL   UNL     1       3.963  29.862  49.409  1.00  0.00    -0.084 Cl
HETATM   33  C   UNL     1       3.929  29.120  52.000  1.00  0.00     0.039 A 
BRANCH  28  34
HETATM   34  O   UNL     1       5.380  26.232  53.811  1.00  0.00    -0.346 OA
BRANCH  34  35
HETATM   35  C   UNL     1       6.813  26.117  53.800  1.00  0.00     0.219 C 
BRANCH  35  36
HETATM   36  C   UNL     1       7.197  24.672  53.966  1.00  0.00     0.026 A 
HETATM   37  C   UNL     1       7.102  23.997  55.192  1.00  0.00     0.045 A 
HETATM   38 CL   UNL     1       6.574  24.791  56.631  1.00  0.00    -0.084 Cl
HETATM   39  C   UNL     1       7.433  22.640  55.290  1.00  0.00     0.024 A 
HETATM   40  C   UNL     1       7.863  21.935  54.166  1.00  0.00     0.005 A 
HETATM   41  C   UNL     1       7.980  22.595  52.948  1.00  0.00     0.043 A 
HETATM   42  C   UNL     1       7.661  23.948  52.863  1.00  0.00     0.126 A 
HETATM   43  F   UNL     1       7.837  24.565  51.684  1.00  0.00    -0.205 F 
ENDBRANCH  35  36
ENDBRANCH  34  35
ENDBRANCH  28  34
ENDBRANCH  26  27
ENDBRANCH   2  25
TORSDOF 12
ENDMDL
MODEL 4
REMARK VINA RESULT:      -9.5      2.426      5.814
REMARK  12 active torsions:
REMARK  status: ('A' for Active; 'I' for Inactive)
REMARK    1  A    between atoms: C_2  and  N_3 
REMARK    2  A    between atoms: N_3  and  C_5 
REMARK    3  A    between atoms: N_3  and  C_39 
REMARK    4  A    between atoms: C_5  and  C_6 
REMARK    5  A    between atoms: N_7  and  C_8 
REMARK    6  A    between atoms: C_12  and  N_13 
REMARK    7  A    between atoms: C_16  and  C_17 
REMARK       I    between atoms: C_17  and  N_18 
REMARK    8  A    between atoms: N_18  and  N_19 
REMARK    9  A    between atoms: C_20  and  C_21 
REMARK   10  A    between atoms: C_22  and  O_23 
REMARK   11  A    between atoms: O_23  and  C_24 
REMARK   12  A    between atoms: C_24  and  C_25 
ROOT
HETATM    1  C   UNL     1       4.574  28.586  56.541  1.00  0.00     0.294 C 
HETATM    2  N   UNL     1       4.446  27.376  55.883  1.00  0.00    -0.242 N 
HETATM    3  O   UNL     1       3.621  29.354  56.627  1.00  0.00    -0.264 OA
HETATM    4  H   UNL     1       3.502  27.112  55.613  1.00  0.00     0.192 HD
ENDROOT
BRANCH   1   5
HETATM    5  C   UNL     1       5.871  28.903  57.122  1.00  0.00     0.176 C 
HETATM    6  C   UNL     1       6.478  30.139  57.322  1.00  0.00     0.102 C 
HETATM    7  N   UNL     1       7.752  29.808  57.792  1.00  0.00    -0.191 N 
HETATM    8  N   UNL     1       7.773  28.481  58.084  1.00  0.00    -0.058 NA
HETATM    9  N   UNL     1       6.655  27.926  57.660  1.00  0.00    -0.124 NA
BRANCH   6  10
HETATM   10  C   UNL     1       5.960  31.500  57.058  1.00  0.00     0.296 C 
BRANCH  10  11
HETATM   11  N   UNL     1       4.920  32.015  58.064  1.00  0.00    -0.066 N 
HETATM   12  H   UNL     1       4.659  31.167  58.584  1.00  0.00     0.280 HD
BRANCH  11  13
HETATM   13  C   UNL     1       3.648  32.540  57.434  1.00  0.00     0.231 C 
HETATM   14  C   UNL     1       3.904  33.883  56.771  1.00  0.00     0.034 C 
ENDBRANCH  11  13
BRANCH  11  15
HETATM   15  C   UNL     1       5.519  32.941  59.107  1.00  0.00     0.231 C 
HETATM   16  C   UNL     1       5.298  32.405  60.511  1.00  0.00     0.034 C 
ENDBRANCH  11  15
ENDBRANCH  10  11
ENDBRANCH   6  10
BRANCH   7  17
HETATM   17  C   UNL     1       8.889  30.620  58.014  1.00  0.00     0.229 A 
HETATM   18  N   UNL     1       8.803  31.723  58.757  1.00  0.00    -0.081 NA
HETATM   19  O   UNL     1      10.097  32.248  58.730  1.00  0.00    -0.103 OA
HETATM   20  N   UNL     1      10.953  31.436  58.000  1.00  0.00    -0.083 NA
HETATM   21  C   UNL     1      10.204  30.432  57.547  1.00  0.00     0.201 A 
BRANCH  21  22
HETATM   22  N   UNL     1      10.665  29.413  56.803  1.00  0.00    -0.379 N 
HETATM   23  H   UNL     1      10.607  29.462  55.789  1.00  0.00     0.158 HD
HETATM   24  H   UNL     1      10.761  28.466  57.168  1.00  0.00     0.158 HD
ENDBRANCH  21  22
ENDBRANCH   7  17
ENDBRANCH   1   5
BRANCH   2  25
HETATM   25  N   UNL     1       5.502  26.580  55.563  1.00  0.00    -0.183 NA
HETATM   26  C   UNL     1       5.198  25.497  54.921  1.00  0.00     0.153 C 
BRANCH  26  27
HETATM   27  C   UNL     1       6.244  24.578  54.444  1.00  0.00     0.018 A 
HETATM   28  C   UNL     1       6.483  24.353  53.080  1.00  0.00     0.081 A 
HETATM   29  C   UNL     1       7.542  23.531  52.687  1.00  0.00     0.039 A 
HETATM   30  C   UNL     1       8.321  22.890  53.652  1.00  0.00     0.026 A 
HETATM   31  C   UNL     1       8.047  23.080  55.007  1.00  0.00     0.035 A 
HETATM   32 CL   UNL     1       9.000  22.278  56.191  1.00  0.00    -0.084 Cl
HETATM   33  C   UNL     1       7.011  23.921  55.411  1.00  0.00     0.039 A 
BRANCH  28  34
HETATM   34  O   UNL     1       5.707  24.890  52.081  1.00  0.00    -0.346 OA
BRANCH  34  35
HETATM   35  C   UNL     1       6.420  25.952  51.425  1.00  0.00     0.219 C 
BRANCH  35  36
HETATM   36  C   UNL     1       5.547  27.176  51.369  1.00  0.00     0.026 A 
HETATM   37  C   UNL     1       4.537  27.345  50.412  1.00  0.00     0.045 A 
HETATM   38 CL   UNL     1       4.240  26.170  49.182  1.00  0.00    -0.084 Cl
HETATM   39  C   UNL     1       3.723  28.485  50.424  1.00  0.00     0.024 A 
HETATM   40  C   UNL     1       3.904  29.472  51.391  1.00  0.00     0.005 A 
HETATM   41  C   UNL     1       4.914  29.328  52.335  1.00  0.00     0.043 A 
HETATM   42  C   UNL     1       5.728  28.197  52.308  1.00  0.00     0.126 A 
HETATM   43  F   UNL     1       6.727  28.116  53.201  1.00  0.00    -0.205 F 
ENDBRANCH  35  36
ENDBRANCH  34  35
ENDBRANCH  28  34
ENDBRANCH  26  27
ENDBRANCH   2  25
TORSDOF 12
ENDMDL
MODEL 5
REMARK VINA RESULT:      -9.5      1.831      2.620
REMARK  12 active torsions:
REMARK  status: ('A' for Active; 'I' for Inactive)
REMARK    1  A    between atoms: C_2  and  N_3 
REMARK    2  A    between atoms: N_3  and  C_5 
REMARK    3  A    between atoms: N_3  and  C_39 
REMARK    4  A    between atoms: C_5  and  C_6 
REMARK    5  A    between atoms: N_7  and  C_8 
REMARK    6  A    between atoms: C_12  and  N_13 
REMARK    7  A    between atoms: C_16  and  C_17 
REMARK       I    between atoms: C_17  and  N_18 
REMARK    8  A    between atoms: N_18  and  N_19 
REMARK    9  A    between atoms: C_20  and  C_21 
REMARK   10  A    between atoms: C_22  and  O_23 
REMARK   11  A    between atoms: O_23  and  C_24 
REMARK   12  A    between atoms: C_24  and  C_25 
ROOT
HETATM    1  C   UNL     1       7.394  30.981  59.574  1.00  0.00     0.294 C 
HETATM    2  N   UNL     1       7.483  29.898  58.718  1.00  0.00    -0.242 N 
HETATM    3  O   UNL     1       8.162  31.089  60.525  1.00  0.00    -0.264 OA
HETATM    4  H   UNL     1       8.293  29.296  58.841  1.00  0.00     0.192 HD
ENDROOT
BRANCH   1   5
HETATM    5  C   UNL     1       6.365  31.974  59.299  1.00  0.00     0.176 C 
HETATM    6  C   UNL     1       5.408  32.522  60.147  1.00  0.00     0.102 C 
HETATM    7  N   UNL     1       4.632  33.315  59.299  1.00  0.00    -0.191 N 
HETATM    8  N   UNL     1       5.264  33.413  58.100  1.00  0.00    -0.058 NA
HETATM    9  N   UNL     1       6.293  32.590  58.085  1.00  0.00    -0.124 NA
BRANCH   6  10
HETATM   10  C   UNL     1       5.191  32.300  61.594  1.00  0.00     0.296 C 
BRANCH  10  11
HETATM   11  N   UNL     1       5.822  33.347  62.523  1.00  0.00    -0.066 N 
HETATM   12  H   UNL     1       6.597  33.722  61.960  1.00  0.00     0.280 HD
BRANCH  11  13
HETATM   13  C   UNL     1       6.442  32.774  63.779  1.00  0.00     0.231 C 
HETATM   14  C   UNL     1       7.957  32.789  63.673  1.00  0.00     0.034 C 
ENDBRANCH  11  13
BRANCH  11  15
HETATM   15  C   UNL     1       4.912  34.537  62.772  1.00  0.00     0.231 C 
HETATM   16  C   UNL     1       5.526  35.819  62.238  1.00  0.00     0.034 C 
ENDBRANCH  11  15
ENDBRANCH  10  11
ENDBRANCH   6  10
BRANCH   7  17
HETATM   17  C   UNL     1       3.410  33.989  59.534  1.00  0.00     0.229 A 
HETATM   18  N   UNL     1       2.346  33.330  59.993  1.00  0.00    -0.081 NA
HETATM   19  O   UNL     1       1.355  34.309  60.079  1.00  0.00    -0.103 OA
HETATM   20  N   UNL     1       1.844  35.553  59.704  1.00  0.00    -0.083 NA
HETATM   21  C   UNL     1       3.115  35.354  59.357  1.00  0.00     0.201 A 
BRANCH  21  22
HETATM   22  N   UNL     1       3.951  36.320  58.944  1.00  0.00    -0.379 N 
HETATM   23  H   UNL     1       4.601  36.135  58.184  1.00  0.00     0.158 HD
HETATM   24  H   UNL     1       4.219  37.105  59.538  1.00  0.00     0.158 HD
ENDBRANCH  21  22
ENDBRANCH   7  17
ENDBRANCH   1   5
BRANCH   2  25
HETATM   25  N   UNL     1       6.540  29.601  57.782  1.00  0.00    -0.183 NA
HETATM   26  C   UNL     1       7.003  29.152  56.659  1.00  0.00     0.153 C 
BRANCH  26  27
HETATM   27  C   UNL     1       6.098  28.718  55.583  1.00  0.00     0.018 A 
HETATM   28  C   UNL     1       6.118  27.416  55.062  1.00  0.00     0.081 A 
HETATM   29  C   UNL     1       5.181  27.041  54.097  1.00  0.00     0.039 A 
HETATM   30  C   UNL     1       4.267  27.978  53.611  1.00  0.00     0.026 A 
HETATM   31  C   UNL     1       4.285  29.285  54.099  1.00  0.00     0.035 A 
HETATM   32 CL   UNL     1       3.167  30.439  53.489  1.00  0.00    -0.084 Cl
HETATM   33  C   UNL     1       5.197  29.663  55.083  1.00  0.00     0.039 A 
BRANCH  28  34
HETATM   34  O   UNL     1       7.038  26.468  55.439  1.00  0.00    -0.346 OA
BRANCH  34  35
HETATM   35  C   UNL     1       6.398  25.187  55.565  1.00  0.00     0.219 C 
BRANCH  35  36
HETATM   36  C   UNL     1       7.288  24.126  54.975  1.00  0.00     0.026 A 
HETATM   37  C   UNL     1       8.403  23.610  55.651  1.00  0.00     0.045 A 
HETATM   38 CL   UNL     1       8.873  24.187  57.208  1.00  0.00    -0.084 Cl
HETATM   39  C   UNL     1       9.179  22.594  55.078  1.00  0.00     0.024 A 
HETATM   40  C   UNL     1       8.855  22.079  53.824  1.00  0.00     0.005 A 
HETATM   41  C   UNL     1       7.763  22.595  53.134  1.00  0.00     0.043 A 
HETATM   42  C   UNL     1       7.004  23.614  53.705  1.00  0.00     0.126 A 
HETATM   43  F   UNL     1       5.991  24.124  52.989  1.00  0.00    -0.205 F 
ENDBRANCH  35  36
ENDBRANCH  34  35
ENDBRANCH  28  34
ENDBRANCH  26  27
ENDBRANCH   2  25
TORSDOF 12
ENDMDL
MODEL 6
REMARK VINA RESULT:      -9.3      2.072      2.725
REMARK  12 active torsions:
REMARK  status: ('A' for Active; 'I' for Inactive)
REMARK    1  A    between atoms: C_2  and  N_3 
REMARK    2  A    between atoms: N_3  and  C_5 
REMARK    3  A    between atoms: N_3  and  C_39 
REMARK    4  A    between atoms: C_5  and  C_6 
REMARK    5  A    between atoms: N_7  and  C_8 
REMARK    6  A    between atoms: C_12  and  N_13 
REMARK    7  A    between atoms: C_16  and  C_17 
REMARK       I    between atoms: C_17  and  N_18 
REMARK    8  A    between atoms: N_18  and  N_19 
REMARK    9  A    between atoms: C_20  and  C_21 
REMARK   10  A    between atoms: C_22  and  O_23 
REMARK   11  A    between atoms: O_23  and  C_24 
REMARK   12  A    between atoms: C_24  and  C_25 
ROOT
HETATM    1  C   UNL     1       8.285  30.587  60.057  1.00  0.00     0.294 C 
HETATM    2  N   UNL     1       8.461  29.715  58.999  1.00  0.00    -0.242 N 
HETATM    3  O   UNL     1       8.966  30.482  61.073  1.00  0.00    -0.264 OA
HETATM    4  H   UNL     1       9.265  29.094  59.059  1.00  0.00     0.192 HD
ENDROOT
BRANCH   1   5
HETATM    5  C   UNL     1       7.274  31.625  59.914  1.00  0.00     0.176 C 
HETATM    6  C   UNL     1       6.362  32.113  60.845  1.00  0.00     0.102 C 
HETATM    7  N   UNL     1       5.576  32.998  60.102  1.00  0.00    -0.191 N 
HETATM    8  N   UNL     1       6.167  33.192  58.894  1.00  0.00    -0.058 NA
HETATM    9  N   UNL     1       7.173  32.351  58.764  1.00  0.00    -0.124 NA
BRANCH   6  10
HETATM   10  C   UNL     1       6.192  31.764  62.273  1.00  0.00     0.296 C 
BRANCH  10  11
HETATM   11  N   UNL     1       6.270  32.942  63.253  1.00  0.00    -0.066 N 
HETATM   12  H   UNL     1       6.127  33.761  62.646  1.00  0.00     0.280 HD
BRANCH  11  13
HETATM   13  C   UNL     1       7.624  33.124  63.905  1.00  0.00     0.231 C 
HETATM   14  C   UNL     1       7.472  33.804  65.254  1.00  0.00     0.034 C 
ENDBRANCH  11  13
BRANCH  11  15
HETATM   15  C   UNL     1       5.107  32.975  64.228  1.00  0.00     0.231 C 
HETATM   16  C   UNL     1       4.292  34.247  64.070  1.00  0.00     0.034 C 
ENDBRANCH  11  15
ENDBRANCH  10  11
ENDBRANCH   6  10
BRANCH   7  17
HETATM   17  C   UNL     1       4.382  33.675  60.445  1.00  0.00     0.229 A 
HETATM   18  N   UNL     1       4.369  35.000  60.597  1.00  0.00    -0.081 NA
HETATM   19  O   UNL     1       3.047  35.287  60.940  1.00  0.00    -0.103 OA
HETATM   20  N   UNL     1       2.272  34.135  60.957  1.00  0.00    -0.083 NA
HETATM   21  C   UNL     1       3.100  33.135  60.661  1.00  0.00     0.201 A 
BRANCH  21  22
HETATM   22  N   UNL     1       2.733  31.847  60.559  1.00  0.00    -0.379 N 
HETATM   23  H   UNL     1       2.675  31.409  59.643  1.00  0.00     0.158 HD
HETATM   24  H   UNL     1       2.193  31.371  61.281  1.00  0.00     0.158 HD
ENDBRANCH  21  22
ENDBRANCH   7  17
ENDBRANCH   1   5
BRANCH   2  25
HETATM   25  N   UNL     1       7.608  29.634  57.941  1.00  0.00    -0.183 NA
HETATM   26  C   UNL     1       7.485  28.454  57.423  1.00  0.00     0.153 C 
BRANCH  26  27
HETATM   27  C   UNL     1       6.541  28.202  56.323  1.00  0.00     0.018 A 
HETATM   28  C   UNL     1       6.415  26.945  55.712  1.00  0.00     0.081 A 
HETATM   29  C   UNL     1       5.445  26.747  54.727  1.00  0.00     0.039 A 
HETATM   30  C   UNL     1       4.645  27.813  54.312  1.00  0.00     0.026 A 
HETATM   31  C   UNL     1       4.809  29.072  54.889  1.00  0.00     0.035 A 
HETATM   32 CL   UNL     1       3.831  30.385  54.366  1.00  0.00    -0.084 Cl
HETATM   33  C   UNL     1       5.754  29.275  55.894  1.00  0.00     0.039 A 
BRANCH  28  34
HETATM   34  O   UNL     1       7.221  25.875  56.018  1.00  0.00    -0.346 OA
BRANCH  34  35
HETATM   35  C   UNL     1       6.488  24.649  55.857  1.00  0.00     0.219 C 
BRANCH  35  36
HETATM   36  C   UNL     1       7.339  23.656  55.111  1.00  0.00     0.026 A 
HETATM   37  C   UNL     1       7.208  23.428  53.734  1.00  0.00     0.045 A 
HETATM   38 CL   UNL     1       6.020  24.243  52.783  1.00  0.00    -0.084 Cl
HETATM   39  C   UNL     1       8.050  22.522  53.076  1.00  0.00     0.024 A 
HETATM   40  C   UNL     1       9.034  21.832  53.782  1.00  0.00     0.005 A 
HETATM   41  C   UNL     1       9.163  22.033  55.151  1.00  0.00     0.043 A 
HETATM   42  C   UNL     1       8.313  22.926  55.800  1.00  0.00     0.126 A 
HETATM   43  F   UNL     1       8.431  23.056  57.131  1.00  0.00    -0.205 F 
ENDBRANCH  35  36
ENDBRANCH  34  35
ENDBRANCH  28  34
ENDBRANCH  26  27
ENDBRANCH   2  25
TORSDOF 12
ENDMDL
MODEL 7
REMARK VINA RESULT:      -9.3      3.607      6.666
REMARK  12 active torsions:
REMARK  status: ('A' for Active; 'I' for Inactive)
REMARK    1  A    between atoms: C_2  and  N_3 
REMARK    2  A    between atoms: N_3  and  C_5 
REMARK    3  A    between atoms: N_3  and  C_39 
REMARK    4  A    between atoms: C_5  and  C_6 
REMARK    5  A    between atoms: N_7  and  C_8 
REMARK    6  A    between atoms: C_12  and  N_13 
REMARK    7  A    between atoms: C_16  and  C_17 
REMARK       I    between atoms: C_17  and  N_18 
REMARK    8  A    between atoms: N_18  and  N_19 
REMARK    9  A    between atoms: C_20  and  C_21 
REMARK   10  A    between atoms: C_22  and  O_23 
REMARK   11  A    between atoms: O_23  and  C_24 
REMARK   12  A    between atoms: C_24  and  C_25 
ROOT
HETATM    1  C   UNL     1       3.163  33.228  60.356  1.00  0.00     0.294 C 
HETATM    2  N   UNL     1       3.975  32.963  59.268  1.00  0.00    -0.242 N 
HETATM    3  O   UNL     1       2.017  33.637  60.195  1.00  0.00    -0.264 OA
HETATM    4  H   UNL     1       3.524  32.990  58.356  1.00  0.00     0.192 HD
ENDROOT
BRANCH   1   5
HETATM    5  C   UNL     1       3.718  32.999  61.682  1.00  0.00     0.176 C 
HETATM    6  C   UNL     1       4.049  33.913  62.678  1.00  0.00     0.102 C 
HETATM    7  N   UNL     1       4.649  33.124  63.663  1.00  0.00    -0.191 N 
HETATM    8  N   UNL     1       4.439  31.817  63.357  1.00  0.00    -0.058 NA
HETATM    9  N   UNL     1       3.902  31.734  62.155  1.00  0.00    -0.124 NA
BRANCH   6  10
HETATM   10  C   UNL     1       3.878  35.383  62.705  1.00  0.00     0.296 C 
BRANCH  10  11
HETATM   11  N   UNL     1       4.920  36.182  61.911  1.00  0.00    -0.066 N 
HETATM   12  H   UNL     1       5.549  35.452  61.551  1.00  0.00     0.280 HD
BRANCH  11  13
HETATM   13  C   UNL     1       5.773  37.106  62.752  1.00  0.00     0.231 C 
HETATM   14  C   UNL     1       5.182  37.248  64.144  1.00  0.00     0.034 C 
ENDBRANCH  11  13
BRANCH  11  15
HETATM   15  C   UNL     1       4.338  36.838  60.671  1.00  0.00     0.231 C 
HETATM   16  C   UNL     1       4.930  38.220  60.451  1.00  0.00     0.034 C 
ENDBRANCH  11  15
ENDBRANCH  10  11
ENDBRANCH   6  10
BRANCH   7  17
HETATM   17  C   UNL     1       5.344  33.493  64.839  1.00  0.00     0.229 A 
HETATM   18  N   UNL     1       4.679  33.847  65.939  1.00  0.00    -0.081 NA
HETATM   19  O   UNL     1       5.686  34.149  66.858  1.00  0.00    -0.103 OA
HETATM   20  N   UNL     1       6.944  33.939  66.310  1.00  0.00    -0.083 NA
HETATM   21  C   UNL     1       6.734  33.543  65.056  1.00  0.00     0.201 A 
BRANCH  21  22
HETATM   22  N   UNL     1       7.705  33.220  64.186  1.00  0.00    -0.379 N 
HETATM   23  H   UNL     1       8.677  33.257  64.480  1.00  0.00     0.158 HD
HETATM   24  H   UNL     1       7.573  33.262  63.177  1.00  0.00     0.158 HD
ENDBRANCH  21  22
ENDBRANCH   7  17
ENDBRANCH   1   5
BRANCH   2  25
HETATM   25  N   UNL     1       5.310  32.717  59.368  1.00  0.00    -0.183 NA
HETATM   26  C   UNL     1       5.703  31.599  58.845  1.00  0.00     0.153 C 
BRANCH  26  27
HETATM   27  C   UNL     1       7.128  31.236  58.813  1.00  0.00     0.018 A 
HETATM   28  C   UNL     1       7.687  30.474  57.776  1.00  0.00     0.081 A 
HETATM   29  C   UNL     1       9.063  30.229  57.759  1.00  0.00     0.039 A 
HETATM   30  C   UNL     1       9.866  30.691  58.803  1.00  0.00     0.026 A 
HETATM   31  C   UNL     1       9.295  31.406  59.856  1.00  0.00     0.035 A 
HETATM   32 CL   UNL     1      10.285  31.963  61.146  1.00  0.00    -0.084 Cl
HETATM   33  C   UNL     1       7.929  31.682  59.869  1.00  0.00     0.039 A 
BRANCH  28  34
HETATM   34  O   UNL     1       6.944  29.924  56.760  1.00  0.00    -0.346 OA
BRANCH  34  35
HETATM   35  C   UNL     1       7.754  29.012  55.999  1.00  0.00     0.219 C 
BRANCH  35  36
HETATM   36  C   UNL     1       7.056  27.681  55.913  1.00  0.00     0.026 A 
HETATM   37  C   UNL     1       6.449  27.217  54.737  1.00  0.00     0.045 A 
HETATM   38 CL   UNL     1       6.416  28.164  53.294  1.00  0.00    -0.084 Cl
HETATM   39  C   UNL     1       5.846  25.954  54.694  1.00  0.00     0.024 A 
HETATM   40  C   UNL     1       5.840  25.135  55.821  1.00  0.00     0.005 A 
HETATM   41  C   UNL     1       6.421  25.589  57.000  1.00  0.00     0.043 A 
HETATM   42  C   UNL     1       7.007  26.852  57.039  1.00  0.00     0.126 A 
HETATM   43  F   UNL     1       7.511  27.279  58.207  1.00  0.00    -0.205 F 
ENDBRANCH  35  36
ENDBRANCH  34  35
ENDBRANCH  28  34
ENDBRANCH  26  27
ENDBRANCH   2  25
TORSDOF 12
ENDMDL
MODEL 8
REMARK VINA RESULT:      -9.3      6.228      8.900
REMARK  12 active torsions:
REMARK  status: ('A' for Active; 'I' for Inactive)
REMARK    1  A    between atoms: C_2  and  N_3 
REMARK    2  A    between atoms: N_3  and  C_5 
REMARK    3  A    between atoms: N_3  and  C_39 
REMARK    4  A    between atoms: C_5  and  C_6 
REMARK    5  A    between atoms: N_7  and  C_8 
REMARK    6  A    between atoms: C_12  and  N_13 
REMARK    7  A    between atoms: C_16  and  C_17 
REMARK       I    between atoms: C_17  and  N_18 
REMARK    8  A    between atoms: N_18  and  N_19 
REMARK    9  A    between atoms: C_20  and  C_21 
REMARK   10  A    between atoms: C_22  and  O_23 
REMARK   11  A    between atoms: O_23  and  C_24 
REMARK   12  A    between atoms: C_24  and  C_25 
ROOT
HETATM    1  C   UNL     1       5.051  27.154  48.326  1.00  0.00     0.294 C 
HETATM    2  N   UNL     1       4.667  26.315  49.356  1.00  0.00    -0.242 N 
HETATM    3  O   UNL     1       5.303  26.701  47.213  1.00  0.00    -0.264 OA
HETATM    4  H   UNL     1       4.473  25.351  49.099  1.00  0.00     0.192 HD
ENDROOT
BRANCH   1   5
HETATM    5  C   UNL     1       5.141  28.578  48.614  1.00  0.00     0.176 C 
HETATM    6  C   UNL     1       4.303  29.619  48.225  1.00  0.00     0.102 C 
HETATM    7  N   UNL     1       4.961  30.762  48.689  1.00  0.00    -0.191 N 
HETATM    8  N   UNL     1       5.970  30.375  49.512  1.00  0.00    -0.058 NA
HETATM    9  N   UNL     1       6.100  29.064  49.452  1.00  0.00    -0.124 NA
BRANCH   6  10
HETATM   10  C   UNL     1       3.042  29.578  47.452  1.00  0.00     0.296 C 
BRANCH  10  11
HETATM   11  N   UNL     1       1.778  29.283  48.270  1.00  0.00    -0.066 N 
HETATM   12  H   UNL     1       1.022  29.642  47.671  1.00  0.00     0.280 HD
BRANCH  11  13
HETATM   13  C   UNL     1       1.687  30.043  49.576  1.00  0.00     0.231 C 
HETATM   14  C   UNL     1       1.750  29.082  50.750  1.00  0.00     0.034 C 
ENDBRANCH  11  13
BRANCH  11  15
HETATM   15  C   UNL     1       1.495  27.797  48.401  1.00  0.00     0.231 C 
HETATM   16  C   UNL     1       1.343  27.143  47.039  1.00  0.00     0.034 C 
ENDBRANCH  11  15
ENDBRANCH  10  11
ENDBRANCH   6  10
BRANCH   7  17
HETATM   17  C   UNL     1       4.696  32.132  48.456  1.00  0.00     0.229 A 
HETATM   18  N   UNL     1       4.189  32.901  49.420  1.00  0.00    -0.081 NA
HETATM   19  O   UNL     1       4.058  34.153  48.817  1.00  0.00    -0.103 OA
HETATM   20  N   UNL     1       4.521  34.131  47.509  1.00  0.00    -0.083 NA
HETATM   21  C   UNL     1       4.907  32.877  47.281  1.00  0.00     0.201 A 
BRANCH  21  22
HETATM   22  N   UNL     1       5.435  32.441  46.125  1.00  0.00    -0.379 N 
HETATM   23  H   UNL     1       4.905  31.803  45.537  1.00  0.00     0.158 HD
HETATM   24  H   UNL     1       6.439  32.430  45.950  1.00  0.00     0.158 HD
ENDBRANCH  21  22
ENDBRANCH   7  17
ENDBRANCH   1   5
BRANCH   2  25
HETATM   25  N   UNL     1       4.583  26.711  50.656  1.00  0.00    -0.183 NA
HETATM   26  C   UNL     1       5.169  25.930  51.507  1.00  0.00     0.153 C 
BRANCH  26  27
HETATM   27  C   UNL     1       5.224  26.272  52.937  1.00  0.00     0.018 A 
HETATM   28  C   UNL     1       5.829  25.435  53.887  1.00  0.00     0.081 A 
HETATM   29  C   UNL     1       5.921  25.850  55.218  1.00  0.00     0.039 A 
HETATM   30  C   UNL     1       5.360  27.067  55.609  1.00  0.00     0.026 A 
HETATM   31  C   UNL     1       4.717  27.871  54.668  1.00  0.00     0.035 A 
HETATM   32 CL   UNL     1       4.016  29.363  55.156  1.00  0.00    -0.084 Cl
HETATM   33  C   UNL     1       4.644  27.481  53.331  1.00  0.00     0.039 A 
BRANCH  28  34
HETATM   34  O   UNL     1       6.332  24.193  53.586  1.00  0.00    -0.346 OA
BRANCH  34  35
HETATM   35  C   UNL     1       7.714  24.117  53.973  1.00  0.00     0.219 C 
BRANCH  35  36
HETATM   36  C   UNL     1       7.974  22.788  54.630  1.00  0.00     0.026 A 
HETATM   37  C   UNL     1       8.211  22.656  56.006  1.00  0.00     0.045 A 
HETATM   38 CL   UNL     1       8.267  24.024  57.057  1.00  0.00    -0.084 Cl
HETATM   39  C   UNL     1       8.409  21.393  56.579  1.00  0.00     0.024 A 
HETATM   40  C   UNL     1       8.372  20.245  55.789  1.00  0.00     0.005 A 
HETATM   41  C   UNL     1       8.158  20.362  54.421  1.00  0.00     0.043 A 
HETATM   42  C   UNL     1       7.975  21.623  53.856  1.00  0.00     0.126 A 
HETATM   43  F   UNL     1       7.823  21.703  52.525  1.00  0.00    -0.205 F 
ENDBRANCH  35  36
ENDBRANCH  34  35
ENDBRANCH  28  34
ENDBRANCH  26  27
ENDBRANCH   2  25
TORSDOF 12
ENDMDL
MODEL 9
REMARK VINA RESULT:      -9.2      5.584      8.366
REMARK  12 active torsions:
REMARK  status: ('A' for Active; 'I' for Inactive)
REMARK    1  A    between atoms: C_2  and  N_3 
REMARK    2  A    between atoms: N_3  and  C_5 
REMARK    3  A    between atoms: N_3  and  C_39 
REMARK    4  A    between atoms: C_5  and  C_6 
REMARK    5  A    between atoms: N_7  and  C_8 
REMARK    6  A    between atoms: C_12  and  N_13 
REMARK    7  A    between atoms: C_16  and  C_17 
REMARK       I    between atoms: C_17  and  N_18 
REMARK    8  A    between atoms: N_18  and  N_19 
REMARK    9  A    between atoms: C_20  and  C_21 
REMARK   10  A    between atoms: C_22  and  O_23 
REMARK   11  A    between atoms: O_23  and  C_24 
REMARK   12  A    between atoms: C_24  and  C_25 
ROOT
HETATM    1  C   UNL     1       4.538  26.963  48.474  1.00  0.00     0.294 C 
HETATM    2  N   UNL     1       5.126  26.313  49.544  1.00  0.00    -0.242 N 
HETATM    3  O   UNL     1       4.833  26.661  47.322  1.00  0.00    -0.264 OA
HETATM    4  H   UNL     1       5.689  25.497  49.317  1.00  0.00     0.192 HD
ENDROOT
BRANCH   1   5
HETATM    5  C   UNL     1       3.565  28.004  48.770  1.00  0.00     0.176 C 
HETATM    6  C   UNL     1       3.759  29.359  49.021  1.00  0.00     0.102 C 
HETATM    7  N   UNL     1       2.483  29.817  49.361  1.00  0.00    -0.191 N 
HETATM    8  N   UNL     1       1.583  28.842  49.071  1.00  0.00    -0.058 NA
HETATM    9  N   UNL     1       2.227  27.741  48.739  1.00  0.00    -0.124 NA
BRANCH   6  10
HETATM   10  C   UNL     1       5.008  30.153  49.001  1.00  0.00     0.296 C 
BRANCH  10  11
HETATM   11  N   UNL     1       5.124  31.169  47.856  1.00  0.00    -0.066 N 
HETATM   12  H   UNL     1       6.090  31.039  47.526  1.00  0.00     0.280 HD
BRANCH  11  13
HETATM   13  C   UNL     1       5.010  32.615  48.290  1.00  0.00     0.231 C 
HETATM   14  C   UNL     1       5.408  32.761  49.748  1.00  0.00     0.034 C 
ENDBRANCH  11  13
BRANCH  11  15
HETATM   15  C   UNL     1       4.255  30.813  46.663  1.00  0.00     0.231 C 
HETATM   16  C   UNL     1       4.747  31.499  45.400  1.00  0.00     0.034 C 
ENDBRANCH  11  15
ENDBRANCH  10  11
ENDBRANCH   6  10
BRANCH   7  17
HETATM   17  C   UNL     1       2.064  31.064  49.881  1.00  0.00     0.229 A 
HETATM   18  N   UNL     1       1.449  31.955  49.102  1.00  0.00    -0.081 NA
HETATM   19  O   UNL     1       1.212  33.037  49.952  1.00  0.00    -0.103 OA
HETATM   20  N   UNL     1       1.655  32.771  51.239  1.00  0.00    -0.083 NA
HETATM   21  C   UNL     1       2.193  31.553  51.195  1.00  0.00     0.201 A 
BRANCH  21  22
HETATM   22  N   UNL     1       2.726  30.917  52.251  1.00  0.00    -0.379 N 
HETATM   23  H   UNL     1       3.664  31.157  52.563  1.00  0.00     0.158 HD
HETATM   24  H   UNL     1       2.409  29.998  52.556  1.00  0.00     0.158 HD
ENDBRANCH  21  22
ENDBRANCH   7  17
ENDBRANCH   1   5
BRANCH   2  25
HETATM   25  N   UNL     1       5.012  26.734  50.833  1.00  0.00    -0.183 NA
HETATM   26  C   UNL     1       5.297  25.843  51.729  1.00  0.00     0.153 C 
BRANCH  26  27
HETATM   27  C   UNL     1       5.292  26.177  53.162  1.00  0.00     0.018 A 
HETATM   28  C   UNL     1       5.819  25.318  54.137  1.00  0.00     0.081 A 
HETATM   29  C   UNL     1       5.857  25.726  55.473  1.00  0.00     0.039 A 
HETATM   30  C   UNL     1       5.318  26.960  55.841  1.00  0.00     0.026 A 
HETATM   31  C   UNL     1       4.751  27.788  54.872  1.00  0.00     0.035 A 
HETATM   32 CL   UNL     1       4.076  29.301  55.331  1.00  0.00    -0.084 Cl
HETATM   33  C   UNL     1       4.733  27.405  53.532  1.00  0.00     0.039 A 
BRANCH  28  34
HETATM   34  O   UNL     1       6.294  24.060  53.856  1.00  0.00    -0.346 OA
BRANCH  34  35
HETATM   35  C   UNL     1       7.698  23.989  54.156  1.00  0.00     0.219 C 
BRANCH  35  36
HETATM   36  C   UNL     1       8.006  22.654  54.778  1.00  0.00     0.026 A 
HETATM   37  C   UNL     1       8.277  22.498  56.145  1.00  0.00     0.045 A 
HETATM   38 CL   UNL     1       8.322  23.844  57.226  1.00  0.00    -0.084 Cl
HETATM   39  C   UNL     1       8.519  21.228  56.686  1.00  0.00     0.024 A 
HETATM   40  C   UNL     1       8.494  20.097  55.872  1.00  0.00     0.005 A 
HETATM   41  C   UNL     1       8.246  20.238  54.512  1.00  0.00     0.043 A 
HETATM   42  C   UNL     1       8.019  21.506  53.979  1.00  0.00     0.126 A 
HETATM   43  F   UNL     1       7.836  21.610  52.654  1.00  0.00    -0.205 F 
ENDBRANCH  35  36
ENDBRANCH  34  35
ENDBRANCH  28  34
ENDBRANCH  26  27
ENDBRANCH   2  25
TORSDOF 12
ENDMDL
MODEL 10
REMARK VINA RESULT:      -9.2      4.990      8.352
REMARK  12 active torsions:
REMARK  status: ('A' for Active; 'I' for Inactive)
REMARK    1  A    between atoms: C_2  and  N_3 
REMARK    2  A    between atoms: N_3  and  C_5 
REMARK    3  A    between atoms: N_3  and  C_39 
REMARK    4  A    between atoms: C_5  and  C_6 
REMARK    5  A    between atoms: N_7  and  C_8 
REMARK    6  A    between atoms: C_12  and  N_13 
REMARK    7  A    between atoms: C_16  and  C_17 
REMARK       I    between atoms: C_17  and  N_18 
REMARK    8  A    between atoms: N_18  and  N_19 
REMARK    9  A    between atoms: C_20  and  C_21 
REMARK   10  A    between atoms: C_22  and  O_23 
REMARK   11  A    between atoms: O_23  and  C_24 
REMARK   12  A    between atoms: C_24  and  C_25 
ROOT
HETATM    1  C   UNL     1       4.659  26.205  51.215  1.00  0.00     0.294 C 
HETATM    2  N   UNL     1       4.551  25.671  52.486  1.00  0.00    -0.242 N 
HETATM    3  O   UNL     1       4.517  25.493  50.225  1.00  0.00    -0.264 OA
HETATM    4  H   UNL     1       4.213  24.713  52.542  1.00  0.00     0.192 HD
ENDROOT
BRANCH   1   5
HETATM    5  C   UNL     1       4.941  27.629  51.104  1.00  0.00     0.176 C 
HETATM    6  C   UNL     1       4.247  28.623  50.421  1.00  0.00     0.102 C 
HETATM    7  N   UNL     1       5.056  29.752  50.573  1.00  0.00    -0.191 N 
HETATM    8  N   UNL     1       6.013  29.477  51.497  1.00  0.00    -0.058 NA
HETATM    9  N   UNL     1       5.966  28.196  51.802  1.00  0.00    -0.124 NA
BRANCH   6  10
HETATM   10  C   UNL     1       2.983  28.537  49.656  1.00  0.00     0.296 C 
BRANCH  10  11
HETATM   11  N   UNL     1       3.130  28.626  48.131  1.00  0.00    -0.066 N 
HETATM   12  H   UNL     1       3.751  29.437  48.003  1.00  0.00     0.280 HD
BRANCH  11  13
HETATM   13  C   UNL     1       1.846  28.950  47.397  1.00  0.00     0.231 C 
HETATM   14  C   UNL     1       1.240  27.686  46.813  1.00  0.00     0.034 C 
ENDBRANCH  11  13
BRANCH  11  15
HETATM   15  C   UNL     1       3.896  27.455  47.544  1.00  0.00     0.231 C 
HETATM   16  C   UNL     1       5.337  27.833  47.245  1.00  0.00     0.034 C 
ENDBRANCH  11  15
ENDBRANCH  10  11
ENDBRANCH   6  10
BRANCH   7  17
HETATM   17  C   UNL     1       4.976  31.028  49.966  1.00  0.00     0.229 A 
HETATM   18  N   UNL     1       4.912  31.148  48.640  1.00  0.00    -0.081 NA
HETATM   19  O   UNL     1       4.860  32.527  48.429  1.00  0.00    -0.103 OA
HETATM   20  N   UNL     1       4.858  33.219  49.632  1.00  0.00    -0.083 NA
HETATM   21  C   UNL     1       4.939  32.292  50.585  1.00  0.00     0.201 A 
BRANCH  21  22
HETATM   22  N   UNL     1       4.949  32.552  51.903  1.00  0.00    -0.379 N 
HETATM   23  H   UNL     1       4.580  31.865  52.555  1.00  0.00     0.158 HD
HETATM   24  H   UNL     1       4.986  33.500  52.275  1.00  0.00     0.158 HD
ENDBRANCH  21  22
ENDBRANCH   7  17
ENDBRANCH   1   5
BRANCH   2  25
HETATM   25  N   UNL     1       4.905  26.343  53.616  1.00  0.00    -0.183 NA
HETATM   26  C   UNL     1       5.806  25.761  54.341  1.00  0.00     0.153 C 
BRANCH  26  27
HETATM   27  C   UNL     1       6.340  26.406  55.551  1.00  0.00     0.018 A 
HETATM   28  C   UNL     1       7.041  25.694  56.536  1.00  0.00     0.081 A 
HETATM   29  C   UNL     1       7.593  26.376  57.623  1.00  0.00     0.039 A 
HETATM   30  C   UNL     1       7.395  27.752  57.756  1.00  0.00     0.026 A 
HETATM   31  C   UNL     1       6.655  28.445  56.798  1.00  0.00     0.035 A 
HETATM   32 CL   UNL     1       6.402  30.136  56.973  1.00  0.00    -0.084 Cl
HETATM   33  C   UNL     1       6.124  27.780  55.694  1.00  0.00     0.039 A 
BRANCH  28  34
HETATM   34  O   UNL     1       7.206  24.331  56.506  1.00  0.00    -0.346 OA
BRANCH  34  35
HETATM   35  C   UNL     1       8.470  24.004  55.904  1.00  0.00     0.219 C 
BRANCH  35  36
HETATM   36  C   UNL     1       8.324  22.743  55.096  1.00  0.00     0.026 A 
HETATM   37  C   UNL     1       8.197  22.748  53.699  1.00  0.00     0.045 A 
HETATM   38 CL   UNL     1       8.152  24.216  52.792  1.00  0.00    -0.084 Cl
HETATM   39  C   UNL     1       8.102  21.546  52.986  1.00  0.00     0.024 A 
HETATM   40  C   UNL     1       8.135  20.323  53.654  1.00  0.00     0.005 A 
HETATM   41  C   UNL     1       8.242  20.303  55.040  1.00  0.00     0.043 A 
HETATM   42  C   UNL     1       8.321  21.503  55.743  1.00  0.00     0.126 A 
HETATM   43  F   UNL     1       8.370  21.448  57.083  1.00  0.00    -0.205 F 
ENDBRANCH  35  36
ENDBRANCH  34  35
ENDBRANCH  28  34
ENDBRANCH  26  27
ENDBRANCH   2  25
TORSDOF 12
ENDMDL
