MODEL 1
REMARK VINA RESULT:      -8.3      0.000      0.000
REMARK  4 active torsions:
REMARK  status: ('A' for Active; 'I' for Inactive)
REMARK    1  A    between atoms: S_2  and  N_3 
REMARK    2  A    between atoms: N_3  and  N_4 
REMARK    3  A    between atoms: C_10  and  C_11 
REMARK    4  A    between atoms: C_12  and  O_13 
ROOT
HETATM    1  N   UNL     1       5.507  26.469  53.675  1.00  0.00    -0.241 N 
HETATM    2  C   UNL     1       6.194  25.641  52.803  1.00  0.00     0.272 C 
HETATM    3  O   UNL     1       6.060  25.722  51.583  1.00  0.00    -0.266 OA
HETATM    4  C   UNL     1       6.968  24.553  53.421  1.00  0.00     0.054 A 
HETATM    5  C   UNL     1       6.695  24.249  54.761  1.00  0.00     0.026 A 
HETATM    6  N   UNL     1       5.778  25.009  55.536  1.00  0.00    -0.265 NA
HETATM    7  C   UNL     1       5.720  26.436  55.126  1.00  0.00     0.219 C 
HETATM    8  C   UNL     1       7.815  23.752  52.652  1.00  0.00     0.019 A 
HETATM    9  C   UNL     1       8.390  22.619  53.223  1.00  0.00     0.001 A 
HETATM   10  C   UNL     1       8.092  22.277  54.543  1.00  0.00     0.002 A 
HETATM   11  C   UNL     1       7.235  23.080  55.303  1.00  0.00     0.024 A 
HETATM   12  H   UNL     1       4.845  24.619  55.373  1.00  0.00     0.130 HD
ENDROOT
BRANCH   7  13
HETATM   13  C   UNL     1       6.953  27.207  55.609  1.00  0.00     0.014 A 
HETATM   14  C   UNL     1       7.517  27.028  56.885  1.00  0.00     0.075 A 
HETATM   15  C   UNL     1       8.603  27.787  57.324  1.00  0.00     0.037 A 
HETATM   16  C   UNL     1       9.142  28.774  56.505  1.00  0.00     0.003 A 
HETATM   17  C   UNL     1       8.587  29.002  55.252  1.00  0.00     0.001 A 
HETATM   18  C   UNL     1       7.505  28.231  54.812  1.00  0.00     0.013 A 
BRANCH  14  19
HETATM   19  O   UNL     1       7.046  26.109  57.783  1.00  0.00    -0.360 OA
HETATM   20  H   UNL     1       7.012  26.550  58.657  1.00  0.00     0.217 HD
ENDBRANCH  14  19
ENDBRANCH   7  13
BRANCH   1  21
HETATM   21  N   UNL     1       4.152  26.855  53.193  1.00  0.00    -0.123 NA
HETATM   22  H   UNL     1       3.873  26.332  52.350  1.00  0.00     0.165 HD
BRANCH  21  23
HETATM   23  S   UNL     1       3.755  28.495  53.029  1.00  0.00     0.222 S 
HETATM   24  C   UNL     1       5.134  29.083  52.067  1.00  0.00     0.181 C 
HETATM   25  O   UNL     1       3.798  29.115  54.334  1.00  0.00    -0.210 OA
HETATM   26  O   UNL     1       2.573  28.555  52.199  1.00  0.00    -0.210 OA
ENDBRANCH  21  23
ENDBRANCH   1  21
TORSDOF 4
ENDMDL
MODEL 2
REMARK VINA RESULT:      -7.5     10.335     12.886
REMARK  4 active torsions:
REMARK  status: ('A' for Active; 'I' for Inactive)
REMARK    1  A    between atoms: S_2  and  N_3 
REMARK    2  A    between atoms: N_3  and  N_4 
REMARK    3  A    between atoms: C_10  and  C_11 
REMARK    4  A    between atoms: C_12  and  O_13 
ROOT
HETATM    1  N   UNL     1       6.074  33.129  63.059  1.00  0.00    -0.241 N 
HETATM    2  C   UNL     1       6.909  33.257  64.155  1.00  0.00     0.272 C 
HETATM    3  O   UNL     1       8.072  32.856  64.141  1.00  0.00    -0.266 OA
HETATM    4  C   UNL     1       6.282  33.752  65.391  1.00  0.00     0.054 A 
HETATM    5  C   UNL     1       4.882  33.740  65.452  1.00  0.00     0.026 A 
HETATM    6  N   UNL     1       4.082  33.355  64.343  1.00  0.00    -0.265 NA
HETATM    7  C   UNL     1       4.713  33.677  63.037  1.00  0.00     0.219 C 
HETATM    8  C   UNL     1       7.056  34.060  66.512  1.00  0.00     0.019 A 
HETATM    9  C   UNL     1       6.426  34.347  67.721  1.00  0.00     0.001 A 
HETATM   10  C   UNL     1       5.034  34.295  67.809  1.00  0.00     0.002 A 
HETATM   11  C   UNL     1       4.267  33.975  66.684  1.00  0.00     0.024 A 
HETATM   12  H   UNL     1       3.981  32.337  64.378  1.00  0.00     0.130 HD
ENDROOT
BRANCH   7  13
HETATM   13  C   UNL     1       4.631  35.176  62.730  1.00  0.00     0.014 A 
HETATM   14  C   UNL     1       3.419  35.889  62.708  1.00  0.00     0.075 A 
HETATM   15  C   UNL     1       3.365  37.241  62.365  1.00  0.00     0.037 A 
HETATM   16  C   UNL     1       4.525  37.917  62.004  1.00  0.00     0.003 A 
HETATM   17  C   UNL     1       5.735  37.235  61.982  1.00  0.00     0.001 A 
HETATM   18  C   UNL     1       5.786  35.882  62.336  1.00  0.00     0.013 A 
BRANCH  14  19
HETATM   19  O   UNL     1       2.215  35.315  63.014  1.00  0.00    -0.360 OA
HETATM   20  H   UNL     1       1.562  36.040  63.101  1.00  0.00     0.217 HD
ENDBRANCH  14  19
ENDBRANCH   7  13
BRANCH   1  21
HETATM   21  N   UNL     1       6.330  31.906  62.249  1.00  0.00    -0.123 NA
HETATM   22  H   UNL     1       6.724  31.139  62.813  1.00  0.00     0.165 HD
BRANCH  21  23
HETATM   23  S   UNL     1       7.149  32.035  60.770  1.00  0.00     0.222 S 
HETATM   24  C   UNL     1       5.789  32.303  59.651  1.00  0.00     0.181 C 
HETATM   25  O   UNL     1       7.760  30.762  60.465  1.00  0.00    -0.210 OA
HETATM   26  O   UNL     1       7.924  33.254  60.830  1.00  0.00    -0.210 OA
ENDBRANCH  21  23
ENDBRANCH   1  21
TORSDOF 4
ENDMDL
MODEL 3
REMARK VINA RESULT:      -7.5      1.863      2.337
REMARK  4 active torsions:
REMARK  status: ('A' for Active; 'I' for Inactive)
REMARK    1  A    between atoms: S_2  and  N_3 
REMARK    2  A    between atoms: N_3  and  N_4 
REMARK    3  A    between atoms: C_10  and  C_11 
REMARK    4  A    between atoms: C_12  and  O_13 
ROOT
HETATM    1  N   UNL     1       7.111  28.095  53.771  1.00  0.00    -0.241 N 
HETATM    2  C   UNL     1       7.546  26.799  53.555  1.00  0.00     0.272 C 
HETATM    3  O   UNL     1       7.913  26.408  52.448  1.00  0.00    -0.266 OA
HETATM    4  C   UNL     1       7.391  25.869  54.686  1.00  0.00     0.054 A 
HETATM    5  C   UNL     1       6.548  26.263  55.733  1.00  0.00     0.026 A 
HETATM    6  N   UNL     1       5.932  27.544  55.764  1.00  0.00    -0.265 NA
HETATM    7  C   UNL     1       6.748  28.594  55.102  1.00  0.00     0.219 C 
HETATM    8  C   UNL     1       7.929  24.581  54.631  1.00  0.00     0.019 A 
HETATM    9  C   UNL     1       7.611  23.664  55.631  1.00  0.00     0.001 A 
HETATM   10  C   UNL     1       6.737  24.028  56.656  1.00  0.00     0.002 A 
HETATM   11  C   UNL     1       6.194  25.316  56.697  1.00  0.00     0.024 A 
HETATM   12  H   UNL     1       5.058  27.475  55.236  1.00  0.00     0.130 HD
ENDROOT
BRANCH   7  13
HETATM   13  C   UNL     1       7.937  29.011  55.975  1.00  0.00     0.014 A 
HETATM   14  C   UNL     1       7.815  29.316  57.342  1.00  0.00     0.075 A 
HETATM   15  C   UNL     1       8.901  29.753  58.101  1.00  0.00     0.037 A 
HETATM   16  C   UNL     1      10.145  29.927  57.503  1.00  0.00     0.003 A 
HETATM   17  C   UNL     1      10.295  29.668  56.147  1.00  0.00     0.001 A 
HETATM   18  C   UNL     1       9.204  29.220  55.393  1.00  0.00     0.013 A 
BRANCH  14  19
HETATM   19  O   UNL     1       6.631  29.212  58.022  1.00  0.00    -0.360 OA
HETATM   20  H   UNL     1       5.911  29.304  57.365  1.00  0.00     0.217 HD
ENDBRANCH  14  19
ENDBRANCH   7  13
BRANCH   1  21
HETATM   21  N   UNL     1       6.407  28.694  52.603  1.00  0.00    -0.123 NA
HETATM   22  H   UNL     1       6.393  29.724  52.642  1.00  0.00     0.165 HD
BRANCH  21  23
HETATM   23  S   UNL     1       4.887  28.098  52.143  1.00  0.00     0.222 S 
HETATM   24  C   UNL     1       4.058  29.605  51.681  1.00  0.00     0.181 C 
HETATM   25  O   UNL     1       4.234  27.544  53.308  1.00  0.00    -0.210 OA
HETATM   26  O   UNL     1       5.094  27.316  50.945  1.00  0.00    -0.210 OA
ENDBRANCH  21  23
ENDBRANCH   1  21
TORSDOF 4
ENDMDL
MODEL 4
REMARK VINA RESULT:      -7.5      1.405      4.585
REMARK  4 active torsions:
REMARK  status: ('A' for Active; 'I' for Inactive)
REMARK    1  A    between atoms: S_2  and  N_3 
REMARK    2  A    between atoms: N_3  and  N_4 
REMARK    3  A    between atoms: C_10  and  C_11 
REMARK    4  A    between atoms: C_12  and  O_13 
ROOT
HETATM    1  N   UNL     1       5.058  26.965  54.151  1.00  0.00    -0.241 N 
HETATM    2  C   UNL     1       5.176  27.553  55.398  1.00  0.00     0.272 C 
HETATM    3  O   UNL     1       4.197  27.796  56.102  1.00  0.00    -0.266 OA
HETATM    4  C   UNL     1       6.523  28.019  55.766  1.00  0.00     0.054 A 
HETATM    5  C   UNL     1       7.469  28.129  54.740  1.00  0.00     0.026 A 
HETATM    6  N   UNL     1       7.187  27.723  53.407  1.00  0.00    -0.265 NA
HETATM    7  C   UNL     1       6.222  26.597  53.339  1.00  0.00     0.219 C 
HETATM    8  C   UNL     1       6.788  28.492  57.054  1.00  0.00     0.019 A 
HETATM    9  C   UNL     1       8.014  29.097  57.321  1.00  0.00     0.001 A 
HETATM   10  C   UNL     1       8.951  29.254  56.297  1.00  0.00     0.002 A 
HETATM   11  C   UNL     1       8.671  28.788  55.009  1.00  0.00     0.024 A 
HETATM   12  H   UNL     1       6.746  28.517  52.933  1.00  0.00     0.130 HD
ENDROOT
BRANCH   7  13
HETATM   13  C   UNL     1       6.882  25.270  53.731  1.00  0.00     0.014 A 
HETATM   14  C   UNL     1       7.794  24.593  52.901  1.00  0.00     0.075 A 
HETATM   15  C   UNL     1       8.334  23.355  53.254  1.00  0.00     0.037 A 
HETATM   16  C   UNL     1       7.954  22.741  54.443  1.00  0.00     0.003 A 
HETATM   17  C   UNL     1       7.030  23.366  55.271  1.00  0.00     0.001 A 
HETATM   18  C   UNL     1       6.499  24.612  54.917  1.00  0.00     0.013 A 
BRANCH  14  19
HETATM   19  O   UNL     1       8.210  25.089  51.696  1.00  0.00    -0.360 OA
HETATM   20  H   UNL     1       8.131  26.065  51.742  1.00  0.00     0.217 HD
ENDBRANCH  14  19
ENDBRANCH   7  13
BRANCH   1  21
HETATM   21  N   UNL     1       3.812  27.341  53.426  1.00  0.00    -0.123 NA
HETATM   22  H   UNL     1       3.339  26.525  53.012  1.00  0.00     0.165 HD
BRANCH  21  23
HETATM   23  S   UNL     1       3.839  28.631  52.326  1.00  0.00     0.222 S 
HETATM   24  C   UNL     1       4.482  27.825  50.873  1.00  0.00     0.181 C 
HETATM   25  O   UNL     1       4.801  29.609  52.781  1.00  0.00    -0.210 OA
HETATM   26  O   UNL     1       2.461  28.985  52.067  1.00  0.00    -0.210 OA
ENDBRANCH  21  23
ENDBRANCH   1  21
TORSDOF 4
ENDMDL
MODEL 5
REMARK VINA RESULT:      -7.2      2.528      4.993
REMARK  4 active torsions:
REMARK  status: ('A' for Active; 'I' for Inactive)
REMARK    1  A    between atoms: S_2  and  N_3 
REMARK    2  A    between atoms: N_3  and  N_4 
REMARK    3  A    between atoms: C_10  and  C_11 
REMARK    4  A    between atoms: C_12  and  O_13 
ROOT
HETATM    1  N   UNL     1       5.807  27.678  55.396  1.00  0.00    -0.241 N 
HETATM    2  C   UNL     1       5.802  26.295  55.446  1.00  0.00     0.272 C 
HETATM    3  O   UNL     1       5.445  25.678  56.448  1.00  0.00    -0.266 OA
HETATM    4  C   UNL     1       6.400  25.606  54.291  1.00  0.00     0.054 A 
HETATM    5  C   UNL     1       7.193  26.370  53.425  1.00  0.00     0.026 A 
HETATM    6  N   UNL     1       7.349  27.774  53.586  1.00  0.00    -0.265 NA
HETATM    7  C   UNL     1       6.153  28.423  54.181  1.00  0.00     0.219 C 
HETATM    8  C   UNL     1       6.317  24.218  54.165  1.00  0.00     0.019 A 
HETATM    9  C   UNL     1       7.046  23.576  53.166  1.00  0.00     0.001 A 
HETATM   10  C   UNL     1       7.876  24.319  52.324  1.00  0.00     0.002 A 
HETATM   11  C   UNL     1       7.961  25.707  52.465  1.00  0.00     0.024 A 
HETATM   12  H   UNL     1       8.121  27.921  54.242  1.00  0.00     0.130 HD
ENDROOT
BRANCH   7  13
HETATM   13  C   UNL     1       5.016  28.545  53.161  1.00  0.00     0.014 A 
HETATM   14  C   UNL     1       5.164  29.198  51.923  1.00  0.00     0.075 A 
HETATM   15  C   UNL     1       4.096  29.349  51.037  1.00  0.00     0.037 A 
HETATM   16  C   UNL     1       2.834  28.875  51.378  1.00  0.00     0.003 A 
HETATM   17  C   UNL     1       2.644  28.255  52.606  1.00  0.00     0.001 A 
HETATM   18  C   UNL     1       3.720  28.096  53.486  1.00  0.00     0.013 A 
BRANCH  14  19
HETATM   19  O   UNL     1       6.352  29.731  51.503  1.00  0.00    -0.360 OA
HETATM   20  H   UNL     1       6.924  29.822  52.293  1.00  0.00     0.217 HD
ENDBRANCH  14  19
ENDBRANCH   7  13
BRANCH   1  21
HETATM   21  N   UNL     1       6.116  28.323  56.703  1.00  0.00    -0.123 NA
HETATM   22  H   UNL     1       5.740  29.281  56.764  1.00  0.00     0.165 HD
BRANCH  21  23
HETATM   23  S   UNL     1       7.698  28.268  57.313  1.00  0.00     0.222 S 
HETATM   24  C   UNL     1       7.715  29.723  58.342  1.00  0.00     0.181 C 
HETATM   25  O   UNL     1       8.623  28.459  56.220  1.00  0.00    -0.210 OA
HETATM   26  O   UNL     1       7.769  27.110  58.176  1.00  0.00    -0.210 OA
ENDBRANCH  21  23
ENDBRANCH   1  21
TORSDOF 4
ENDMDL
MODEL 6
REMARK VINA RESULT:      -7.1     10.917     12.778
REMARK  4 active torsions:
REMARK  status: ('A' for Active; 'I' for Inactive)
REMARK    1  A    between atoms: S_2  and  N_3 
REMARK    2  A    between atoms: N_3  and  N_4 
REMARK    3  A    between atoms: C_10  and  C_11 
REMARK    4  A    between atoms: C_12  and  O_13 
ROOT
HETATM    1  N   UNL     1       4.501  35.639  61.569  1.00  0.00    -0.241 N 
HETATM    2  C   UNL     1       5.391  34.585  61.459  1.00  0.00     0.272 C 
HETATM    3  O   UNL     1       5.450  33.882  60.452  1.00  0.00    -0.266 OA
HETATM    4  C   UNL     1       6.149  34.251  62.676  1.00  0.00     0.054 A 
HETATM    5  C   UNL     1       5.691  34.785  63.887  1.00  0.00     0.026 A 
HETATM    6  N   UNL     1       4.596  35.689  63.947  1.00  0.00    -0.265 NA
HETATM    7  C   UNL     1       4.478  36.534  62.731  1.00  0.00     0.219 C 
HETATM    8  C   UNL     1       7.177  33.306  62.640  1.00  0.00     0.019 A 
HETATM    9  C   UNL     1       7.751  32.874  63.834  1.00  0.00     0.001 A 
HETATM   10  C   UNL     1       7.275  33.363  65.052  1.00  0.00     0.002 A 
HETATM   11  C   UNL     1       6.238  34.301  65.078  1.00  0.00     0.024 A 
HETATM   12  H   UNL     1       3.740  35.128  63.999  1.00  0.00     0.130 HD
ENDROOT
BRANCH   7  13
HETATM   13  C   UNL     1       5.543  37.636  62.711  1.00  0.00     0.014 A 
HETATM   14  C   UNL     1       5.917  38.361  63.857  1.00  0.00     0.075 A 
HETATM   15  C   UNL     1       6.845  39.402  63.800  1.00  0.00     0.037 A 
HETATM   16  C   UNL     1       7.408  39.770  62.583  1.00  0.00     0.003 A 
HETATM   17  C   UNL     1       7.036  39.098  61.426  1.00  0.00     0.001 A 
HETATM   18  C   UNL     1       6.113  38.048  61.489  1.00  0.00     0.013 A 
BRANCH  14  19
HETATM   19  O   UNL     1       5.401  38.105  65.098  1.00  0.00    -0.360 OA
HETATM   20  H   UNL     1       4.971  37.226  65.057  1.00  0.00     0.217 HD
ENDBRANCH  14  19
ENDBRANCH   7  13
BRANCH   1  21
HETATM   21  N   UNL     1       3.213  35.414  60.856  1.00  0.00    -0.123 NA
HETATM   22  H   UNL     1       2.657  36.277  60.772  1.00  0.00     0.165 HD
BRANCH  21  23
HETATM   23  S   UNL     1       2.222  34.113  61.305  1.00  0.00     0.222 S 
HETATM   24  C   UNL     1       0.605  34.807  61.026  1.00  0.00     0.181 C 
HETATM   25  O   UNL     1       2.388  33.871  62.720  1.00  0.00    -0.210 OA
HETATM   26  O   UNL     1       2.436  33.072  60.326  1.00  0.00    -0.210 OA
ENDBRANCH  21  23
ENDBRANCH   1  21
TORSDOF 4
ENDMDL
MODEL 7
REMARK VINA RESULT:      -7.1      3.702      5.661
REMARK  4 active torsions:
REMARK  status: ('A' for Active; 'I' for Inactive)
REMARK    1  A    between atoms: S_2  and  N_3 
REMARK    2  A    between atoms: N_3  and  N_4 
REMARK    3  A    between atoms: C_10  and  C_11 
REMARK    4  A    between atoms: C_12  and  O_13 
ROOT
HETATM    1  N   UNL     1       7.534  28.988  57.048  1.00  0.00    -0.241 N 
HETATM    2  C   UNL     1       7.386  27.639  57.318  1.00  0.00     0.272 C 
HETATM    3  O   UNL     1       7.825  27.126  58.346  1.00  0.00    -0.266 OA
HETATM    4  C   UNL     1       6.819  26.822  56.233  1.00  0.00     0.054 A 
HETATM    5  C   UNL     1       6.785  27.387  54.951  1.00  0.00     0.026 A 
HETATM    6  N   UNL     1       7.190  28.727  54.707  1.00  0.00    -0.265 NA
HETATM    7  C   UNL     1       6.945  29.625  55.865  1.00  0.00     0.219 C 
HETATM    8  C   UNL     1       6.489  25.481  56.446  1.00  0.00     0.019 A 
HETATM    9  C   UNL     1       6.130  24.685  55.360  1.00  0.00     0.001 A 
HETATM   10  C   UNL     1       6.135  25.221  54.071  1.00  0.00     0.002 A 
HETATM   11  C   UNL     1       6.477  26.562  53.867  1.00  0.00     0.024 A 
HETATM   12  H   UNL     1       8.203  28.716  54.553  1.00  0.00     0.130 HD
ENDROOT
BRANCH   7  13
HETATM   13  C   UNL     1       5.458  29.972  55.998  1.00  0.00     0.014 A 
HETATM   14  C   UNL     1       4.643  30.287  54.897  1.00  0.00     0.075 A 
HETATM   15  C   UNL     1       3.307  30.660  55.050  1.00  0.00     0.037 A 
HETATM   16  C   UNL     1       2.751  30.757  56.322  1.00  0.00     0.003 A 
HETATM   17  C   UNL     1       3.537  30.486  57.434  1.00  0.00     0.001 A 
HETATM   18  C   UNL     1       4.873  30.103  57.274  1.00  0.00     0.013 A 
BRANCH  14  19
HETATM   19  O   UNL     1       5.096  30.256  53.605  1.00  0.00    -0.360 OA
HETATM   20  H   UNL     1       4.346  29.973  53.042  1.00  0.00     0.217 HD
ENDBRANCH  14  19
ENDBRANCH   7  13
BRANCH   1  21
HETATM   21  N   UNL     1       8.798  29.571  57.578  1.00  0.00    -0.123 NA
HETATM   22  H   UNL     1       9.500  28.849  57.797  1.00  0.00     0.165 HD
BRANCH  21  23
HETATM   23  S   UNL     1       8.735  30.729  58.815  1.00  0.00     0.222 S 
HETATM   24  C   UNL     1      10.265  31.600  58.543  1.00  0.00     0.181 C 
HETATM   25  O   UNL     1       8.804  30.050  60.089  1.00  0.00    -0.210 OA
HETATM   26  O   UNL     1       7.647  31.624  58.489  1.00  0.00    -0.210 OA
ENDBRANCH  21  23
ENDBRANCH   1  21
TORSDOF 4
ENDMDL
MODEL 8
REMARK VINA RESULT:      -7.0      2.153      4.884
REMARK  4 active torsions:
REMARK  status: ('A' for Active; 'I' for Inactive)
REMARK    1  A    between atoms: S_2  and  N_3 
REMARK    2  A    between atoms: N_3  and  N_4 
REMARK    3  A    between atoms: C_10  and  C_11 
REMARK    4  A    between atoms: C_12  and  O_13 
ROOT
HETATM    1  N   UNL     1       5.837  27.988  52.809  1.00  0.00    -0.241 N 
HETATM    2  C   UNL     1       4.933  28.325  53.801  1.00  0.00     0.272 C 
HETATM    3  O   UNL     1       3.762  28.608  53.550  1.00  0.00    -0.266 OA
HETATM    4  C   UNL     1       5.489  28.484  55.154  1.00  0.00     0.054 A 
HETATM    5  C   UNL     1       6.880  28.605  55.269  1.00  0.00     0.026 A 
HETATM    6  N   UNL     1       7.742  28.488  54.145  1.00  0.00    -0.265 NA
HETATM    7  C   UNL     1       7.212  27.571  53.103  1.00  0.00     0.219 C 
HETATM    8  C   UNL     1       4.649  28.677  56.253  1.00  0.00     0.019 A 
HETATM    9  C   UNL     1       5.204  29.008  57.488  1.00  0.00     0.001 A 
HETATM   10  C   UNL     1       6.584  29.176  57.608  1.00  0.00     0.002 A 
HETATM   11  C   UNL     1       7.416  28.993  56.499  1.00  0.00     0.024 A 
HETATM   12  H   UNL     1       7.809  29.415  53.714  1.00  0.00     0.130 HD
ENDROOT
BRANCH   7  13
HETATM   13  C   UNL     1       7.360  26.104  53.521  1.00  0.00     0.014 A 
HETATM   14  C   UNL     1       7.347  25.040  52.601  1.00  0.00     0.075 A 
HETATM   15  C   UNL     1       7.421  23.709  53.012  1.00  0.00     0.037 A 
HETATM   16  C   UNL     1       7.482  23.399  54.367  1.00  0.00     0.003 A 
HETATM   17  C   UNL     1       7.463  24.423  55.305  1.00  0.00     0.001 A 
HETATM   18  C   UNL     1       7.399  25.757  54.887  1.00  0.00     0.013 A 
BRANCH  14  19
HETATM   19  O   UNL     1       7.256  25.230  51.249  1.00  0.00    -0.360 OA
HETATM   20  H   UNL     1       6.440  25.746  51.083  1.00  0.00     0.217 HD
ENDBRANCH  14  19
ENDBRANCH   7  13
BRANCH   1  21
HETATM   21  N   UNL     1       5.600  28.691  51.517  1.00  0.00    -0.123 NA
HETATM   22  H   UNL     1       5.101  29.584  51.644  1.00  0.00     0.165 HD
BRANCH  21  23
HETATM   23  S   UNL     1       4.957  27.836  50.202  1.00  0.00     0.222 S 
HETATM   24  C   UNL     1       3.336  28.565  50.083  1.00  0.00     0.181 C 
HETATM   25  O   UNL     1       4.817  26.447  50.575  1.00  0.00    -0.210 OA
HETATM   26  O   UNL     1       5.713  28.237  49.037  1.00  0.00    -0.210 OA
ENDBRANCH  21  23
ENDBRANCH   1  21
TORSDOF 4
ENDMDL
MODEL 9
REMARK VINA RESULT:      -7.0      8.902     11.012
REMARK  4 active torsions:
REMARK  status: ('A' for Active; 'I' for Inactive)
REMARK    1  A    between atoms: S_2  and  N_3 
REMARK    2  A    between atoms: N_3  and  N_4 
REMARK    3  A    between atoms: C_10  and  C_11 
REMARK    4  A    between atoms: C_12  and  O_13 
ROOT
HETATM    1  N   UNL     1       4.645  32.764  60.754  1.00  0.00    -0.241 N 
HETATM    2  C   UNL     1       5.961  32.605  61.150  1.00  0.00     0.272 C 
HETATM    3  O   UNL     1       6.792  32.033  60.445  1.00  0.00    -0.266 OA
HETATM    4  C   UNL     1       6.274  33.013  62.529  1.00  0.00     0.054 A 
HETATM    5  C   UNL     1       5.197  33.209  63.402  1.00  0.00     0.026 A 
HETATM    6  N   UNL     1       3.847  33.114  62.969  1.00  0.00    -0.265 NA
HETATM    7  C   UNL     1       3.667  33.513  61.549  1.00  0.00     0.219 C 
HETATM    8  C   UNL     1       7.594  33.036  62.985  1.00  0.00     0.019 A 
HETATM    9  C   UNL     1       7.846  33.245  64.340  1.00  0.00     0.001 A 
HETATM   10  C   UNL     1       6.781  33.398  65.230  1.00  0.00     0.002 A 
HETATM   11  C   UNL     1       5.463  33.362  64.765  1.00  0.00     0.024 A 
HETATM   12  H   UNL     1       3.575  32.128  63.033  1.00  0.00     0.130 HD
ENDROOT
BRANCH   7  13
HETATM   13  C   UNL     1       3.739  35.035  61.383  1.00  0.00     0.014 A 
HETATM   14  C   UNL     1       3.200  35.935  62.320  1.00  0.00     0.075 A 
HETATM   15  C   UNL     1       3.224  37.315  62.116  1.00  0.00     0.037 A 
HETATM   16  C   UNL     1       3.765  37.838  60.947  1.00  0.00     0.003 A 
HETATM   17  C   UNL     1       4.275  36.977  59.984  1.00  0.00     0.001 A 
HETATM   18  C   UNL     1       4.259  35.594  60.198  1.00  0.00     0.013 A 
BRANCH  14  19
HETATM   19  O   UNL     1       2.615  35.527  63.489  1.00  0.00    -0.360 OA
HETATM   20  H   UNL     1       1.698  35.258  63.274  1.00  0.00     0.217 HD
ENDBRANCH  14  19
ENDBRANCH   7  13
BRANCH   1  21
HETATM   21  N   UNL     1       4.130  31.641  59.920  1.00  0.00    -0.123 NA
HETATM   22  H   UNL     1       4.727  30.804  59.981  1.00  0.00     0.165 HD
BRANCH  21  23
HETATM   23  S   UNL     1       3.676  31.930  58.312  1.00  0.00     0.222 S 
HETATM   24  C   UNL     1       5.269  32.149  57.545  1.00  0.00     0.181 C 
HETATM   25  O   UNL     1       2.953  33.179  58.251  1.00  0.00    -0.210 OA
HETATM   26  O   UNL     1       3.107  30.697  57.815  1.00  0.00    -0.210 OA
ENDBRANCH  21  23
ENDBRANCH   1  21
TORSDOF 4
ENDMDL
MODEL 10
REMARK VINA RESULT:      -6.9      2.780      3.673
REMARK  4 active torsions:
REMARK  status: ('A' for Active; 'I' for Inactive)
REMARK    1  A    between atoms: S_2  and  N_3 
REMARK    2  A    between atoms: N_3  and  N_4 
REMARK    3  A    between atoms: C_10  and  C_11 
REMARK    4  A    between atoms: C_12  and  O_13 
ROOT
HETATM    1  N   UNL     1       5.457  28.846  56.303  1.00  0.00    -0.241 N 
HETATM    2  C   UNL     1       5.629  28.513  54.971  1.00  0.00     0.272 C 
HETATM    3  O   UNL     1       4.990  29.058  54.072  1.00  0.00    -0.266 OA
HETATM    4  C   UNL     1       6.501  27.358  54.702  1.00  0.00     0.054 A 
HETATM    5  C   UNL     1       6.809  26.519  55.781  1.00  0.00     0.026 A 
HETATM    6  N   UNL     1       6.382  26.805  57.105  1.00  0.00    -0.265 NA
HETATM    7  C   UNL     1       6.271  28.262  57.374  1.00  0.00     0.219 C 
HETATM    8  C   UNL     1       6.864  27.025  53.395  1.00  0.00     0.019 A 
HETATM    9  C   UNL     1       7.533  25.827  53.155  1.00  0.00     0.001 A 
HETATM   10  C   UNL     1       7.807  24.959  54.213  1.00  0.00     0.002 A 
HETATM   11  C   UNL     1       7.430  25.296  55.517  1.00  0.00     0.024 A 
HETATM   12  H   UNL     1       5.441  26.414  57.214  1.00  0.00     0.130 HD
ENDROOT
BRANCH   7  13
HETATM   13  C   UNL     1       7.651  28.904  57.552  1.00  0.00     0.014 A 
HETATM   14  C   UNL     1       7.862  30.068  58.312  1.00  0.00     0.075 A 
HETATM   15  C   UNL     1       9.118  30.669  58.408  1.00  0.00     0.037 A 
HETATM   16  C   UNL     1      10.202  30.136  57.719  1.00  0.00     0.003 A 
HETATM   17  C   UNL     1      10.022  29.006  56.931  1.00  0.00     0.001 A 
HETATM   18  C   UNL     1       8.763  28.402  56.846  1.00  0.00     0.013 A 
BRANCH  14  19
HETATM   19  O   UNL     1       6.860  30.695  59.004  1.00  0.00    -0.360 OA
HETATM   20  H   UNL     1       6.608  30.106  59.745  1.00  0.00     0.217 HD
ENDBRANCH  14  19
ENDBRANCH   7  13
BRANCH   1  21
HETATM   21  N   UNL     1       4.063  29.245  56.646  1.00  0.00    -0.123 NA
HETATM   22  H   UNL     1       3.370  28.837  56.001  1.00  0.00     0.165 HD
BRANCH  21  23
HETATM   23  S   UNL     1       3.706  30.875  56.945  1.00  0.00     0.222 S 
HETATM   24  C   UNL     1       3.423  30.843  58.704  1.00  0.00     0.181 C 
HETATM   25  O   UNL     1       2.468  31.209  56.279  1.00  0.00    -0.210 OA
HETATM   26  O   UNL     1       4.923  31.618  56.703  1.00  0.00    -0.210 OA
ENDBRANCH  21  23
ENDBRANCH   1  21
TORSDOF 4
ENDMDL
