MODEL 1
REMARK VINA RESULT:     -10.3      0.000      0.000
REMARK  3 active torsions:
REMARK  status: ('A' for Active; 'I' for Inactive)
REMARK    1  A    between atoms: C_8  and  C_9 
REMARK    2  A    between atoms: C_14  and  C_15 
REMARK    3  A    between atoms: C_17  and  O_18 
ROOT
HETATM    1  C   UNL     1       8.093  29.241  57.652  1.00  0.00     0.143 A 
HETATM    2  N   UNL     1       8.273  28.053  58.180  1.00  0.00    -0.223 NA
HETATM    3  C   UNL     1       7.578  27.144  57.396  1.00  0.00     0.149 A 
HETATM    4  C   UNL     1       6.977  27.817  56.341  1.00  0.00     0.046 A 
HETATM    5  C   UNL     1       6.101  27.427  55.199  1.00  0.00     0.070 C 
HETATM    6  C   UNL     1       5.661  25.954  55.116  1.00  0.00     0.042 C 
HETATM    7  C   UNL     1       5.389  25.328  56.492  1.00  0.00     0.132 C 
HETATM    8  N   UNL     1       6.575  24.921  57.210  1.00  0.00    -0.355 N 
HETATM    9  C   UNL     1       7.566  25.715  57.727  1.00  0.00     0.272 C 
HETATM   10  O   UNL     1       8.407  25.190  58.455  1.00  0.00    -0.266 OA
HETATM   11  N   UNL     1       7.340  29.135  56.517  1.00  0.00    -0.341 N 
HETATM   12  H   UNL     1       7.071  29.906  55.926  1.00  0.00     0.167 HD
HETATM   13  H   UNL     1       6.665  23.955  57.500  1.00  0.00     0.162 HD
ENDROOT
BRANCH   1  14
HETATM   14  C   UNL     1       8.626  30.502  58.234  1.00  0.00     0.059 A 
HETATM   15  C   UNL     1       7.953  31.443  58.991  1.00  0.00     0.040 A 
HETATM   16  C   UNL     1       6.560  31.572  59.471  1.00  0.00     0.071 C 
HETATM   17  N   UNL     1       8.893  32.397  59.287  1.00  0.00    -0.281 N 
HETATM   18  H   UNL     1       8.772  33.246  59.828  1.00  0.00     0.189 HD
HETATM   19  N   UNL     1      10.108  32.146  58.788  1.00  0.00    -0.179 NA
HETATM   20  C   UNL     1       9.958  30.983  58.137  1.00  0.00     0.067 A 
HETATM   21  C   UNL     1      11.115  30.364  57.441  1.00  0.00     0.073 C 
ENDBRANCH   1  14
BRANCH   6  22
HETATM   22  C   UNL     1       6.507  25.049  54.224  1.00  0.00    -0.049 A 
HETATM   23  C   UNL     1       6.695  23.704  54.608  1.00  0.00     0.044 A 
HETATM   24  C   UNL     1       7.474  22.835  53.840  1.00  0.00     0.068 A 
HETATM   25  C   UNL     1       8.073  23.311  52.674  1.00  0.00     0.037 A 
HETATM   26  C   UNL     1       7.905  24.639  52.284  1.00  0.00     0.003 A 
HETATM   27  C   UNL     1       7.129  25.505  53.055  1.00  0.00     0.007 A 
BRANCH  24  28
HETATM   28  O   UNL     1       7.722  21.519  54.116  1.00  0.00    -0.356 OA
HETATM   29  C   UNL     1       7.961  20.661  53.008  1.00  0.00     0.210 C 
ENDBRANCH  24  28
ENDBRANCH   6  22
TORSDOF 3
ENDMDL
MODEL 2
REMARK VINA RESULT:     -10.0      2.800      8.114
REMARK  3 active torsions:
REMARK  status: ('A' for Active; 'I' for Inactive)
REMARK    1  A    between atoms: C_8  and  C_9 
REMARK    2  A    between atoms: C_14  and  C_15 
REMARK    3  A    between atoms: C_17  and  O_18 
ROOT
HETATM    1  C   UNL     1       7.855  23.922  55.505  1.00  0.00     0.143 A 
HETATM    2  N   UNL     1       7.674  24.890  54.636  1.00  0.00    -0.223 NA
HETATM    3  C   UNL     1       7.548  26.070  55.354  1.00  0.00     0.149 A 
HETATM    4  C   UNL     1       7.683  25.797  56.709  1.00  0.00     0.046 A 
HETATM    5  C   UNL     1       7.627  26.604  57.961  1.00  0.00     0.070 C 
HETATM    6  C   UNL     1       7.291  28.099  57.824  1.00  0.00     0.042 C 
HETATM    7  C   UNL     1       6.258  28.387  56.724  1.00  0.00     0.132 C 
HETATM    8  N   UNL     1       6.799  28.398  55.383  1.00  0.00    -0.355 N 
HETATM    9  C   UNL     1       7.320  27.348  54.673  1.00  0.00     0.272 C 
HETATM   10  O   UNL     1       7.573  27.525  53.481  1.00  0.00    -0.266 OA
HETATM   11  N   UNL     1       7.899  24.437  56.769  1.00  0.00    -0.341 N 
HETATM   12  H   UNL     1       8.037  23.898  57.610  1.00  0.00     0.167 HD
HETATM   13  H   UNL     1       6.687  29.230  54.817  1.00  0.00     0.162 HD
ENDROOT
BRANCH   1  14
HETATM   14  C   UNL     1       7.973  22.484  55.140  1.00  0.00     0.059 A 
HETATM   15  C   UNL     1       8.156  21.403  55.982  1.00  0.00     0.040 A 
HETATM   16  C   UNL     1       8.306  21.253  57.446  1.00  0.00     0.071 C 
HETATM   17  N   UNL     1       8.185  20.311  55.153  1.00  0.00    -0.281 N 
HETATM   18  H   UNL     1       8.303  19.336  55.408  1.00  0.00     0.189 HD
HETATM   19  N   UNL     1       8.034  20.600  53.856  1.00  0.00    -0.179 NA
HETATM   20  C   UNL     1       7.904  21.934  53.833  1.00  0.00     0.067 A 
HETATM   21  C   UNL     1       7.708  22.643  52.543  1.00  0.00     0.073 C 
ENDBRANCH   1  14
BRANCH   6  22
HETATM   22  C   UNL     1       8.480  29.053  57.767  1.00  0.00    -0.049 A 
HETATM   23  C   UNL     1       8.408  30.271  58.475  1.00  0.00     0.044 A 
HETATM   24  C   UNL     1       9.459  31.190  58.444  1.00  0.00     0.068 A 
HETATM   25  C   UNL     1      10.598  30.894  57.699  1.00  0.00     0.037 A 
HETATM   26  C   UNL     1      10.686  29.699  56.985  1.00  0.00     0.003 A 
HETATM   27  C   UNL     1       9.632  28.784  57.016  1.00  0.00     0.007 A 
BRANCH  24  28
HETATM   28  O   UNL     1       9.494  32.396  59.090  1.00  0.00    -0.356 OA
HETATM   29  C   UNL     1       8.882  32.460  60.372  1.00  0.00     0.210 C 
ENDBRANCH  24  28
ENDBRANCH   6  22
TORSDOF 3
ENDMDL
MODEL 3
REMARK VINA RESULT:      -9.7      1.598      2.520
REMARK  3 active torsions:
REMARK  status: ('A' for Active; 'I' for Inactive)
REMARK    1  A    between atoms: C_8  and  C_9 
REMARK    2  A    between atoms: C_14  and  C_15 
REMARK    3  A    between atoms: C_17  and  O_18 
ROOT
HETATM    1  C   UNL     1       7.838  28.914  56.881  1.00  0.00     0.143 A 
HETATM    2  N   UNL     1       6.851  28.138  57.265  1.00  0.00    -0.223 NA
HETATM    3  C   UNL     1       6.628  27.222  56.248  1.00  0.00     0.149 A 
HETATM    4  C   UNL     1       7.535  27.447  55.222  1.00  0.00     0.046 A 
HETATM    5  C   UNL     1       7.794  26.840  53.885  1.00  0.00     0.070 C 
HETATM    6  C   UNL     1       6.843  25.722  53.421  1.00  0.00     0.042 C 
HETATM    7  C   UNL     1       5.385  25.954  53.848  1.00  0.00     0.132 C 
HETATM    8  N   UNL     1       5.102  25.607  55.223  1.00  0.00    -0.355 N 
HETATM    9  C   UNL     1       5.571  26.210  56.361  1.00  0.00     0.272 C 
HETATM   10  O   UNL     1       5.078  25.876  57.438  1.00  0.00    -0.266 OA
HETATM   11  N   UNL     1       8.300  28.507  55.662  1.00  0.00    -0.341 N 
HETATM   12  H   UNL     1       9.059  28.937  55.157  1.00  0.00     0.167 HD
HETATM   13  H   UNL     1       4.379  24.926  55.417  1.00  0.00     0.162 HD
ENDROOT
BRANCH   1  14
HETATM   14  C   UNL     1       8.344  30.071  57.668  1.00  0.00     0.059 A 
HETATM   15  C   UNL     1       9.656  30.454  57.873  1.00  0.00     0.040 A 
HETATM   16  C   UNL     1      10.964  29.913  57.445  1.00  0.00     0.071 C 
HETATM   17  N   UNL     1       9.578  31.581  58.650  1.00  0.00    -0.281 N 
HETATM   18  H   UNL     1      10.340  32.148  59.006  1.00  0.00     0.189 HD
HETATM   19  N   UNL     1       8.330  31.953  58.956  1.00  0.00    -0.179 NA
HETATM   20  C   UNL     1       7.561  31.032  58.359  1.00  0.00     0.067 A 
HETATM   21  C   UNL     1       6.081  31.112  58.469  1.00  0.00     0.073 C 
ENDBRANCH   1  14
BRANCH   6  22
HETATM   22  C   UNL     1       7.305  24.293  53.688  1.00  0.00    -0.049 A 
HETATM   23  C   UNL     1       7.722  23.947  54.991  1.00  0.00     0.044 A 
HETATM   24  C   UNL     1       8.172  22.659  55.288  1.00  0.00     0.068 A 
HETATM   25  C   UNL     1       8.208  21.701  54.275  1.00  0.00     0.037 A 
HETATM   26  C   UNL     1       7.808  22.027  52.979  1.00  0.00     0.003 A 
HETATM   27  C   UNL     1       7.362  23.315  52.685  1.00  0.00     0.007 A 
BRANCH  24  28
HETATM   28  O   UNL     1       8.597  22.216  56.511  1.00  0.00    -0.356 OA
HETATM   29  C   UNL     1       8.596  20.810  56.724  1.00  0.00     0.210 C 
ENDBRANCH  24  28
ENDBRANCH   6  22
TORSDOF 3
ENDMDL
MODEL 4
REMARK VINA RESULT:      -9.7      1.690      2.195
REMARK  3 active torsions:
REMARK  status: ('A' for Active; 'I' for Inactive)
REMARK    1  A    between atoms: C_8  and  C_9 
REMARK    2  A    between atoms: C_14  and  C_15 
REMARK    3  A    between atoms: C_17  and  O_18 
ROOT
HETATM    1  C   UNL     1       6.707  29.227  57.130  1.00  0.00     0.143 A 
HETATM    2  N   UNL     1       5.876  28.250  57.410  1.00  0.00    -0.223 NA
HETATM    3  C   UNL     1       5.988  27.311  56.395  1.00  0.00     0.149 A 
HETATM    4  C   UNL     1       6.945  27.735  55.483  1.00  0.00     0.046 A 
HETATM    5  C   UNL     1       7.495  27.205  54.203  1.00  0.00     0.070 C 
HETATM    6  C   UNL     1       6.879  25.907  53.653  1.00  0.00     0.042 C 
HETATM    7  C   UNL     1       5.365  25.808  53.892  1.00  0.00     0.132 C 
HETATM    8  N   UNL     1       4.995  25.403  55.230  1.00  0.00    -0.355 N 
HETATM    9  C   UNL     1       5.174  26.090  56.402  1.00  0.00     0.272 C 
HETATM   10  O   UNL     1       4.636  25.652  57.418  1.00  0.00    -0.266 OA
HETATM   11  N   UNL     1       7.396  28.936  55.987  1.00  0.00    -0.341 N 
HETATM   12  H   UNL     1       8.100  29.525  55.569  1.00  0.00     0.167 HD
HETATM   13  H   UNL     1       4.422  24.577  55.351  1.00  0.00     0.162 HD
ENDROOT
BRANCH   1  14
HETATM   14  C   UNL     1       6.844  30.465  57.945  1.00  0.00     0.059 A 
HETATM   15  C   UNL     1       5.857  31.363  58.303  1.00  0.00     0.040 A 
HETATM   16  C   UNL     1       4.405  31.456  58.036  1.00  0.00     0.071 C 
HETATM   17  N   UNL     1       6.498  32.310  59.059  1.00  0.00    -0.281 N 
HETATM   18  H   UNL     1       6.099  33.133  59.500  1.00  0.00     0.189 HD
HETATM   19  N   UNL     1       7.808  32.094  59.217  1.00  0.00    -0.179 NA
HETATM   20  C   UNL     1       8.035  30.962  58.536  1.00  0.00     0.067 A 
HETATM   21  C   UNL     1       9.403  30.386  58.481  1.00  0.00     0.073 C 
ENDBRANCH   1  14
BRANCH   6  22
HETATM   22  C   UNL     1       7.608  24.614  54.009  1.00  0.00    -0.049 A 
HETATM   23  C   UNL     1       7.504  23.513  53.132  1.00  0.00     0.044 A 
HETATM   24  C   UNL     1       8.134  22.300  53.415  1.00  0.00     0.068 A 
HETATM   25  C   UNL     1       8.878  22.179  54.588  1.00  0.00     0.037 A 
HETATM   26  C   UNL     1       8.986  23.253  55.471  1.00  0.00     0.003 A 
HETATM   27  C   UNL     1       8.352  24.463  55.186  1.00  0.00     0.007 A 
BRANCH  24  28
HETATM   28  O   UNL     1       8.100  21.174  52.639  1.00  0.00    -0.356 OA
HETATM   29  C   UNL     1       8.726  20.009  53.164  1.00  0.00     0.210 C 
ENDBRANCH  24  28
ENDBRANCH   6  22
TORSDOF 3
ENDMDL
MODEL 5
REMARK VINA RESULT:      -9.5      4.502      6.671
REMARK  3 active torsions:
REMARK  status: ('A' for Active; 'I' for Inactive)
REMARK    1  A    between atoms: C_8  and  C_9 
REMARK    2  A    between atoms: C_14  and  C_15 
REMARK    3  A    between atoms: C_17  and  O_18 
ROOT
HETATM    1  C   UNL     1       5.121  28.246  50.824  1.00  0.00     0.143 A 
HETATM    2  N   UNL     1       6.073  28.569  51.669  1.00  0.00    -0.223 NA
HETATM    3  C   UNL     1       6.132  27.566  52.626  1.00  0.00     0.149 A 
HETATM    4  C   UNL     1       5.189  26.592  52.325  1.00  0.00     0.046 A 
HETATM    5  C   UNL     1       4.751  25.313  52.955  1.00  0.00     0.070 C 
HETATM    6  C   UNL     1       5.406  24.923  54.291  1.00  0.00     0.042 C 
HETATM    7  C   UNL     1       5.683  26.128  55.203  1.00  0.00     0.132 C 
HETATM    8  N   UNL     1       6.867  26.882  54.856  1.00  0.00    -0.355 N 
HETATM    9  C   UNL     1       7.093  27.632  53.732  1.00  0.00     0.272 C 
HETATM   10  O   UNL     1       8.100  28.338  53.701  1.00  0.00    -0.266 OA
HETATM   11  N   UNL     1       4.584  27.039  51.170  1.00  0.00    -0.341 N 
HETATM   12  H   UNL     1       3.843  26.571  50.672  1.00  0.00     0.167 HD
HETATM   13  H   UNL     1       7.592  27.001  55.552  1.00  0.00     0.162 HD
ENDROOT
BRANCH   1  14
HETATM   14  C   UNL     1       4.698  29.098  49.680  1.00  0.00     0.059 A 
HETATM   15  C   UNL     1       4.262  30.409  49.708  1.00  0.00     0.040 A 
HETATM   16  C   UNL     1       4.049  31.399  50.787  1.00  0.00     0.071 C 
HETATM   17  N   UNL     1       4.013  30.727  48.398  1.00  0.00    -0.281 N 
HETATM   18  H   UNL     1       3.677  31.608  48.022  1.00  0.00     0.189 HD
HETATM   19  N   UNL     1       4.254  29.735  47.535  1.00  0.00    -0.179 NA
HETATM   20  C   UNL     1       4.675  28.725  48.310  1.00  0.00     0.067 A 
HETATM   21  C   UNL     1       5.052  27.424  47.701  1.00  0.00     0.073 C 
ENDBRANCH   1  14
BRANCH   6  22
HETATM   22  C   UNL     1       6.600  23.977  54.203  1.00  0.00    -0.049 A 
HETATM   23  C   UNL     1       7.067  23.362  55.385  1.00  0.00     0.044 A 
HETATM   24  C   UNL     1       8.167  22.502  55.367  1.00  0.00     0.068 A 
HETATM   25  C   UNL     1       8.811  22.248  54.157  1.00  0.00     0.037 A 
HETATM   26  C   UNL     1       8.369  22.852  52.980  1.00  0.00     0.003 A 
HETATM   27  C   UNL     1       7.272  23.714  53.002  1.00  0.00     0.007 A 
BRANCH  24  28
HETATM   28  O   UNL     1       8.702  21.855  56.448  1.00  0.00    -0.356 OA
HETATM   29  C   UNL     1       9.085  20.499  56.264  1.00  0.00     0.210 C 
ENDBRANCH  24  28
ENDBRANCH   6  22
TORSDOF 3
ENDMDL
MODEL 6
REMARK VINA RESULT:      -9.5      2.966      4.338
REMARK  3 active torsions:
REMARK  status: ('A' for Active; 'I' for Inactive)
REMARK    1  A    between atoms: C_8  and  C_9 
REMARK    2  A    between atoms: C_14  and  C_15 
REMARK    3  A    between atoms: C_17  and  O_18 
ROOT
HETATM    1  C   UNL     1       4.601  29.167  55.933  1.00  0.00     0.143 A 
HETATM    2  N   UNL     1       5.912  29.251  55.932  1.00  0.00    -0.223 NA
HETATM    3  C   UNL     1       6.406  27.984  56.204  1.00  0.00     0.149 A 
HETATM    4  C   UNL     1       5.344  27.101  56.351  1.00  0.00     0.046 A 
HETATM    5  C   UNL     1       5.210  25.650  56.664  1.00  0.00     0.070 C 
HETATM    6  C   UNL     1       6.502  24.870  56.966  1.00  0.00     0.042 C 
HETATM    7  C   UNL     1       7.535  25.694  57.749  1.00  0.00     0.132 C 
HETATM    8  N   UNL     1       8.297  26.620  56.944  1.00  0.00    -0.355 N 
HETATM    9  C   UNL     1       7.849  27.737  56.288  1.00  0.00     0.272 C 
HETATM   10  O   UNL     1       8.686  28.493  55.795  1.00  0.00    -0.266 OA
HETATM   11  N   UNL     1       4.220  27.874  56.151  1.00  0.00    -0.341 N 
HETATM   12  H   UNL     1       3.266  27.550  56.189  1.00  0.00     0.167 HD
HETATM   13  H   UNL     1       9.307  26.548  56.937  1.00  0.00     0.162 HD
ENDROOT
BRANCH   1  14
HETATM   14  C   UNL     1       3.691  30.329  55.742  1.00  0.00     0.059 A 
HETATM   15  C   UNL     1       3.150  30.802  54.561  1.00  0.00     0.040 A 
HETATM   16  C   UNL     1       3.256  30.393  53.144  1.00  0.00     0.071 C 
HETATM   17  N   UNL     1       2.378  31.873  54.931  1.00  0.00    -0.281 N 
HETATM   18  H   UNL     1       1.822  32.478  54.335  1.00  0.00     0.189 HD
HETATM   19  N   UNL     1       2.376  32.123  56.245  1.00  0.00    -0.179 NA
HETATM   20  C   UNL     1       3.182  31.181  56.756  1.00  0.00     0.067 A 
HETATM   21  C   UNL     1       3.431  31.128  58.219  1.00  0.00     0.073 C 
ENDBRANCH   1  14
BRANCH   6  22
HETATM   22  C   UNL     1       7.126  24.124  55.790  1.00  0.00    -0.049 A 
HETATM   23  C   UNL     1       8.006  23.053  56.057  1.00  0.00     0.044 A 
HETATM   24  C   UNL     1       8.621  22.346  55.021  1.00  0.00     0.068 A 
HETATM   25  C   UNL     1       8.356  22.709  53.701  1.00  0.00     0.037 A 
HETATM   26  C   UNL     1       7.496  23.769  53.418  1.00  0.00     0.003 A 
HETATM   27  C   UNL     1       6.886  24.475  54.455  1.00  0.00     0.007 A 
BRANCH  24  28
HETATM   28  O   UNL     1       9.486  21.297  55.165  1.00  0.00    -0.356 OA
HETATM   29  C   UNL     1       9.209  20.368  56.205  1.00  0.00     0.210 C 
ENDBRANCH  24  28
ENDBRANCH   6  22
TORSDOF 3
ENDMDL
MODEL 7
REMARK VINA RESULT:      -9.3      2.483      3.400
REMARK  3 active torsions:
REMARK  status: ('A' for Active; 'I' for Inactive)
REMARK    1  A    between atoms: C_8  and  C_9 
REMARK    2  A    between atoms: C_14  and  C_15 
REMARK    3  A    between atoms: C_17  and  O_18 
ROOT
HETATM    1  C   UNL     1       5.229  29.802  57.308  1.00  0.00     0.143 A 
HETATM    2  N   UNL     1       6.536  29.666  57.293  1.00  0.00    -0.223 NA
HETATM    3  C   UNL     1       6.808  28.321  57.092  1.00  0.00     0.149 A 
HETATM    4  C   UNL     1       5.613  27.628  56.959  1.00  0.00     0.046 A 
HETATM    5  C   UNL     1       5.235  26.200  56.754  1.00  0.00     0.070 C 
HETATM    6  C   UNL     1       6.373  25.165  56.723  1.00  0.00     0.042 C 
HETATM    7  C   UNL     1       7.507  25.486  57.709  1.00  0.00     0.132 C 
HETATM    8  N   UNL     1       8.431  26.498  57.250  1.00  0.00    -0.355 N 
HETATM    9  C   UNL     1       8.189  27.830  57.037  1.00  0.00     0.272 C 
HETATM   10  O   UNL     1       9.151  28.564  56.809  1.00  0.00    -0.266 OA
HETATM   11  N   UNL     1       4.636  28.593  57.077  1.00  0.00    -0.341 N 
HETATM   12  H   UNL     1       3.641  28.436  57.031  1.00  0.00     0.167 HD
HETATM   13  H   UNL     1       9.415  26.270  57.185  1.00  0.00     0.162 HD
ENDROOT
BRANCH   1  14
HETATM   14  C   UNL     1       4.527  31.089  57.562  1.00  0.00     0.059 A 
HETATM   15  C   UNL     1       4.758  32.001  58.574  1.00  0.00     0.040 A 
HETATM   16  C   UNL     1       5.699  32.056  59.714  1.00  0.00     0.071 C 
HETATM   17  N   UNL     1       3.859  33.011  58.352  1.00  0.00    -0.281 N 
HETATM   18  H   UNL     1       3.727  33.861  58.891  1.00  0.00     0.189 HD
HETATM   19  N   UNL     1       3.076  32.826  57.284  1.00  0.00    -0.179 NA
HETATM   20  C   UNL     1       3.475  31.645  56.789  1.00  0.00     0.067 A 
HETATM   21  C   UNL     1       2.829  31.090  55.572  1.00  0.00     0.073 C 
ENDBRANCH   1  14
BRANCH   6  22
HETATM   22  C   UNL     1       6.897  24.783  55.342  1.00  0.00    -0.049 A 
HETATM   23  C   UNL     1       7.562  23.548  55.187  1.00  0.00     0.044 A 
HETATM   24  C   UNL     1       8.078  23.154  53.950  1.00  0.00     0.068 A 
HETATM   25  C   UNL     1       7.930  24.000  52.852  1.00  0.00     0.037 A 
HETATM   26  C   UNL     1       7.283  25.228  52.988  1.00  0.00     0.003 A 
HETATM   27  C   UNL     1       6.771  25.620  54.225  1.00  0.00     0.007 A 
BRANCH  24  28
HETATM   28  O   UNL     1       8.738  21.985  53.688  1.00  0.00    -0.356 OA
HETATM   29  C   UNL     1       7.958  20.896  53.211  1.00  0.00     0.210 C 
ENDBRANCH  24  28
ENDBRANCH   6  22
TORSDOF 3
ENDMDL
MODEL 8
REMARK VINA RESULT:      -9.3      2.927      4.508
REMARK  3 active torsions:
REMARK  status: ('A' for Active; 'I' for Inactive)
REMARK    1  A    between atoms: C_8  and  C_9 
REMARK    2  A    between atoms: C_14  and  C_15 
REMARK    3  A    between atoms: C_17  and  O_18 
ROOT
HETATM    1  C   UNL     1       4.663  29.112  55.935  1.00  0.00     0.143 A 
HETATM    2  N   UNL     1       5.969  29.227  55.998  1.00  0.00    -0.223 NA
HETATM    3  C   UNL     1       6.482  27.967  56.267  1.00  0.00     0.149 A 
HETATM    4  C   UNL     1       5.437  27.056  56.344  1.00  0.00     0.046 A 
HETATM    5  C   UNL     1       5.325  25.595  56.620  1.00  0.00     0.070 C 
HETATM    6  C   UNL     1       6.621  24.840  56.967  1.00  0.00     0.042 C 
HETATM    7  C   UNL     1       7.595  25.671  57.816  1.00  0.00     0.132 C 
HETATM    8  N   UNL     1       8.370  26.634  57.067  1.00  0.00    -0.355 N 
HETATM    9  C   UNL     1       7.926  27.754  56.414  1.00  0.00     0.272 C 
HETATM   10  O   UNL     1       8.765  28.540  55.977  1.00  0.00    -0.266 OA
HETATM   11  N   UNL     1       4.305  27.805  56.107  1.00  0.00    -0.341 N 
HETATM   12  H   UNL     1       3.359  27.457  56.092  1.00  0.00     0.167 HD
HETATM   13  H   UNL     1       9.381  26.587  57.108  1.00  0.00     0.162 HD
ENDROOT
BRANCH   1  14
HETATM   14  C   UNL     1       3.734  30.254  55.724  1.00  0.00     0.059 A 
HETATM   15  C   UNL     1       3.202  30.713  54.534  1.00  0.00     0.040 A 
HETATM   16  C   UNL     1       3.337  30.299  53.120  1.00  0.00     0.071 C 
HETATM   17  N   UNL     1       2.403  31.770  54.887  1.00  0.00    -0.281 N 
HETATM   18  H   UNL     1       1.845  32.362  54.280  1.00  0.00     0.189 HD
HETATM   19  N   UNL     1       2.377  32.025  56.199  1.00  0.00    -0.179 NA
HETATM   20  C   UNL     1       3.192  31.101  56.727  1.00  0.00     0.067 A 
HETATM   21  C   UNL     1       3.420  31.058  58.194  1.00  0.00     0.073 C 
ENDBRANCH   1  14
BRANCH   6  22
HETATM   22  C   UNL     1       7.319  24.135  55.808  1.00  0.00    -0.049 A 
HETATM   23  C   UNL     1       7.146  24.642  54.502  1.00  0.00     0.044 A 
HETATM   24  C   UNL     1       7.746  24.028  53.401  1.00  0.00     0.068 A 
HETATM   25  C   UNL     1       8.529  22.892  53.601  1.00  0.00     0.037 A 
HETATM   26  C   UNL     1       8.705  22.371  54.883  1.00  0.00     0.003 A 
HETATM   27  C   UNL     1       8.102  22.986  55.980  1.00  0.00     0.007 A 
BRANCH  24  28
HETATM   28  O   UNL     1       7.646  24.432  52.098  1.00  0.00    -0.356 OA
HETATM   29  C   UNL     1       6.708  25.462  51.812  1.00  0.00     0.210 C 
ENDBRANCH  24  28
ENDBRANCH   6  22
TORSDOF 3
ENDMDL
MODEL 9
REMARK VINA RESULT:      -9.2      4.258      6.740
REMARK  3 active torsions:
REMARK  status: ('A' for Active; 'I' for Inactive)
REMARK    1  A    between atoms: C_8  and  C_9 
REMARK    2  A    between atoms: C_14  and  C_15 
REMARK    3  A    between atoms: C_17  and  O_18 
ROOT
HETATM    1  C   UNL     1       5.055  27.824  51.191  1.00  0.00     0.143 A 
HETATM    2  N   UNL     1       6.041  28.307  51.912  1.00  0.00    -0.223 NA
HETATM    3  C   UNL     1       6.183  27.484  53.020  1.00  0.00     0.149 A 
HETATM    4  C   UNL     1       5.256  26.453  52.945  1.00  0.00     0.046 A 
HETATM    5  C   UNL     1       4.893  25.292  53.807  1.00  0.00     0.070 C 
HETATM    6  C   UNL     1       5.631  25.150  55.149  1.00  0.00     0.042 C 
HETATM    7  C   UNL     1       5.919  26.500  55.825  1.00  0.00     0.132 C 
HETATM    8  N   UNL     1       7.058  27.208  55.287  1.00  0.00    -0.355 N 
HETATM    9  C   UNL     1       7.200  27.760  54.040  1.00  0.00     0.272 C 
HETATM   10  O   UNL     1       8.181  28.471  53.830  1.00  0.00    -0.266 OA
HETATM   11  N   UNL     1       4.576  26.683  51.768  1.00  0.00    -0.341 N 
HETATM   12  H   UNL     1       3.824  26.120  51.401  1.00  0.00     0.167 HD
HETATM   13  H   UNL     1       7.817  27.460  55.909  1.00  0.00     0.162 HD
ENDROOT
BRANCH   1  14
HETATM   14  C   UNL     1       4.544  28.458  49.946  1.00  0.00     0.059 A 
HETATM   15  C   UNL     1       4.432  27.897  48.688  1.00  0.00     0.040 A 
HETATM   16  C   UNL     1       4.755  26.569  48.121  1.00  0.00     0.071 C 
HETATM   17  N   UNL     1       3.897  28.887  47.905  1.00  0.00    -0.281 N 
HETATM   18  H   UNL     1       3.669  28.848  46.917  1.00  0.00     0.189 HD
HETATM   19  N   UNL     1       3.655  30.031  48.554  1.00  0.00    -0.179 NA
HETATM   20  C   UNL     1       4.050  29.782  49.811  1.00  0.00     0.067 A 
HETATM   21  C   UNL     1       3.931  30.834  50.853  1.00  0.00     0.073 C 
ENDBRANCH   1  14
BRANCH   6  22
HETATM   22  C   UNL     1       6.848  24.229  55.153  1.00  0.00    -0.049 A 
HETATM   23  C   UNL     1       7.122  23.463  54.001  1.00  0.00     0.044 A 
HETATM   24  C   UNL     1       8.211  22.589  53.954  1.00  0.00     0.068 A 
HETATM   25  C   UNL     1       9.039  22.477  55.070  1.00  0.00     0.037 A 
HETATM   26  C   UNL     1       8.779  23.219  56.222  1.00  0.00     0.003 A 
HETATM   27  C   UNL     1       7.689  24.088  56.265  1.00  0.00     0.007 A 
BRANCH  24  28
HETATM   28  O   UNL     1       8.568  21.803  52.894  1.00  0.00    -0.356 OA
HETATM   29  C   UNL     1       8.200  20.431  52.955  1.00  0.00     0.210 C 
ENDBRANCH  24  28
ENDBRANCH   6  22
TORSDOF 3
ENDMDL
MODEL 10
REMARK VINA RESULT:      -9.2      3.487      7.327
REMARK  3 active torsions:
REMARK  status: ('A' for Active; 'I' for Inactive)
REMARK    1  A    between atoms: C_8  and  C_9 
REMARK    2  A    between atoms: C_14  and  C_15 
REMARK    3  A    between atoms: C_17  and  O_18 
ROOT
HETATM    1  C   UNL     1       7.658  23.152  54.984  1.00  0.00     0.143 A 
HETATM    2  N   UNL     1       6.827  23.720  55.828  1.00  0.00    -0.223 NA
HETATM    3  C   UNL     1       6.694  25.047  55.446  1.00  0.00     0.149 A 
HETATM    4  C   UNL     1       7.462  25.275  54.312  1.00  0.00     0.046 A 
HETATM    5  C   UNL     1       7.756  26.457  53.454  1.00  0.00     0.070 C 
HETATM    6  C   UNL     1       7.150  27.807  53.878  1.00  0.00     0.042 C 
HETATM    7  C   UNL     1       7.118  28.001  55.402  1.00  0.00     0.132 C 
HETATM    8  N   UNL     1       6.033  27.318  56.070  1.00  0.00    -0.355 N 
HETATM    9  C   UNL     1       5.836  25.968  56.199  1.00  0.00     0.272 C 
HETATM   10  O   UNL     1       4.942  25.583  56.952  1.00  0.00    -0.266 OA
HETATM   11  N   UNL     1       8.039  24.054  54.032  1.00  0.00    -0.341 N 
HETATM   12  H   UNL     1       8.667  23.859  53.268  1.00  0.00     0.167 HD
HETATM   13  H   UNL     1       5.385  27.857  56.630  1.00  0.00     0.162 HD
ENDROOT
BRANCH   1  14
HETATM   14  C   UNL     1       8.115  21.740  55.086  1.00  0.00     0.059 A 
HETATM   15  C   UNL     1       8.435  21.027  56.227  1.00  0.00     0.040 A 
HETATM   16  C   UNL     1       8.462  21.353  57.669  1.00  0.00     0.071 C 
HETATM   17  N   UNL     1       8.779  19.779  55.778  1.00  0.00    -0.281 N 
HETATM   18  H   UNL     1       9.075  18.977  56.326  1.00  0.00     0.189 HD
HETATM   19  N   UNL     1       8.705  19.630  54.451  1.00  0.00    -0.179 NA
HETATM   20  C   UNL     1       8.299  20.830  54.012  1.00  0.00     0.067 A 
HETATM   21  C   UNL     1       8.091  21.062  52.560  1.00  0.00     0.073 C 
ENDBRANCH   1  14
BRANCH   6  22
HETATM   22  C   UNL     1       5.829  28.189  53.217  1.00  0.00    -0.049 A 
HETATM   23  C   UNL     1       5.543  27.683  51.932  1.00  0.00     0.044 A 
HETATM   24  C   UNL     1       4.358  28.013  51.271  1.00  0.00     0.068 A 
HETATM   25  C   UNL     1       3.444  28.860  51.898  1.00  0.00     0.037 A 
HETATM   26  C   UNL     1       3.713  29.377  53.165  1.00  0.00     0.003 A 
HETATM   27  C   UNL     1       4.900  29.047  53.820  1.00  0.00     0.007 A 
BRANCH  24  28
HETATM   28  O   UNL     1       3.980  27.582  50.029  1.00  0.00    -0.356 OA
HETATM   29  C   UNL     1       4.648  26.438  49.512  1.00  0.00     0.210 C 
ENDBRANCH  24  28
ENDBRANCH   6  22
TORSDOF 3
ENDMDL
