MODEL 1
REMARK VINA RESULT:      -9.6      0.000      0.000
REMARK  6 active torsions:
REMARK  status: ('A' for Active; 'I' for Inactive)
REMARK    1  A    between atoms: C_2  and  O_3 
REMARK    2  A    between atoms: O_3  and  C_4 
REMARK    3  A    between atoms: C_4  and  C_5 
REMARK    4  A    between atoms: C_10  and  N_11 
REMARK       I    between atoms: N_11  and  C_12 
REMARK    5  A    between atoms: C_12  and  C_13 
REMARK    6  A    between atoms: C_13  and  N_14 
ROOT
HETATM    1  N   UNL     1       6.302  25.432  53.758  1.00  0.00    -0.322 N 
HETATM    2  C   UNL     1       5.118  25.483  53.057  1.00  0.00     0.253 C 
HETATM    3  O   UNL     1       4.196  24.690  53.226  1.00  0.00    -0.271 OA
HETATM    4  H   UNL     1       6.855  26.278  53.880  1.00  0.00     0.169 HD
ENDROOT
BRANCH   2   5
HETATM    5  C   UNL     1       4.988  26.617  51.985  1.00  0.00     0.275 C 
HETATM    6  C   UNL     1       6.167  26.639  50.997  1.00  0.00     0.050 C 
BRANCH   5   7
HETATM    7  N   UNL     1       4.844  28.099  52.541  1.00  0.00    -0.058 N 
HETATM    8  H   UNL     1       5.238  28.012  53.487  1.00  0.00     0.281 HD
HETATM    9  C   UNL     1       5.724  29.121  51.821  1.00  0.00     0.246 C 
HETATM   10  C   UNL     1       5.017  29.858  50.664  1.00  0.00     0.062 C 
HETATM   11  C   UNL     1       3.750  30.529  51.180  1.00  0.00     0.020 C 
HETATM   12  C   UNL     1       4.702  28.924  49.514  1.00  0.00     0.020 A 
HETATM   13  C   UNL     1       2.818  29.424  51.657  1.00  0.00     0.031 C 
HETATM   14  C   UNL     1       2.412  28.573  50.455  1.00  0.00     0.138 C 
HETATM   15  C   UNL     1       3.460  28.662  52.822  1.00  0.00     0.242 C 
HETATM   16  N   UNL     1       3.483  28.241  49.512  1.00  0.00    -0.317 N 
HETATM   17  C   UNL     1       3.133  27.340  48.493  1.00  0.00     0.247 A 
HETATM   18  O   UNL     1       2.075  26.722  48.451  1.00  0.00    -0.268 OA
HETATM   19  C   UNL     1       4.139  27.135  47.422  1.00  0.00     0.074 A 
HETATM   20  C   UNL     1       5.293  27.810  47.447  1.00  0.00     0.007 A 
HETATM   21  C   UNL     1       5.582  28.728  48.516  1.00  0.00     0.026 A 
ENDBRANCH   5   7
ENDBRANCH   2   5
BRANCH   1  22
HETATM   22  C   UNL     1       6.725  24.392  54.587  1.00  0.00     0.080 A 
HETATM   23  C   UNL     1       6.737  24.556  55.966  1.00  0.00     0.137 A 
HETATM   24  N   UNL     1       7.189  23.381  56.513  1.00  0.00    -0.349 N 
HETATM   25  H   UNL     1       7.288  23.214  57.507  1.00  0.00     0.166 HD
HETATM   26  C   UNL     1       7.509  22.476  55.531  1.00  0.00     0.045 A 
HETATM   27  C   UNL     1       7.242  23.085  54.299  1.00  0.00     0.023 A 
HETATM   28  C   UNL     1       8.027  21.180  55.656  1.00  0.00     0.033 A 
HETATM   29  C   UNL     1       7.557  22.353  53.133  1.00  0.00     0.058 A 
HETATM   30  C   UNL     1       8.070  21.060  53.249  1.00  0.00     0.117 A 
HETATM   31  C   UNL     1       8.300  20.476  54.484  1.00  0.00     0.044 A 
HETATM   32  F   UNL     1       8.355  20.369  52.136  1.00  0.00    -0.206 F 
BRANCH  23  33
HETATM   33  C   UNL     1       6.329  25.710  56.730  1.00  0.00     0.312 C 
HETATM   34  O   UNL     1       5.234  26.251  56.612  1.00  0.00    -0.258 OA
BRANCH  33  35
HETATM   35  O   UNL     1       7.321  26.084  57.580  1.00  0.00    -0.317 OA
BRANCH  35  36
HETATM   36  C   UNL     1       8.127  27.193  57.154  1.00  0.00     0.175 C 
HETATM   37  C   UNL     1       7.689  28.463  57.857  1.00  0.00     0.034 C 
ENDBRANCH  35  36
ENDBRANCH  33  35
ENDBRANCH  23  33
ENDBRANCH   1  22
TORSDOF 6
ENDMDL
MODEL 2
REMARK VINA RESULT:      -9.6      4.507      8.223
REMARK  6 active torsions:
REMARK  status: ('A' for Active; 'I' for Inactive)
REMARK    1  A    between atoms: C_2  and  O_3 
REMARK    2  A    between atoms: O_3  and  C_4 
REMARK    3  A    between atoms: C_4  and  C_5 
REMARK    4  A    between atoms: C_10  and  N_11 
REMARK       I    between atoms: N_11  and  C_12 
REMARK    5  A    between atoms: C_12  and  C_13 
REMARK    6  A    between atoms: C_13  and  N_14 
ROOT
HETATM    1  N   UNL     1       7.266  30.543  57.396  1.00  0.00    -0.322 N 
HETATM    2  C   UNL     1       7.334  29.180  57.211  1.00  0.00     0.253 C 
HETATM    3  O   UNL     1       7.000  28.363  58.065  1.00  0.00    -0.271 OA
HETATM    4  H   UNL     1       7.174  31.160  56.591  1.00  0.00     0.169 HD
ENDROOT
BRANCH   2   5
HETATM    5  C   UNL     1       7.889  28.689  55.832  1.00  0.00     0.275 C 
HETATM    6  C   UNL     1       9.275  29.271  55.507  1.00  0.00     0.050 C 
BRANCH   5   7
HETATM    7  N   UNL     1       6.976  28.975  54.563  1.00  0.00    -0.058 N 
HETATM    8  H   UNL     1       7.280  29.919  54.290  1.00  0.00     0.281 HD
HETATM    9  C   UNL     1       7.285  28.081  53.361  1.00  0.00     0.246 C 
HETATM   10  C   UNL     1       6.404  26.817  53.275  1.00  0.00     0.062 C 
HETATM   11  C   UNL     1       4.933  27.213  53.269  1.00  0.00     0.020 C 
HETATM   12  C   UNL     1       6.697  25.852  54.404  1.00  0.00     0.020 A 
HETATM   13  C   UNL     1       4.642  27.883  54.605  1.00  0.00     0.031 C 
HETATM   14  C   UNL     1       4.820  26.852  55.718  1.00  0.00     0.138 C 
HETATM   15  C   UNL     1       5.479  29.160  54.744  1.00  0.00     0.242 C 
HETATM   16  N   UNL     1       5.988  25.976  55.602  1.00  0.00    -0.317 N 
HETATM   17  C   UNL     1       6.224  25.134  56.701  1.00  0.00     0.247 A 
HETATM   18  O   UNL     1       5.624  25.208  57.768  1.00  0.00    -0.268 OA
HETATM   19  C   UNL     1       7.284  24.110  56.530  1.00  0.00     0.074 A 
HETATM   20  C   UNL     1       7.938  24.009  55.368  1.00  0.00     0.007 A 
HETATM   21  C   UNL     1       7.638  24.898  54.278  1.00  0.00     0.026 A 
ENDBRANCH   5   7
ENDBRANCH   2   5
BRANCH   1  22
HETATM   22  C   UNL     1       7.022  31.200  58.603  1.00  0.00     0.080 A 
HETATM   23  C   UNL     1       6.011  32.149  58.693  1.00  0.00     0.137 A 
HETATM   24  N   UNL     1       6.002  32.615  59.984  1.00  0.00    -0.349 N 
HETATM   25  H   UNL     1       5.356  33.311  60.335  1.00  0.00     0.166 HD
HETATM   26  C   UNL     1       7.001  32.030  60.721  1.00  0.00     0.045 A 
HETATM   27  C   UNL     1       7.676  31.138  59.878  1.00  0.00     0.023 A 
HETATM   28  C   UNL     1       7.354  32.244  62.061  1.00  0.00     0.033 A 
HETATM   29  C   UNL     1       8.793  30.461  60.413  1.00  0.00     0.058 A 
HETATM   30  C   UNL     1       9.150  30.666  61.748  1.00  0.00     0.117 A 
HETATM   31  C   UNL     1       8.445  31.536  62.564  1.00  0.00     0.044 A 
HETATM   32  F   UNL     1      10.205  30.009  62.249  1.00  0.00    -0.206 F 
BRANCH  23  33
HETATM   33  C   UNL     1       5.094  32.574  57.663  1.00  0.00     0.312 C 
HETATM   34  O   UNL     1       5.429  33.233  56.684  1.00  0.00    -0.258 OA
BRANCH  33  35
HETATM   35  O   UNL     1       3.840  32.131  57.940  1.00  0.00    -0.317 OA
BRANCH  35  36
HETATM   36  C   UNL     1       3.431  30.935  57.258  1.00  0.00     0.175 C 
HETATM   37  C   UNL     1       2.707  31.285  55.972  1.00  0.00     0.034 C 
ENDBRANCH  35  36
ENDBRANCH  33  35
ENDBRANCH  23  33
ENDBRANCH   1  22
TORSDOF 6
ENDMDL
MODEL 3
REMARK VINA RESULT:      -9.4      7.396     10.955
REMARK  6 active torsions:
REMARK  status: ('A' for Active; 'I' for Inactive)
REMARK    1  A    between atoms: C_2  and  O_3 
REMARK    2  A    between atoms: O_3  and  C_4 
REMARK    3  A    between atoms: C_4  and  C_5 
REMARK    4  A    between atoms: C_10  and  N_11 
REMARK       I    between atoms: N_11  and  C_12 
REMARK    5  A    between atoms: C_12  and  C_13 
REMARK    6  A    between atoms: C_13  and  N_14 
ROOT
HETATM    1  N   UNL     1       6.479  31.349  59.554  1.00  0.00    -0.322 N 
HETATM    2  C   UNL     1       5.906  32.577  59.303  1.00  0.00     0.253 C 
HETATM    3  O   UNL     1       5.790  33.052  58.177  1.00  0.00    -0.271 OA
HETATM    4  H   UNL     1       6.222  30.833  60.392  1.00  0.00     0.169 HD
ENDROOT
BRANCH   2   5
HETATM    5  C   UNL     1       5.407  33.383  60.548  1.00  0.00     0.275 C 
HETATM    6  C   UNL     1       6.401  33.340  61.722  1.00  0.00     0.050 C 
BRANCH   5   7
HETATM    7  N   UNL     1       3.996  32.959  61.143  1.00  0.00    -0.058 N 
HETATM    8  H   UNL     1       4.028  31.935  61.062  1.00  0.00     0.281 HD
HETATM    9  C   UNL     1       3.839  33.248  62.637  1.00  0.00     0.246 C 
HETATM   10  C   UNL     1       3.173  34.605  62.949  1.00  0.00     0.062 C 
HETATM   11  C   UNL     1       1.820  34.686  62.255  1.00  0.00     0.020 C 
HETATM   12  C   UNL     1       4.056  35.767  62.547  1.00  0.00     0.020 A 
HETATM   13  C   UNL     1       2.079  34.638  60.756  1.00  0.00     0.031 C 
HETATM   14  C   UNL     1       2.861  35.889  60.355  1.00  0.00     0.138 C 
HETATM   15  C   UNL     1       2.728  33.302  60.378  1.00  0.00     0.242 C 
HETATM   16  N   UNL     1       3.949  36.281  61.252  1.00  0.00    -0.317 N 
HETATM   17  C   UNL     1       4.752  37.342  60.801  1.00  0.00     0.247 A 
HETATM   18  O   UNL     1       4.690  37.822  59.674  1.00  0.00    -0.268 OA
HETATM   19  C   UNL     1       5.738  37.879  61.770  1.00  0.00     0.074 A 
HETATM   20  C   UNL     1       5.810  37.373  63.005  1.00  0.00     0.007 A 
HETATM   21  C   UNL     1       4.948  36.293  63.406  1.00  0.00     0.026 A 
ENDBRANCH   5   7
ENDBRANCH   2   5
BRANCH   1  22
HETATM   22  C   UNL     1       7.186  30.567  58.640  1.00  0.00     0.080 A 
HETATM   23  C   UNL     1       8.553  30.752  58.470  1.00  0.00     0.137 A 
HETATM   24  N   UNL     1       8.971  29.850  57.524  1.00  0.00    -0.349 N 
HETATM   25  H   UNL     1       9.930  29.755  57.210  1.00  0.00     0.166 HD
HETATM   26  C   UNL     1       7.914  29.117  57.045  1.00  0.00     0.045 A 
HETATM   27  C   UNL     1       6.765  29.552  57.718  1.00  0.00     0.023 A 
HETATM   28  C   UNL     1       7.901  28.119  56.060  1.00  0.00     0.033 A 
HETATM   29  C   UNL     1       5.535  28.972  57.340  1.00  0.00     0.058 A 
HETATM   30  C   UNL     1       5.514  27.976  56.362  1.00  0.00     0.117 A 
HETATM   31  C   UNL     1       6.672  27.549  55.732  1.00  0.00     0.044 A 
HETATM   32  F   UNL     1       4.342  27.424  56.019  1.00  0.00    -0.206 F 
BRANCH  23  33
HETATM   33  C   UNL     1       9.419  31.677  59.158  1.00  0.00     0.312 C 
HETATM   34  O   UNL     1      10.303  32.322  58.604  1.00  0.00    -0.258 OA
BRANCH  33  35
HETATM   35  O   UNL     1       9.100  31.724  60.478  1.00  0.00    -0.317 OA
BRANCH  35  36
HETATM   36  C   UNL     1       9.491  30.585  61.260  1.00  0.00     0.175 C 
HETATM   37  C   UNL     1       8.688  30.529  62.546  1.00  0.00     0.034 C 
ENDBRANCH  35  36
ENDBRANCH  33  35
ENDBRANCH  23  33
ENDBRANCH   1  22
TORSDOF 6
ENDMDL
MODEL 4
REMARK VINA RESULT:      -9.3      2.026      3.350
REMARK  6 active torsions:
REMARK  status: ('A' for Active; 'I' for Inactive)
REMARK    1  A    between atoms: C_2  and  O_3 
REMARK    2  A    between atoms: O_3  and  C_4 
REMARK    3  A    between atoms: C_4  and  C_5 
REMARK    4  A    between atoms: C_10  and  N_11 
REMARK       I    between atoms: N_11  and  C_12 
REMARK    5  A    between atoms: C_12  and  C_13 
REMARK    6  A    between atoms: C_13  and  N_14 
ROOT
HETATM    1  N   UNL     1       4.697  26.638  53.439  1.00  0.00    -0.322 N 
HETATM    2  C   UNL     1       5.158  27.231  52.284  1.00  0.00     0.253 C 
HETATM    3  O   UNL     1       6.288  27.056  51.837  1.00  0.00    -0.271 OA
HETATM    4  H   UNL     1       3.698  26.489  53.568  1.00  0.00     0.169 HD
ENDROOT
BRANCH   2   5
HETATM    5  C   UNL     1       4.162  28.185  51.543  1.00  0.00     0.275 C 
HETATM    6  C   UNL     1       3.049  28.715  52.464  1.00  0.00     0.050 C 
BRANCH   5   7
HETATM    7  N   UNL     1       3.433  27.587  50.263  1.00  0.00    -0.058 N 
HETATM    8  H   UNL     1       3.111  26.674  50.608  1.00  0.00     0.281 HD
HETATM    9  C   UNL     1       2.168  28.344  49.858  1.00  0.00     0.246 C 
HETATM   10  C   UNL     1       2.400  29.432  48.788  1.00  0.00     0.062 C 
HETATM   11  C   UNL     1       3.056  28.814  47.560  1.00  0.00     0.020 C 
HETATM   12  C   UNL     1       3.232  30.578  49.325  1.00  0.00     0.020 A 
HETATM   13  C   UNL     1       4.422  28.298  47.991  1.00  0.00     0.031 C 
HETATM   14  C   UNL     1       5.286  29.488  48.406  1.00  0.00     0.138 C 
HETATM   15  C   UNL     1       4.258  27.198  49.047  1.00  0.00     0.242 C 
HETATM   16  N   UNL     1       4.624  30.510  49.220  1.00  0.00    -0.317 N 
HETATM   17  C   UNL     1       5.460  31.523  49.717  1.00  0.00     0.247 A 
HETATM   18  O   UNL     1       6.684  31.504  49.644  1.00  0.00    -0.268 OA
HETATM   19  C   UNL     1       4.787  32.666  50.382  1.00  0.00     0.074 A 
HETATM   20  C   UNL     1       3.453  32.706  50.459  1.00  0.00     0.007 A 
HETATM   21  C   UNL     1       2.655  31.639  49.917  1.00  0.00     0.026 A 
ENDBRANCH   5   7
ENDBRANCH   2   5
BRANCH   1  22
HETATM   22  C   UNL     1       5.467  25.941  54.371  1.00  0.00     0.080 A 
HETATM   23  C   UNL     1       5.577  26.406  55.676  1.00  0.00     0.137 A 
HETATM   24  N   UNL     1       6.382  25.526  56.356  1.00  0.00    -0.349 N 
HETATM   25  H   UNL     1       6.625  25.614  57.335  1.00  0.00     0.166 HD
HETATM   26  C   UNL     1       6.829  24.529  55.524  1.00  0.00     0.045 A 
HETATM   27  C   UNL     1       6.281  24.766  54.257  1.00  0.00     0.023 A 
HETATM   28  C   UNL     1       7.685  23.456  55.807  1.00  0.00     0.033 A 
HETATM   29  C   UNL     1       6.658  23.891  53.215  1.00  0.00     0.058 A 
HETATM   30  C   UNL     1       7.508  22.818  53.489  1.00  0.00     0.117 A 
HETATM   31  C   UNL     1       8.013  22.595  54.761  1.00  0.00     0.044 A 
HETATM   32  F   UNL     1       7.850  21.986  52.496  1.00  0.00    -0.206 F 
BRANCH  23  33
HETATM   33  C   UNL     1       4.957  27.569  56.263  1.00  0.00     0.312 C 
HETATM   34  O   UNL     1       4.025  28.176  55.747  1.00  0.00    -0.258 OA
BRANCH  33  35
HETATM   35  O   UNL     1       5.549  27.867  57.449  1.00  0.00    -0.317 OA
BRANCH  35  36
HETATM   36  C   UNL     1       6.388  29.032  57.457  1.00  0.00     0.175 C 
HETATM   37  C   UNL     1       7.793  28.666  57.896  1.00  0.00     0.034 C 
ENDBRANCH  35  36
ENDBRANCH  33  35
ENDBRANCH  23  33
ENDBRANCH   1  22
TORSDOF 6
ENDMDL
MODEL 5
REMARK VINA RESULT:      -9.3      1.966      2.597
REMARK  6 active torsions:
REMARK  status: ('A' for Active; 'I' for Inactive)
REMARK    1  A    between atoms: C_2  and  O_3 
REMARK    2  A    between atoms: O_3  and  C_4 
REMARK    3  A    between atoms: C_4  and  C_5 
REMARK    4  A    between atoms: C_10  and  N_11 
REMARK       I    between atoms: N_11  and  C_12 
REMARK    5  A    between atoms: C_12  and  C_13 
REMARK    6  A    between atoms: C_13  and  N_14 
ROOT
HETATM    1  N   UNL     1       6.520  26.564  52.309  1.00  0.00    -0.322 N 
HETATM    2  C   UNL     1       5.184  26.770  52.043  1.00  0.00     0.253 C 
HETATM    3  O   UNL     1       4.291  26.565  52.861  1.00  0.00    -0.271 OA
HETATM    4  H   UNL     1       7.225  27.083  51.790  1.00  0.00     0.169 HD
ENDROOT
BRANCH   2   5
HETATM    5  C   UNL     1       4.827  27.274  50.605  1.00  0.00     0.275 C 
HETATM    6  C   UNL     1       4.753  26.133  49.576  1.00  0.00     0.050 C 
BRANCH   5   7
HETATM    7  N   UNL     1       5.793  28.373  49.983  1.00  0.00    -0.058 N 
HETATM    8  H   UNL     1       6.715  28.055  50.309  1.00  0.00     0.281 HD
HETATM    9  C   UNL     1       5.865  28.344  48.456  1.00  0.00     0.246 C 
HETATM   10  C   UNL     1       4.885  29.314  47.762  1.00  0.00     0.062 C 
HETATM   11  C   UNL     1       5.116  30.731  48.270  1.00  0.00     0.020 C 
HETATM   12  C   UNL     1       3.444  28.896  47.966  1.00  0.00     0.020 A 
HETATM   13  C   UNL     1       4.787  30.735  49.757  1.00  0.00     0.031 C 
HETATM   14  C   UNL     1       3.298  30.437  49.929  1.00  0.00     0.138 C 
HETATM   15  C   UNL     1       5.741  29.798  50.507  1.00  0.00     0.242 C 
HETATM   16  N   UNL     1       2.753  29.373  49.083  1.00  0.00    -0.317 N 
HETATM   17  C   UNL     1       1.424  29.009  49.351  1.00  0.00     0.247 A 
HETATM   18  O   UNL     1       0.782  29.405  50.318  1.00  0.00    -0.268 OA
HETATM   19  C   UNL     1       0.792  28.070  48.391  1.00  0.00     0.074 A 
HETATM   20  C   UNL     1       1.476  27.639  47.326  1.00  0.00     0.007 A 
HETATM   21  C   UNL     1       2.833  28.062  47.105  1.00  0.00     0.026 A 
ENDBRANCH   5   7
ENDBRANCH   2   5
BRANCH   1  22
HETATM   22  C   UNL     1       7.048  25.914  53.426  1.00  0.00     0.080 A 
HETATM   23  C   UNL     1       7.360  26.634  54.572  1.00  0.00     0.137 A 
HETATM   24  N   UNL     1       7.848  25.741  55.493  1.00  0.00    -0.349 N 
HETATM   25  H   UNL     1       8.146  25.991  56.429  1.00  0.00     0.166 HD
HETATM   26  C   UNL     1       7.901  24.474  54.967  1.00  0.00     0.045 A 
HETATM   27  C   UNL     1       7.414  24.547  53.655  1.00  0.00     0.023 A 
HETATM   28  C   UNL     1       8.357  23.288  55.557  1.00  0.00     0.033 A 
HETATM   29  C   UNL     1       7.432  23.359  52.892  1.00  0.00     0.058 A 
HETATM   30  C   UNL     1       7.882  22.172  53.474  1.00  0.00     0.117 A 
HETATM   31  C   UNL     1       8.334  22.128  54.783  1.00  0.00     0.044 A 
HETATM   32  F   UNL     1       7.885  21.048  52.744  1.00  0.00    -0.206 F 
BRANCH  23  33
HETATM   33  C   UNL     1       7.191  28.046  54.811  1.00  0.00     0.312 C 
HETATM   34  O   UNL     1       6.099  28.585  54.961  1.00  0.00    -0.258 OA
BRANCH  33  35
HETATM   35  O   UNL     1       8.401  28.663  54.851  1.00  0.00    -0.317 OA
BRANCH  35  36
HETATM   36  C   UNL     1       8.762  29.258  56.106  1.00  0.00     0.175 C 
HETATM   37  C   UNL     1      10.210  29.707  56.079  1.00  0.00     0.034 C 
ENDBRANCH  35  36
ENDBRANCH  33  35
ENDBRANCH  23  33
ENDBRANCH   1  22
TORSDOF 6
ENDMDL
MODEL 6
REMARK VINA RESULT:      -9.0      7.907     12.006
REMARK  6 active torsions:
REMARK  status: ('A' for Active; 'I' for Inactive)
REMARK    1  A    between atoms: C_2  and  O_3 
REMARK    2  A    between atoms: O_3  and  C_4 
REMARK    3  A    between atoms: C_4  and  C_5 
REMARK    4  A    between atoms: C_10  and  N_11 
REMARK       I    between atoms: N_11  and  C_12 
REMARK    5  A    between atoms: C_12  and  C_13 
REMARK    6  A    between atoms: C_13  and  N_14 
ROOT
HETATM    1  N   UNL     1       6.203  32.483  60.166  1.00  0.00    -0.322 N 
HETATM    2  C   UNL     1       6.643  32.158  61.431  1.00  0.00     0.253 C 
HETATM    3  O   UNL     1       7.312  31.159  61.679  1.00  0.00    -0.271 OA
HETATM    4  H   UNL     1       6.007  33.454  59.932  1.00  0.00     0.169 HD
ENDROOT
BRANCH   2   5
HETATM    5  C   UNL     1       6.233  33.132  62.585  1.00  0.00     0.275 C 
HETATM    6  C   UNL     1       7.365  33.359  63.602  1.00  0.00     0.050 C 
BRANCH   5   7
HETATM    7  N   UNL     1       4.950  32.724  63.430  1.00  0.00    -0.058 N 
HETATM    8  H   UNL     1       5.180  31.764  63.718  1.00  0.00     0.281 HD
HETATM    9  C   UNL     1       4.785  33.513  64.729  1.00  0.00     0.246 C 
HETATM   10  C   UNL     1       3.876  34.754  64.601  1.00  0.00     0.062 C 
HETATM   11  C   UNL     1       2.512  34.339  64.063  1.00  0.00     0.020 C 
HETATM   12  C   UNL     1       4.501  35.818  63.724  1.00  0.00     0.020 A 
HETATM   13  C   UNL     1       2.731  33.786  62.661  1.00  0.00     0.031 C 
HETATM   14  C   UNL     1       3.240  34.912  61.764  1.00  0.00     0.138 C 
HETATM   15  C   UNL     1       3.618  32.536  62.724  1.00  0.00     0.242 C 
HETATM   16  N   UNL     1       4.257  35.790  62.348  1.00  0.00    -0.317 N 
HETATM   17  C   UNL     1       4.823  36.728  61.470  1.00  0.00     0.247 A 
HETATM   18  O   UNL     1       4.634  36.740  60.258  1.00  0.00    -0.268 OA
HETATM   19  C   UNL     1       5.713  37.746  62.079  1.00  0.00     0.074 A 
HETATM   20  C   UNL     1       5.920  37.753  63.400  1.00  0.00     0.007 A 
HETATM   21  C   UNL     1       5.298  36.769  64.244  1.00  0.00     0.026 A 
ENDBRANCH   5   7
ENDBRANCH   2   5
BRANCH   1  22
HETATM   22  C   UNL     1       6.253  31.661  59.040  1.00  0.00     0.080 A 
HETATM   23  C   UNL     1       5.085  31.323  58.367  1.00  0.00     0.137 A 
HETATM   24  N   UNL     1       5.441  30.520  57.312  1.00  0.00    -0.349 N 
HETATM   25  H   UNL     1       4.786  30.134  56.642  1.00  0.00     0.166 HD
HETATM   26  C   UNL     1       6.795  30.294  57.303  1.00  0.00     0.045 A 
HETATM   27  C   UNL     1       7.341  30.989  58.390  1.00  0.00     0.023 A 
HETATM   28  C   UNL     1       7.558  29.515  56.422  1.00  0.00     0.033 A 
HETATM   29  C   UNL     1       8.728  30.850  58.616  1.00  0.00     0.058 A 
HETATM   30  C   UNL     1       9.495  30.079  57.741  1.00  0.00     0.117 A 
HETATM   31  C   UNL     1       8.928  29.424  56.660  1.00  0.00     0.044 A 
HETATM   32  F   UNL     1      10.812  29.963  57.958  1.00  0.00    -0.206 F 
BRANCH  23  33
HETATM   33  C   UNL     1       3.735  31.738  58.661  1.00  0.00     0.312 C 
HETATM   34  O   UNL     1       3.080  31.304  59.603  1.00  0.00    -0.258 OA
BRANCH  33  35
HETATM   35  O   UNL     1       3.324  32.667  57.759  1.00  0.00    -0.317 OA
BRANCH  35  36
HETATM   36  C   UNL     1       3.481  34.038  58.153  1.00  0.00     0.175 C 
HETATM   37  C   UNL     1       4.511  34.723  57.274  1.00  0.00     0.034 C 
ENDBRANCH  35  36
ENDBRANCH  33  35
ENDBRANCH  23  33
ENDBRANCH   1  22
TORSDOF 6
ENDMDL
MODEL 7
REMARK VINA RESULT:      -8.8      2.723      4.672
REMARK  6 active torsions:
REMARK  status: ('A' for Active; 'I' for Inactive)
REMARK    1  A    between atoms: C_2  and  O_3 
REMARK    2  A    between atoms: O_3  and  C_4 
REMARK    3  A    between atoms: C_4  and  C_5 
REMARK    4  A    between atoms: C_10  and  N_11 
REMARK       I    between atoms: N_11  and  C_12 
REMARK    5  A    between atoms: C_12  and  C_13 
REMARK    6  A    between atoms: C_13  and  N_14 
ROOT
HETATM    1  N   UNL     1       6.484  27.086  52.694  1.00  0.00    -0.322 N 
HETATM    2  C   UNL     1       5.186  27.380  52.336  1.00  0.00     0.253 C 
HETATM    3  O   UNL     1       4.277  27.530  53.148  1.00  0.00    -0.271 OA
HETATM    4  H   UNL     1       7.250  27.344  52.076  1.00  0.00     0.169 HD
ENDROOT
BRANCH   2   5
HETATM    5  C   UNL     1       4.895  27.505  50.803  1.00  0.00     0.275 C 
HETATM    6  C   UNL     1       4.992  26.157  50.069  1.00  0.00     0.050 C 
BRANCH   5   7
HETATM    7  N   UNL     1       5.810  28.521  49.992  1.00  0.00    -0.058 N 
HETATM    8  H   UNL     1       6.743  28.320  50.374  1.00  0.00     0.281 HD
HETATM    9  C   UNL     1       5.902  28.215  48.497  1.00  0.00     0.246 C 
HETATM   10  C   UNL     1       4.882  28.986  47.632  1.00  0.00     0.062 C 
HETATM   11  C   UNL     1       5.031  30.483  47.871  1.00  0.00     0.020 C 
HETATM   12  C   UNL     1       3.462  28.535  47.906  1.00  0.00     0.020 A 
HETATM   13  C   UNL     1       4.683  30.742  49.331  1.00  0.00     0.031 C 
HETATM   14  C   UNL     1       3.210  30.401  49.550  1.00  0.00     0.138 C 
HETATM   15  C   UNL     1       5.675  30.014  50.244  1.00  0.00     0.242 C 
HETATM   16  N   UNL     1       2.733  29.171  48.915  1.00  0.00    -0.317 N 
HETATM   17  C   UNL     1       1.421  28.791  49.241  1.00  0.00     0.247 A 
HETATM   18  O   UNL     1       0.747  29.322  50.117  1.00  0.00    -0.268 OA
HETATM   19  C   UNL     1       0.853  27.659  48.469  1.00  0.00     0.074 A 
HETATM   20  C   UNL     1       1.572  27.076  47.504  1.00  0.00     0.007 A 
HETATM   21  C   UNL     1       2.907  27.525  47.213  1.00  0.00     0.026 A 
ENDBRANCH   5   7
ENDBRANCH   2   5
BRANCH   1  22
HETATM   22  C   UNL     1       6.924  26.712  53.964  1.00  0.00     0.080 A 
HETATM   23  C   UNL     1       7.160  25.374  54.258  1.00  0.00     0.137 A 
HETATM   24  N   UNL     1       7.583  25.312  55.562  1.00  0.00    -0.349 N 
HETATM   25  H   UNL     1       7.838  24.456  56.040  1.00  0.00     0.166 HD
HETATM   26  C   UNL     1       7.589  26.559  56.135  1.00  0.00     0.045 A 
HETATM   27  C   UNL     1       7.164  27.469  55.158  1.00  0.00     0.023 A 
HETATM   28  C   UNL     1       7.923  26.932  57.445  1.00  0.00     0.033 A 
HETATM   29  C   UNL     1       7.034  28.821  55.546  1.00  0.00     0.058 A 
HETATM   30  C   UNL     1       7.368  29.200  56.847  1.00  0.00     0.117 A 
HETATM   31  C   UNL     1       7.809  28.279  57.784  1.00  0.00     0.044 A 
HETATM   32  F   UNL     1       7.251  30.488  57.201  1.00  0.00    -0.206 F 
BRANCH  23  33
HETATM   33  C   UNL     1       7.033  24.235  53.383  1.00  0.00     0.312 C 
HETATM   34  O   UNL     1       6.079  24.055  52.634  1.00  0.00    -0.258 OA
BRANCH  33  35
HETATM   35  O   UNL     1       8.114  23.421  53.513  1.00  0.00    -0.317 OA
BRANCH  35  36
HETATM   36  C   UNL     1       7.854  22.110  54.037  1.00  0.00     0.175 C 
HETATM   37  C   UNL     1       8.035  21.065  52.953  1.00  0.00     0.034 C 
ENDBRANCH  35  36
ENDBRANCH  33  35
ENDBRANCH  23  33
ENDBRANCH   1  22
TORSDOF 6
ENDMDL
MODEL 8
REMARK VINA RESULT:      -8.7      7.390     10.792
REMARK  6 active torsions:
REMARK  status: ('A' for Active; 'I' for Inactive)
REMARK    1  A    between atoms: C_2  and  O_3 
REMARK    2  A    between atoms: O_3  and  C_4 
REMARK    3  A    between atoms: C_4  and  C_5 
REMARK    4  A    between atoms: C_10  and  N_11 
REMARK       I    between atoms: N_11  and  C_12 
REMARK    5  A    between atoms: C_12  and  C_13 
REMARK    6  A    between atoms: C_13  and  N_14 
ROOT
HETATM    1  N   UNL     1       5.672  31.352  59.104  1.00  0.00    -0.322 N 
HETATM    2  C   UNL     1       5.285  32.580  58.613  1.00  0.00     0.253 C 
HETATM    3  O   UNL     1       5.724  33.062  57.572  1.00  0.00    -0.271 OA
HETATM    4  H   UNL     1       5.044  30.830  59.712  1.00  0.00     0.169 HD
ENDROOT
BRANCH   2   5
HETATM    5  C   UNL     1       4.242  33.377  59.465  1.00  0.00     0.275 C 
HETATM    6  C   UNL     1       3.149  32.475  60.063  1.00  0.00     0.050 C 
BRANCH   5   7
HETATM    7  N   UNL     1       3.486  34.564  58.726  1.00  0.00    -0.058 N 
HETATM    8  H   UNL     1       3.429  34.212  57.761  1.00  0.00     0.281 HD
HETATM    9  C   UNL     1       2.039  34.757  59.180  1.00  0.00     0.246 C 
HETATM   10  C   UNL     1       1.865  35.807  60.298  1.00  0.00     0.062 C 
HETATM   11  C   UNL     1       2.455  37.138  59.851  1.00  0.00     0.020 C 
HETATM   12  C   UNL     1       2.490  35.349  61.599  1.00  0.00     0.020 A 
HETATM   13  C   UNL     1       3.950  36.923  59.654  1.00  0.00     0.031 C 
HETATM   14  C   UNL     1       4.579  36.589  61.005  1.00  0.00     0.138 C 
HETATM   15  C   UNL     1       4.190  35.898  58.539  1.00  0.00     0.242 C 
HETATM   16  N   UNL     1       3.832  35.652  61.848  1.00  0.00    -0.317 N 
HETATM   17  C   UNL     1       4.486  35.240  63.020  1.00  0.00     0.247 A 
HETATM   18  O   UNL     1       5.659  35.485  63.278  1.00  0.00    -0.268 OA
HETATM   19  C   UNL     1       3.680  34.444  63.978  1.00  0.00     0.074 A 
HETATM   20  C   UNL     1       2.396  34.177  63.716  1.00  0.00     0.007 A 
HETATM   21  C   UNL     1       1.785  34.642  62.500  1.00  0.00     0.026 A 
ENDBRANCH   5   7
ENDBRANCH   2   5
BRANCH   1  22
HETATM   22  C   UNL     1       6.736  30.578  58.641  1.00  0.00     0.080 A 
HETATM   23  C   UNL     1       8.036  30.863  59.042  1.00  0.00     0.137 A 
HETATM   24  N   UNL     1       8.859  29.944  58.441  1.00  0.00    -0.349 N 
HETATM   25  H   UNL     1       9.864  29.909  58.566  1.00  0.00     0.166 HD
HETATM   26  C   UNL     1       8.140  29.099  57.632  1.00  0.00     0.045 A 
HETATM   27  C   UNL     1       6.795  29.478  57.723  1.00  0.00     0.023 A 
HETATM   28  C   UNL     1       8.594  28.047  56.823  1.00  0.00     0.033 A 
HETATM   29  C   UNL     1       5.870  28.778  56.918  1.00  0.00     0.058 A 
HETATM   30  C   UNL     1       6.313  27.727  56.113  1.00  0.00     0.117 A 
HETATM   31  C   UNL     1       7.648  27.360  56.064  1.00  0.00     0.044 A 
HETATM   32  F   UNL     1       5.425  27.061  55.362  1.00  0.00    -0.206 F 
BRANCH  23  33
HETATM   33  C   UNL     1       8.484  31.896  59.944  1.00  0.00     0.312 C 
HETATM   34  O   UNL     1       9.331  32.734  59.653  1.00  0.00    -0.258 OA
BRANCH  33  35
HETATM   35  O   UNL     1       7.827  31.799  61.130  1.00  0.00    -0.317 OA
BRANCH  35  36
HETATM   36  C   UNL     1       8.638  31.928  62.308  1.00  0.00     0.175 C 
HETATM   37  C   UNL     1       7.835  32.552  63.433  1.00  0.00     0.034 C 
ENDBRANCH  35  36
ENDBRANCH  33  35
ENDBRANCH  23  33
ENDBRANCH   1  22
TORSDOF 6
ENDMDL
MODEL 9
REMARK VINA RESULT:      -8.5      8.777     13.223
REMARK  6 active torsions:
REMARK  status: ('A' for Active; 'I' for Inactive)
REMARK    1  A    between atoms: C_2  and  O_3 
REMARK    2  A    between atoms: O_3  and  C_4 
REMARK    3  A    between atoms: C_4  and  C_5 
REMARK    4  A    between atoms: C_10  and  N_11 
REMARK       I    between atoms: N_11  and  C_12 
REMARK    5  A    between atoms: C_12  and  C_13 
REMARK    6  A    between atoms: C_13  and  N_14 
ROOT
HETATM    1  N   UNL     1       4.892  33.510  60.449  1.00  0.00    -0.322 N 
HETATM    2  C   UNL     1       4.290  33.385  61.682  1.00  0.00     0.253 C 
HETATM    3  O   UNL     1       4.510  32.455  62.452  1.00  0.00    -0.271 OA
HETATM    4  H   UNL     1       4.993  34.430  60.025  1.00  0.00     0.169 HD
ENDROOT
BRANCH   2   5
HETATM    5  C   UNL     1       3.264  34.500  62.075  1.00  0.00     0.275 C 
HETATM    6  C   UNL     1       1.891  34.307  61.409  1.00  0.00     0.050 C 
BRANCH   5   7
HETATM    7  N   UNL     1       3.700  35.999  61.770  1.00  0.00    -0.058 N 
HETATM    8  H   UNL     1       3.173  36.204  60.911  1.00  0.00     0.281 HD
HETATM    9  C   UNL     1       3.209  37.011  62.805  1.00  0.00     0.246 C 
HETATM   10  C   UNL     1       4.228  37.310  63.926  1.00  0.00     0.062 C 
HETATM   11  C   UNL     1       5.542  37.780  63.314  1.00  0.00     0.020 C 
HETATM   12  C   UNL     1       4.449  36.107  64.818  1.00  0.00     0.020 A 
HETATM   13  C   UNL     1       6.094  36.625  62.490  1.00  0.00     0.031 C 
HETATM   14  C   UNL     1       6.429  35.469  63.432  1.00  0.00     0.138 C 
HETATM   15  C   UNL     1       5.130  36.290  61.346  1.00  0.00     0.242 C 
HETATM   16  N   UNL     1       5.446  35.188  64.480  1.00  0.00    -0.317 N 
HETATM   17  C   UNL     1       5.691  34.036  65.246  1.00  0.00     0.247 A 
HETATM   18  O   UNL     1       6.556  33.207  64.985  1.00  0.00    -0.268 OA
HETATM   19  C   UNL     1       4.819  33.834  66.428  1.00  0.00     0.074 A 
HETATM   20  C   UNL     1       3.879  34.736  66.731  1.00  0.00     0.007 A 
HETATM   21  C   UNL     1       3.690  35.901  65.909  1.00  0.00     0.026 A 
ENDBRANCH   5   7
ENDBRANCH   2   5
BRANCH   1  22
HETATM   22  C   UNL     1       5.654  32.537  59.802  1.00  0.00     0.080 A 
HETATM   23  C   UNL     1       5.083  31.736  58.821  1.00  0.00     0.137 A 
HETATM   24  N   UNL     1       6.061  30.888  58.366  1.00  0.00    -0.349 N 
HETATM   25  H   UNL     1       5.925  30.197  57.638  1.00  0.00     0.166 HD
HETATM   26  C   UNL     1       7.236  31.085  59.048  1.00  0.00     0.045 A 
HETATM   27  C   UNL     1       7.014  32.112  59.975  1.00  0.00     0.023 A 
HETATM   28  C   UNL     1       8.461  30.416  58.916  1.00  0.00     0.033 A 
HETATM   29  C   UNL     1       8.080  32.447  60.838  1.00  0.00     0.058 A 
HETATM   30  C   UNL     1       9.303  31.787  60.710  1.00  0.00     0.117 A 
HETATM   31  C   UNL     1       9.500  30.792  59.766  1.00  0.00     0.044 A 
HETATM   32  F   UNL     1      10.312  32.121  61.527  1.00  0.00    -0.206 F 
BRANCH  23  33
HETATM   33  C   UNL     1       3.731  31.772  58.317  1.00  0.00     0.312 C 
HETATM   34  O   UNL     1       3.068  30.769  58.075  1.00  0.00    -0.258 OA
BRANCH  33  35
HETATM   35  O   UNL     1       3.322  33.059  58.168  1.00  0.00    -0.317 OA
BRANCH  35  36
HETATM   36  C   UNL     1       3.290  33.555  56.821  1.00  0.00     0.175 C 
HETATM   37  C   UNL     1       4.540  34.362  56.527  1.00  0.00     0.034 C 
ENDBRANCH  35  36
ENDBRANCH  33  35
ENDBRANCH  23  33
ENDBRANCH   1  22
TORSDOF 6
ENDMDL
MODEL 10
REMARK VINA RESULT:      -8.3      2.980      5.241
REMARK  6 active torsions:
REMARK  status: ('A' for Active; 'I' for Inactive)
REMARK    1  A    between atoms: C_2  and  O_3 
REMARK    2  A    between atoms: O_3  and  C_4 
REMARK    3  A    between atoms: C_4  and  C_5 
REMARK    4  A    between atoms: C_10  and  N_11 
REMARK       I    between atoms: N_11  and  C_12 
REMARK    5  A    between atoms: C_12  and  C_13 
REMARK    6  A    between atoms: C_13  and  N_14 
ROOT
HETATM    1  N   UNL     1       5.410  28.221  52.863  1.00  0.00    -0.322 N 
HETATM    2  C   UNL     1       4.044  28.335  52.726  1.00  0.00     0.253 C 
HETATM    3  O   UNL     1       3.248  28.045  53.614  1.00  0.00    -0.271 OA
HETATM    4  H   UNL     1       6.026  28.804  52.300  1.00  0.00     0.169 HD
ENDROOT
BRANCH   2   5
HETATM    5  C   UNL     1       3.521  28.849  51.343  1.00  0.00     0.275 C 
HETATM    6  C   UNL     1       2.189  29.610  51.456  1.00  0.00     0.050 C 
BRANCH   5   7
HETATM    7  N   UNL     1       3.311  27.748  50.215  1.00  0.00    -0.058 N 
HETATM    8  H   UNL     1       2.824  27.004  50.731  1.00  0.00     0.281 HD
HETATM    9  C   UNL     1       2.352  28.173  49.103  1.00  0.00     0.246 C 
HETATM   10  C   UNL     1       3.050  28.797  47.875  1.00  0.00     0.062 C 
HETATM   11  C   UNL     1       4.091  27.829  47.328  1.00  0.00     0.020 C 
HETATM   12  C   UNL     1       3.678  30.134  48.207  1.00  0.00     0.020 A 
HETATM   13  C   UNL     1       5.147  27.646  48.409  1.00  0.00     0.031 C 
HETATM   14  C   UNL     1       5.855  28.981  48.634  1.00  0.00     0.138 C 
HETATM   15  C   UNL     1       4.517  27.012  49.655  1.00  0.00     0.242 C 
HETATM   16  N   UNL     1       4.995  30.165  48.675  1.00  0.00    -0.317 N 
HETATM   17  C   UNL     1       5.634  31.365  49.026  1.00  0.00     0.247 A 
HETATM   18  O   UNL     1       6.787  31.437  49.439  1.00  0.00    -0.268 OA
HETATM   19  C   UNL     1       4.829  32.604  48.893  1.00  0.00     0.074 A 
HETATM   20  C   UNL     1       3.575  32.543  48.433  1.00  0.00     0.007 A 
HETATM   21  C   UNL     1       2.984  31.280  48.080  1.00  0.00     0.026 A 
ENDBRANCH   5   7
ENDBRANCH   2   5
BRANCH   1  22
HETATM   22  C   UNL     1       6.083  27.584  53.906  1.00  0.00     0.080 A 
HETATM   23  C   UNL     1       6.269  26.207  53.882  1.00  0.00     0.137 A 
HETATM   24  N   UNL     1       6.959  25.869  55.020  1.00  0.00    -0.349 N 
HETATM   25  H   UNL     1       7.241  24.925  55.257  1.00  0.00     0.166 HD
HETATM   26  C   UNL     1       7.189  26.975  55.799  1.00  0.00     0.045 A 
HETATM   27  C   UNL     1       6.638  28.077  55.134  1.00  0.00     0.023 A 
HETATM   28  C   UNL     1       7.828  27.064  57.044  1.00  0.00     0.033 A 
HETATM   29  C   UNL     1       6.704  29.327  55.787  1.00  0.00     0.058 A 
HETATM   30  C   UNL     1       7.342  29.425  57.025  1.00  0.00     0.117 A 
HETATM   31  C   UNL     1       7.900  28.320  57.646  1.00  0.00     0.044 A 
HETATM   32  F   UNL     1       7.410  30.619  57.631  1.00  0.00    -0.206 F 
BRANCH  23  33
HETATM   33  C   UNL     1       5.864  25.271  52.862  1.00  0.00     0.312 C 
HETATM   34  O   UNL     1       4.752  24.757  52.814  1.00  0.00    -0.258 OA
BRANCH  33  35
HETATM   35  O   UNL     1       6.881  25.066  51.984  1.00  0.00    -0.317 OA
BRANCH  35  36
HETATM   36  C   UNL     1       8.054  24.435  52.519  1.00  0.00     0.175 C 
HETATM   37  C   UNL     1       7.771  22.977  52.831  1.00  0.00     0.034 C 
ENDBRANCH  35  36
ENDBRANCH  33  35
ENDBRANCH  23  33
ENDBRANCH   1  22
TORSDOF 6
ENDMDL
