MODEL 1
REMARK VINA RESULT:      -8.3      0.000      0.000
REMARK  9 active torsions:
REMARK  status: ('A' for Active; 'I' for Inactive)
REMARK    1  A    between atoms: C_2  and  C_3 
REMARK    2  A    between atoms: C_7  and  C_8 
REMARK    3  A    between atoms: C_8  and  C_9 
REMARK       I    between atoms: C_9  and  N_10 
REMARK    4  A    between atoms: N_10  and  C_11 
REMARK    5  A    between atoms: C_11  and  C_12 
REMARK    6  A    between atoms: C_12  and  C_13 
REMARK    7  A    between atoms: C_21  and  C_22 
REMARK    8  A    between atoms: C_32  and  C_33 
REMARK    9  A    between atoms: C_33  and  O_34 
ROOT
HETATM    1  C   UNL     1       7.359  25.970  54.598  1.00  0.00     0.051 C 
HETATM    2  N   UNL     1       7.134  26.669  53.401  1.00  0.00    -0.228 NA
HETATM    3  C   UNL     1       6.604  27.842  53.530  1.00  0.00     0.170 C 
HETATM    4  N   UNL     1       6.498  28.564  54.916  1.00  0.00    -0.318 N 
HETATM    5  C   UNL     1       5.283  29.003  55.043  1.00  0.00     0.011 C 
HETATM    6  C   UNL     1       7.679  28.126  55.697  1.00  0.00     0.166 C 
HETATM    7  S   UNL     1       5.634  28.639  52.354  1.00  0.00    -0.086 SA
HETATM    8  C   UNL     1       4.551  29.213  53.719  1.00  0.00     0.135 C 
HETATM    9  C   UNL     1       7.538  26.636  55.769  1.00  0.00     0.069 C 
ENDROOT
BRANCH   5  10
HETATM   10  C   UNL     1       4.602  28.983  56.384  1.00  0.00     0.156 C 
BRANCH  10  11
HETATM   11  C   UNL     1       3.960  30.265  56.866  1.00  0.00     0.222 C 
HETATM   12  N   UNL     1       4.870  31.267  57.131  1.00  0.00    -0.361 N 
HETATM   13  H   UNL     1       5.864  31.064  57.023  1.00  0.00     0.162 HD
HETATM   14  O   UNL     1       2.751  30.403  57.036  1.00  0.00    -0.273 OA
BRANCH  12  15
HETATM   15  C   UNL     1       4.548  32.420  57.954  1.00  0.00     0.124 C 
BRANCH  15  16
HETATM   16  C   UNL     1       4.550  32.167  59.464  1.00  0.00     0.053 C 
BRANCH  16  17
HETATM   17  C   UNL     1       5.357  33.151  60.303  1.00  0.00     0.189 C 
HETATM   18  N   UNL     1       4.556  34.220  61.017  1.00  0.00    -0.071 N 
HETATM   19  H   UNL     1       4.358  34.958  60.316  1.00  0.00     0.279 HD
HETATM   20  C   UNL     1       3.252  33.810  61.650  1.00  0.00     0.270 C 
HETATM   21  C   UNL     1       5.506  34.785  62.069  1.00  0.00     0.235 C 
HETATM   22  C   UNL     1       6.617  33.750  62.217  1.00  0.00     0.030 C 
HETATM   23  C   UNL     1       6.158  32.530  61.435  1.00  0.00     0.035 C 
ENDBRANCH  16  17
ENDBRANCH  15  16
ENDBRANCH  12  15
ENDBRANCH  10  11
ENDBRANCH   5  10
BRANCH   6  24
HETATM   24  C   UNL     1       8.179  28.962  56.876  1.00  0.00    -0.024 C 
HETATM   25  C   UNL     1       9.421  29.653  56.824  1.00  0.00    -0.053 C 
HETATM   26  C   UNL     1      10.344  29.686  55.628  1.00  0.00     0.049 C 
HETATM   27  C   UNL     1       9.850  30.422  57.925  1.00  0.00     0.014 C 
HETATM   28  C   UNL     1       9.048  30.609  59.049  1.00  0.00    -0.061 C 
HETATM   29  C   UNL     1       9.503  31.497  60.169  1.00  0.00     0.048 C 
HETATM   30  C   UNL     1       7.776  30.050  59.049  1.00  0.00     0.007 C 
HETATM   31  C   UNL     1       7.345  29.259  57.976  1.00  0.00     0.011 C 
ENDBRANCH   6  24
BRANCH   9  32
HETATM   32  C   UNL     1       7.169  26.064  57.069  1.00  0.00     0.293 C 
HETATM   33  O   UNL     1       5.989  25.885  57.335  1.00  0.00    -0.259 OA
BRANCH  32  34
HETATM   34  O   UNL     1       8.239  25.820  57.843  1.00  0.00    -0.323 OA
HETATM   35  C   UNL     1       8.841  24.540  57.623  1.00  0.00     0.213 C 
ENDBRANCH  32  34
ENDBRANCH   9  32
BRANCH   1  36
HETATM   36  C   UNL     1       7.161  24.470  54.463  1.00  0.00     0.056 C 
HETATM   37  C   UNL     1       7.847  23.905  53.226  1.00  0.00     0.011 C 
ENDBRANCH   1  36
TORSDOF 9
ENDMDL
MODEL 2
REMARK VINA RESULT:      -7.7      4.337     10.309
REMARK  9 active torsions:
REMARK  status: ('A' for Active; 'I' for Inactive)
REMARK    1  A    between atoms: C_2  and  C_3 
REMARK    2  A    between atoms: C_7  and  C_8 
REMARK    3  A    between atoms: C_8  and  C_9 
REMARK       I    between atoms: C_9  and  N_10 
REMARK    4  A    between atoms: N_10  and  C_11 
REMARK    5  A    between atoms: C_11  and  C_12 
REMARK    6  A    between atoms: C_12  and  C_13 
REMARK    7  A    between atoms: C_21  and  C_22 
REMARK    8  A    between atoms: C_32  and  C_33 
REMARK    9  A    between atoms: C_33  and  O_34 
ROOT
HETATM    1  C   UNL     1       3.363  36.303  61.946  1.00  0.00     0.051 C 
HETATM    2  N   UNL     1       2.703  35.158  61.473  1.00  0.00    -0.228 NA
HETATM    3  C   UNL     1       3.320  34.037  61.667  1.00  0.00     0.170 C 
HETATM    4  N   UNL     1       4.558  33.917  62.620  1.00  0.00    -0.318 N 
HETATM    5  C   UNL     1       5.486  33.270  61.985  1.00  0.00     0.011 C 
HETATM    6  C   UNL     1       4.343  34.912  63.697  1.00  0.00     0.166 C 
HETATM    7  S   UNL     1       3.158  32.623  60.701  1.00  0.00    -0.086 SA
HETATM    8  C   UNL     1       4.969  32.377  60.858  1.00  0.00     0.135 C 
HETATM    9  C   UNL     1       4.249  36.221  62.973  1.00  0.00     0.069 C 
ENDROOT
BRANCH   5  10
HETATM   10  C   UNL     1       6.932  33.642  62.163  1.00  0.00     0.156 C 
BRANCH  10  11
HETATM   11  C   UNL     1       7.960  32.535  62.067  1.00  0.00     0.222 C 
HETATM   12  N   UNL     1       8.582  32.471  60.838  1.00  0.00    -0.361 N 
HETATM   13  H   UNL     1       8.288  33.120  60.108  1.00  0.00     0.162 HD
HETATM   14  O   UNL     1       8.205  31.749  62.979  1.00  0.00    -0.273 OA
BRANCH  12  15
HETATM   15  C   UNL     1       9.294  31.290  60.383  1.00  0.00     0.124 C 
BRANCH  15  16
HETATM   16  C   UNL     1       9.275  31.056  58.870  1.00  0.00     0.053 C 
BRANCH  16  17
HETATM   17  C   UNL     1       8.737  29.707  58.410  1.00  0.00     0.189 C 
HETATM   18  N   UNL     1       7.228  29.582  58.359  1.00  0.00    -0.071 N 
HETATM   19  H   UNL     1       6.914  29.394  59.330  1.00  0.00     0.279 HD
HETATM   20  C   UNL     1       6.447  30.758  57.833  1.00  0.00     0.270 C 
HETATM   21  C   UNL     1       6.964  28.343  57.509  1.00  0.00     0.235 C 
HETATM   22  C   UNL     1       8.264  28.078  56.757  1.00  0.00     0.030 C 
HETATM   23  C   UNL     1       9.147  29.289  57.009  1.00  0.00     0.035 C 
ENDBRANCH  16  17
ENDBRANCH  15  16
ENDBRANCH  12  15
ENDBRANCH  10  11
ENDBRANCH   5  10
BRANCH   6  24
HETATM   24  C   UNL     1       5.060  34.765  65.039  1.00  0.00    -0.024 C 
HETATM   25  C   UNL     1       4.393  35.013  66.270  1.00  0.00    -0.053 C 
HETATM   26  C   UNL     1       2.937  35.392  66.405  1.00  0.00     0.049 C 
HETATM   27  C   UNL     1       5.081  34.860  67.492  1.00  0.00     0.014 C 
HETATM   28  C   UNL     1       6.388  34.380  67.545  1.00  0.00    -0.061 C 
HETATM   29  C   UNL     1       7.062  34.155  68.866  1.00  0.00     0.048 C 
HETATM   30  C   UNL     1       6.999  34.004  66.355  1.00  0.00     0.007 C 
HETATM   31  C   UNL     1       6.341  34.177  65.131  1.00  0.00     0.011 C 
ENDBRANCH   6  24
BRANCH   9  32
HETATM   32  C   UNL     1       5.381  37.144  63.117  1.00  0.00     0.293 C 
HETATM   33  O   UNL     1       6.324  37.066  62.342  1.00  0.00    -0.259 OA
BRANCH  32  34
HETATM   34  O   UNL     1       5.229  37.983  64.154  1.00  0.00    -0.323 OA
HETATM   35  C   UNL     1       6.100  39.119  64.119  1.00  0.00     0.213 C 
ENDBRANCH  32  34
ENDBRANCH   9  32
BRANCH   1  36
HETATM   36  C   UNL     1       3.146  37.525  61.069  1.00  0.00     0.056 C 
HETATM   37  C   UNL     1       3.797  37.378  59.700  1.00  0.00     0.011 C 
ENDBRANCH   1  36
TORSDOF 9
ENDMDL
MODEL 3
REMARK VINA RESULT:      -7.6      2.478      8.259
REMARK  9 active torsions:
REMARK  status: ('A' for Active; 'I' for Inactive)
REMARK    1  A    between atoms: C_2  and  C_3 
REMARK    2  A    between atoms: C_7  and  C_8 
REMARK    3  A    between atoms: C_8  and  C_9 
REMARK       I    between atoms: C_9  and  N_10 
REMARK    4  A    between atoms: N_10  and  C_11 
REMARK    5  A    between atoms: C_11  and  C_12 
REMARK    6  A    between atoms: C_12  and  C_13 
REMARK    7  A    between atoms: C_21  and  C_22 
REMARK    8  A    between atoms: C_32  and  C_33 
REMARK    9  A    between atoms: C_33  and  O_34 
ROOT
HETATM    1  C   UNL     1       6.017  32.508  59.720  1.00  0.00     0.051 C 
HETATM    2  N   UNL     1       7.328  32.102  59.424  1.00  0.00    -0.228 NA
HETATM    3  C   UNL     1       7.446  31.261  58.448  1.00  0.00     0.170 C 
HETATM    4  N   UNL     1       6.264  30.944  57.469  1.00  0.00    -0.318 N 
HETATM    5  C   UNL     1       6.169  29.654  57.367  1.00  0.00     0.011 C 
HETATM    6  C   UNL     1       5.477  32.195  57.361  1.00  0.00     0.166 C 
HETATM    7  S   UNL     1       8.714  30.114  58.260  1.00  0.00    -0.086 SA
HETATM    8  C   UNL     1       7.458  28.903  57.695  1.00  0.00     0.135 C 
HETATM    9  C   UNL     1       5.049  32.482  58.768  1.00  0.00     0.069 C 
ENDROOT
BRANCH   5  10
HETATM   10  C   UNL     1       4.822  28.997  57.249  1.00  0.00     0.156 C 
BRANCH  10  11
HETATM   11  C   UNL     1       4.713  27.768  56.372  1.00  0.00     0.222 C 
HETATM   12  N   UNL     1       4.771  26.585  57.078  1.00  0.00    -0.361 N 
HETATM   13  H   UNL     1       4.916  26.626  58.087  1.00  0.00     0.162 HD
HETATM   14  O   UNL     1       4.610  27.808  55.148  1.00  0.00    -0.273 OA
BRANCH  12  15
HETATM   15  C   UNL     1       5.077  25.312  56.448  1.00  0.00     0.124 C 
BRANCH  15  16
HETATM   16  C   UNL     1       6.510  25.165  55.930  1.00  0.00     0.053 C 
BRANCH  16  17
HETATM   17  C   UNL     1       6.654  24.802  54.458  1.00  0.00     0.189 C 
HETATM   18  N   UNL     1       6.765  25.970  53.499  1.00  0.00    -0.071 N 
HETATM   19  H   UNL     1       5.799  26.311  53.336  1.00  0.00     0.279 HD
HETATM   20  C   UNL     1       7.613  27.141  53.920  1.00  0.00     0.270 C 
HETATM   21  C   UNL     1       7.297  25.365  52.203  1.00  0.00     0.235 C 
HETATM   22  C   UNL     1       7.878  24.009  52.592  1.00  0.00     0.030 C 
HETATM   23  C   UNL     1       7.880  23.976  54.111  1.00  0.00     0.035 C 
ENDBRANCH  16  17
ENDBRANCH  15  16
ENDBRANCH  12  15
ENDBRANCH  10  11
ENDBRANCH   5  10
BRANCH   6  24
HETATM   24  C   UNL     1       4.561  32.429  56.159  1.00  0.00    -0.024 C 
HETATM   25  C   UNL     1       4.267  33.740  55.691  1.00  0.00    -0.053 C 
HETATM   26  C   UNL     1       4.838  35.013  56.270  1.00  0.00     0.049 C 
HETATM   27  C   UNL     1       3.424  33.921  54.575  1.00  0.00     0.014 C 
HETATM   28  C   UNL     1       2.932  32.843  53.843  1.00  0.00    -0.061 C 
HETATM   29  C   UNL     1       2.102  33.074  52.614  1.00  0.00     0.048 C 
HETATM   30  C   UNL     1       3.326  31.563  54.211  1.00  0.00     0.007 C 
HETATM   31  C   UNL     1       4.139  31.363  55.334  1.00  0.00     0.011 C 
ENDBRANCH   6  24
BRANCH   9  32
HETATM   32  C   UNL     1       3.631  32.281  59.086  1.00  0.00     0.293 C 
HETATM   33  O   UNL     1       3.212  31.148  59.283  1.00  0.00    -0.259 OA
BRANCH  32  34
HETATM   34  O   UNL     1       2.939  33.432  59.097  1.00  0.00    -0.323 OA
HETATM   35  C   UNL     1       2.467  33.818  60.392  1.00  0.00     0.213 C 
ENDBRANCH  32  34
ENDBRANCH   9  32
BRANCH   1  36
HETATM   36  C   UNL     1       5.784  32.744  61.203  1.00  0.00     0.056 C 
HETATM   37  C   UNL     1       6.815  32.036  62.071  1.00  0.00     0.011 C 
ENDBRANCH   1  36
TORSDOF 9
ENDMDL
MODEL 4
REMARK VINA RESULT:      -7.4      1.638      2.065
REMARK  9 active torsions:
REMARK  status: ('A' for Active; 'I' for Inactive)
REMARK    1  A    between atoms: C_2  and  C_3 
REMARK    2  A    between atoms: C_7  and  C_8 
REMARK    3  A    between atoms: C_8  and  C_9 
REMARK       I    between atoms: C_9  and  N_10 
REMARK    4  A    between atoms: N_10  and  C_11 
REMARK    5  A    between atoms: C_11  and  C_12 
REMARK    6  A    between atoms: C_12  and  C_13 
REMARK    7  A    between atoms: C_21  and  C_22 
REMARK    8  A    between atoms: C_32  and  C_33 
REMARK    9  A    between atoms: C_33  and  O_34 
ROOT
HETATM    1  C   UNL     1       7.381  25.876  54.552  1.00  0.00     0.051 C 
HETATM    2  N   UNL     1       7.140  26.565  53.352  1.00  0.00    -0.228 NA
HETATM    3  C   UNL     1       6.585  27.727  53.478  1.00  0.00     0.170 C 
HETATM    4  N   UNL     1       6.463  28.451  54.862  1.00  0.00    -0.318 N 
HETATM    5  C   UNL     1       5.239  28.863  54.988  1.00  0.00     0.011 C 
HETATM    6  C   UNL     1       7.653  28.041  55.644  1.00  0.00     0.166 C 
HETATM    7  S   UNL     1       5.598  28.500  52.299  1.00  0.00    -0.086 SA
HETATM    8  C   UNL     1       4.502  29.054  53.663  1.00  0.00     0.135 C 
HETATM    9  C   UNL     1       7.545  26.549  55.720  1.00  0.00     0.069 C 
ENDROOT
BRANCH   5  10
HETATM   10  C   UNL     1       4.558  28.832  56.328  1.00  0.00     0.156 C 
BRANCH  10  11
HETATM   11  C   UNL     1       4.000  30.133  56.865  1.00  0.00     0.222 C 
HETATM   12  N   UNL     1       3.457  30.939  55.887  1.00  0.00    -0.361 N 
HETATM   13  H   UNL     1       3.505  30.630  54.917  1.00  0.00     0.162 HD
HETATM   14  O   UNL     1       4.046  30.460  58.048  1.00  0.00    -0.273 OA
BRANCH  12  15
HETATM   15  C   UNL     1       3.225  32.360  56.085  1.00  0.00     0.124 C 
BRANCH  15  16
HETATM   16  C   UNL     1       4.484  33.230  56.127  1.00  0.00     0.053 C 
BRANCH  16  17
HETATM   17  C   UNL     1       4.586  34.198  57.299  1.00  0.00     0.189 C 
HETATM   18  N   UNL     1       4.510  35.670  56.945  1.00  0.00    -0.071 N 
HETATM   19  H   UNL     1       5.456  35.943  56.617  1.00  0.00     0.279 HD
HETATM   20  C   UNL     1       3.510  36.087  55.899  1.00  0.00     0.270 C 
HETATM   21  C   UNL     1       4.226  36.377  58.267  1.00  0.00     0.235 C 
HETATM   22  C   UNL     1       3.718  35.292  59.211  1.00  0.00     0.030 C 
HETATM   23  C   UNL     1       3.500  34.058  58.352  1.00  0.00     0.035 C 
ENDBRANCH  16  17
ENDBRANCH  15  16
ENDBRANCH  12  15
ENDBRANCH  10  11
ENDBRANCH   5  10
BRANCH   6  24
HETATM   24  C   UNL     1       8.135  28.892  56.820  1.00  0.00    -0.024 C 
HETATM   25  C   UNL     1       9.373  29.590  56.775  1.00  0.00    -0.053 C 
HETATM   26  C   UNL     1      10.309  29.618  55.589  1.00  0.00     0.049 C 
HETATM   27  C   UNL     1       9.785  30.373  57.874  1.00  0.00     0.014 C 
HETATM   28  C   UNL     1       8.969  30.564  58.987  1.00  0.00    -0.061 C 
HETATM   29  C   UNL     1       9.406  31.466  60.104  1.00  0.00     0.048 C 
HETATM   30  C   UNL     1       7.700  29.997  58.978  1.00  0.00     0.007 C 
HETATM   31  C   UNL     1       7.287  29.194  57.908  1.00  0.00     0.011 C 
ENDBRANCH   6  24
BRANCH   9  32
HETATM   32  C   UNL     1       7.189  25.972  57.022  1.00  0.00     0.293 C 
HETATM   33  O   UNL     1       6.015  25.749  57.281  1.00  0.00    -0.259 OA
BRANCH  32  34
HETATM   34  O   UNL     1       8.261  25.778  57.806  1.00  0.00    -0.323 OA
HETATM   35  C   UNL     1       8.886  24.501  57.636  1.00  0.00     0.213 C 
ENDBRANCH  32  34
ENDBRANCH   9  32
BRANCH   1  36
HETATM   36  C   UNL     1       7.216  24.371  54.421  1.00  0.00     0.056 C 
HETATM   37  C   UNL     1       7.877  23.824  53.163  1.00  0.00     0.011 C 
ENDBRANCH   1  36
TORSDOF 9
ENDMDL
MODEL 5
REMARK VINA RESULT:      -7.4      5.228      9.353
REMARK  9 active torsions:
REMARK  status: ('A' for Active; 'I' for Inactive)
REMARK    1  A    between atoms: C_2  and  C_3 
REMARK    2  A    between atoms: C_7  and  C_8 
REMARK    3  A    between atoms: C_8  and  C_9 
REMARK       I    between atoms: C_9  and  N_10 
REMARK    4  A    between atoms: N_10  and  C_11 
REMARK    5  A    between atoms: C_11  and  C_12 
REMARK    6  A    between atoms: C_12  and  C_13 
REMARK    7  A    between atoms: C_21  and  C_22 
REMARK    8  A    between atoms: C_32  and  C_33 
REMARK    9  A    between atoms: C_33  and  O_34 
ROOT
HETATM    1  C   UNL     1       3.635  30.907  48.511  1.00  0.00     0.051 C 
HETATM    2  N   UNL     1       2.648  30.033  48.028  1.00  0.00    -0.228 NA
HETATM    3  C   UNL     1       2.590  28.879  48.609  1.00  0.00     0.170 C 
HETATM    4  N   UNL     1       3.349  28.577  49.946  1.00  0.00    -0.318 N 
HETATM    5  C   UNL     1       3.982  27.453  49.797  1.00  0.00     0.011 C 
HETATM    6  C   UNL     1       3.379  29.853  50.697  1.00  0.00     0.166 C 
HETATM    7  S   UNL     1       2.016  27.424  47.894  1.00  0.00    -0.086 SA
HETATM    8  C   UNL     1       3.393  26.540  48.723  1.00  0.00     0.135 C 
HETATM    9  C   UNL     1       4.097  30.800  49.784  1.00  0.00     0.069 C 
ENDROOT
BRANCH   5  10
HETATM   10  C   UNL     1       5.338  27.255  50.415  1.00  0.00     0.156 C 
BRANCH  10  11
HETATM   11  C   UNL     1       5.594  25.957  51.150  1.00  0.00     0.222 C 
HETATM   12  N   UNL     1       6.918  25.771  51.487  1.00  0.00    -0.361 N 
HETATM   13  H   UNL     1       7.599  26.471  51.195  1.00  0.00     0.162 HD
HETATM   14  O   UNL     1       4.721  25.130  51.402  1.00  0.00    -0.273 OA
BRANCH  12  15
HETATM   15  C   UNL     1       7.462  24.468  51.832  1.00  0.00     0.124 C 
BRANCH  15  16
HETATM   16  C   UNL     1       7.943  24.322  53.278  1.00  0.00     0.053 C 
BRANCH  16  17
HETATM   17  C   UNL     1       8.601  22.993  53.630  1.00  0.00     0.189 C 
HETATM   18  N   UNL     1       8.806  22.731  55.108  1.00  0.00    -0.071 N 
HETATM   19  H   UNL     1       9.664  23.246  55.383  1.00  0.00     0.279 HD
HETATM   20  C   UNL     1       7.698  23.127  56.048  1.00  0.00     0.270 C 
HETATM   21  C   UNL     1       9.080  21.233  55.207  1.00  0.00     0.235 C 
HETATM   22  C   UNL     1       8.591  20.639  53.890  1.00  0.00     0.030 C 
HETATM   23  C   UNL     1       7.844  21.756  53.180  1.00  0.00     0.035 C 
ENDBRANCH  16  17
ENDBRANCH  15  16
ENDBRANCH  12  15
ENDBRANCH  10  11
ENDBRANCH   5  10
BRANCH   6  24
HETATM   24  C   UNL     1       3.590  29.854  52.212  1.00  0.00    -0.024 C 
HETATM   25  C   UNL     1       3.214  30.965  53.015  1.00  0.00    -0.053 C 
HETATM   26  C   UNL     1       2.542  32.217  52.501  1.00  0.00     0.049 C 
HETATM   27  C   UNL     1       3.415  30.931  54.411  1.00  0.00     0.014 C 
HETATM   28  C   UNL     1       3.893  29.793  55.057  1.00  0.00    -0.061 C 
HETATM   29  C   UNL     1       4.021  29.764  56.552  1.00  0.00     0.048 C 
HETATM   30  C   UNL     1       4.133  28.655  54.295  1.00  0.00     0.007 C 
HETATM   31  C   UNL     1       3.966  28.682  52.905  1.00  0.00     0.011 C 
ENDBRANCH   6  24
BRANCH   9  32
HETATM   32  C   UNL     1       5.458  31.192  50.168  1.00  0.00     0.293 C 
HETATM   33  O   UNL     1       6.396  30.458  49.894  1.00  0.00    -0.259 OA
BRANCH  32  34
HETATM   34  O   UNL     1       5.487  32.362  50.826  1.00  0.00    -0.323 OA
HETATM   35  C   UNL     1       6.017  33.450  50.061  1.00  0.00     0.213 C 
ENDBRANCH  32  34
ENDBRANCH   9  32
BRANCH   1  36
HETATM   36  C   UNL     1       4.245  31.780  47.427  1.00  0.00     0.056 C 
HETATM   37  C   UNL     1       4.703  30.970  46.221  1.00  0.00     0.011 C 
ENDBRANCH   1  36
TORSDOF 9
ENDMDL
MODEL 6
REMARK VINA RESULT:      -7.1      4.754      8.391
REMARK  9 active torsions:
REMARK  status: ('A' for Active; 'I' for Inactive)
REMARK    1  A    between atoms: C_2  and  C_3 
REMARK    2  A    between atoms: C_7  and  C_8 
REMARK    3  A    between atoms: C_8  and  C_9 
REMARK       I    between atoms: C_9  and  N_10 
REMARK    4  A    between atoms: N_10  and  C_11 
REMARK    5  A    between atoms: C_11  and  C_12 
REMARK    6  A    between atoms: C_12  and  C_13 
REMARK    7  A    between atoms: C_21  and  C_22 
REMARK    8  A    between atoms: C_32  and  C_33 
REMARK    9  A    between atoms: C_33  and  O_34 
ROOT
HETATM    1  C   UNL     1       3.993  30.566  47.594  1.00  0.00     0.051 C 
HETATM    2  N   UNL     1       3.073  29.593  47.171  1.00  0.00    -0.228 NA
HETATM    3  C   UNL     1       2.913  28.590  47.971  1.00  0.00     0.170 C 
HETATM    4  N   UNL     1       3.463  28.593  49.438  1.00  0.00    -0.318 N 
HETATM    5  C   UNL     1       4.092  27.475  49.628  1.00  0.00     0.011 C 
HETATM    6  C   UNL     1       3.402  30.002  49.894  1.00  0.00     0.166 C 
HETATM    7  S   UNL     1       2.427  27.006  47.509  1.00  0.00    -0.086 SA
HETATM    8  C   UNL     1       3.653  26.343  48.701  1.00  0.00     0.135 C 
HETATM    9  C   UNL     1       4.261  30.742  48.914  1.00  0.00     0.069 C 
ENDROOT
BRANCH   5  10
HETATM   10  C   UNL     1       5.340  27.436  50.466  1.00  0.00     0.156 C 
BRANCH  10  11
HETATM   11  C   UNL     1       5.619  26.174  51.255  1.00  0.00     0.222 C 
HETATM   12  N   UNL     1       4.567  25.788  52.058  1.00  0.00    -0.361 N 
HETATM   13  H   UNL     1       3.734  26.375  52.087  1.00  0.00     0.162 HD
HETATM   14  O   UNL     1       6.684  25.563  51.213  1.00  0.00    -0.273 OA
BRANCH  12  15
HETATM   15  C   UNL     1       4.729  24.868  53.171  1.00  0.00     0.124 C 
BRANCH  15  16
HETATM   16  C   UNL     1       5.770  25.280  54.215  1.00  0.00     0.053 C 
BRANCH  16  17
HETATM   17  C   UNL     1       5.554  26.639  54.871  1.00  0.00     0.189 C 
HETATM   18  N   UNL     1       4.794  26.624  56.181  1.00  0.00    -0.071 N 
HETATM   19  H   UNL     1       3.787  26.565  55.937  1.00  0.00     0.279 HD
HETATM   20  C   UNL     1       5.107  25.522  57.159  1.00  0.00     0.270 C 
HETATM   21  C   UNL     1       5.068  27.988  56.809  1.00  0.00     0.235 C 
HETATM   22  C   UNL     1       6.291  28.536  56.082  1.00  0.00     0.030 C 
HETATM   23  C   UNL     1       6.823  27.390  55.236  1.00  0.00     0.035 C 
ENDBRANCH  16  17
ENDBRANCH  15  16
ENDBRANCH  12  15
ENDBRANCH  10  11
ENDBRANCH   5  10
BRANCH   6  24
HETATM   24  C   UNL     1       3.389  30.330  51.388  1.00  0.00    -0.024 C 
HETATM   25  C   UNL     1       2.813  31.534  51.879  1.00  0.00    -0.053 C 
HETATM   26  C   UNL     1       2.127  32.577  51.028  1.00  0.00     0.049 C 
HETATM   27  C   UNL     1       2.810  31.804  53.264  1.00  0.00     0.014 C 
HETATM   28  C   UNL     1       3.277  30.878  54.194  1.00  0.00    -0.061 C 
HETATM   29  C   UNL     1       3.186  31.165  55.664  1.00  0.00     0.048 C 
HETATM   30  C   UNL     1       3.714  29.643  53.731  1.00  0.00     0.007 C 
HETATM   31  C   UNL     1       3.751  29.370  52.358  1.00  0.00     0.011 C 
ENDBRANCH   6  24
BRANCH   9  32
HETATM   32  C   UNL     1       5.557  31.230  49.400  1.00  0.00     0.293 C 
HETATM   33  O   UNL     1       6.407  30.427  49.758  1.00  0.00    -0.259 OA
BRANCH  32  34
HETATM   34  O   UNL     1       5.629  32.571  49.408  1.00  0.00    -0.323 OA
HETATM   35  C   UNL     1       5.802  33.139  50.711  1.00  0.00     0.213 C 
ENDBRANCH  32  34
ENDBRANCH   9  32
BRANCH   1  36
HETATM   36  C   UNL     1       4.768  31.196  46.449  1.00  0.00     0.056 C 
HETATM   37  C   UNL     1       3.871  31.562  45.275  1.00  0.00     0.011 C 
ENDBRANCH   1  36
TORSDOF 9
ENDMDL
MODEL 7
REMARK VINA RESULT:      -7.0      4.014      9.899
REMARK  9 active torsions:
REMARK  status: ('A' for Active; 'I' for Inactive)
REMARK    1  A    between atoms: C_2  and  C_3 
REMARK    2  A    between atoms: C_7  and  C_8 
REMARK    3  A    between atoms: C_8  and  C_9 
REMARK       I    between atoms: C_9  and  N_10 
REMARK    4  A    between atoms: N_10  and  C_11 
REMARK    5  A    between atoms: C_11  and  C_12 
REMARK    6  A    between atoms: C_12  and  C_13 
REMARK    7  A    between atoms: C_21  and  C_22 
REMARK    8  A    between atoms: C_32  and  C_33 
REMARK    9  A    between atoms: C_33  and  O_34 
ROOT
HETATM    1  C   UNL     1       6.232  34.205  65.420  1.00  0.00     0.051 C 
HETATM    2  N   UNL     1       7.382  33.581  64.911  1.00  0.00    -0.228 NA
HETATM    3  C   UNL     1       7.325  33.235  63.666  1.00  0.00     0.170 C 
HETATM    4  N   UNL     1       6.190  33.735  62.709  1.00  0.00    -0.318 N 
HETATM    5  C   UNL     1       5.722  32.704  62.075  1.00  0.00     0.011 C 
HETATM    6  C   UNL     1       5.824  35.091  63.183  1.00  0.00     0.166 C 
HETATM    7  S   UNL     1       8.203  31.944  62.943  1.00  0.00    -0.086 SA
HETATM    8  C   UNL     1       6.695  31.529  61.985  1.00  0.00     0.135 C 
HETATM    9  C   UNL     1       5.384  34.878  64.599  1.00  0.00     0.069 C 
ENDROOT
BRANCH   5  10
HETATM   10  C   UNL     1       4.255  32.604  61.761  1.00  0.00     0.156 C 
BRANCH  10  11
HETATM   11  C   UNL     1       3.861  32.270  60.338  1.00  0.00     0.222 C 
HETATM   12  N   UNL     1       4.795  31.499  59.678  1.00  0.00    -0.361 N 
HETATM   13  H   UNL     1       5.658  31.256  60.164  1.00  0.00     0.162 HD
HETATM   14  O   UNL     1       2.827  32.665  59.804  1.00  0.00    -0.273 OA
BRANCH  12  15
HETATM   15  C   UNL     1       4.833  31.384  58.230  1.00  0.00     0.124 C 
BRANCH  15  16
HETATM   16  C   UNL     1       6.228  31.457  57.604  1.00  0.00     0.053 C 
BRANCH  16  17
HETATM   17  C   UNL     1       6.803  30.137  57.104  1.00  0.00     0.189 C 
HETATM   18  N   UNL     1       8.166  29.764  57.651  1.00  0.00    -0.071 N 
HETATM   19  H   UNL     1       8.862  30.296  57.094  1.00  0.00     0.279 HD
HETATM   20  C   UNL     1       8.431  30.027  59.110  1.00  0.00     0.270 C 
HETATM   21  C   UNL     1       8.321  28.279  57.340  1.00  0.00     0.235 C 
HETATM   22  C   UNL     1       6.912  27.772  57.047  1.00  0.00     0.030 C 
HETATM   23  C   UNL     1       5.974  28.906  57.426  1.00  0.00     0.035 C 
ENDBRANCH  16  17
ENDBRANCH  15  16
ENDBRANCH  12  15
ENDBRANCH  10  11
ENDBRANCH   5  10
BRANCH   6  24
HETATM   24  C   UNL     1       5.125  36.075  62.243  1.00  0.00    -0.024 C 
HETATM   25  C   UNL     1       5.285  37.480  62.386  1.00  0.00    -0.053 C 
HETATM   26  C   UNL     1       6.169  38.152  63.411  1.00  0.00     0.049 C 
HETATM   27  C   UNL     1       4.633  38.361  61.497  1.00  0.00     0.014 C 
HETATM   28  C   UNL     1       3.895  37.896  60.411  1.00  0.00    -0.061 C 
HETATM   29  C   UNL     1       3.280  38.862  59.441  1.00  0.00     0.048 C 
HETATM   30  C   UNL     1       3.848  36.526  60.185  1.00  0.00     0.007 C 
HETATM   31  C   UNL     1       4.466  35.637  61.074  1.00  0.00     0.011 C 
ENDBRANCH   6  24
BRANCH   9  32
HETATM   32  C   UNL     1       3.949  35.007  64.877  1.00  0.00     0.293 C 
HETATM   33  O   UNL     1       3.525  36.031  65.395  1.00  0.00    -0.259 OA
BRANCH  32  34
HETATM   34  O   UNL     1       3.259  33.910  64.525  1.00  0.00    -0.323 OA
HETATM   35  C   UNL     1       2.114  34.178  63.708  1.00  0.00     0.213 C 
ENDBRANCH  32  34
ENDBRANCH   9  32
BRANCH   1  36
HETATM   36  C   UNL     1       5.955  33.858  66.873  1.00  0.00     0.056 C 
HETATM   37  C   UNL     1       6.882  34.595  67.831  1.00  0.00     0.011 C 
ENDBRANCH   1  36
TORSDOF 9
ENDMDL
MODEL 8
REMARK VINA RESULT:      -6.7      2.486      3.860
REMARK  9 active torsions:
REMARK  status: ('A' for Active; 'I' for Inactive)
REMARK    1  A    between atoms: C_2  and  C_3 
REMARK    2  A    between atoms: C_7  and  C_8 
REMARK    3  A    between atoms: C_8  and  C_9 
REMARK       I    between atoms: C_9  and  N_10 
REMARK    4  A    between atoms: N_10  and  C_11 
REMARK    5  A    between atoms: C_11  and  C_12 
REMARK    6  A    between atoms: C_12  and  C_13 
REMARK    7  A    between atoms: C_21  and  C_22 
REMARK    8  A    between atoms: C_32  and  C_33 
REMARK    9  A    between atoms: C_33  and  O_34 
ROOT
HETATM    1  C   UNL     1       7.350  25.171  54.744  1.00  0.00     0.051 C 
HETATM    2  N   UNL     1       7.145  25.678  53.450  1.00  0.00    -0.228 NA
HETATM    3  C   UNL     1       6.590  26.845  53.389  1.00  0.00     0.170 C 
HETATM    4  N   UNL     1       6.431  27.763  54.648  1.00  0.00    -0.318 N 
HETATM    5  C   UNL     1       5.206  28.188  54.677  1.00  0.00     0.011 C 
HETATM    6  C   UNL     1       7.597  27.474  55.515  1.00  0.00     0.166 C 
HETATM    7  S   UNL     1       5.640  27.435  52.082  1.00  0.00    -0.086 SA
HETATM    8  C   UNL     1       4.508  28.182  53.318  1.00  0.00     0.135 C 
HETATM    9  C   UNL     1       7.483  26.008  55.805  1.00  0.00     0.069 C 
ENDROOT
BRANCH   5  10
HETATM   10  C   UNL     1       4.487  28.352  55.988  1.00  0.00     0.156 C 
BRANCH  10  11
HETATM   11  C   UNL     1       4.018  29.741  56.364  1.00  0.00     0.222 C 
HETATM   12  N   UNL     1       3.677  30.517  55.275  1.00  0.00    -0.361 N 
HETATM   13  H   UNL     1       3.798  30.126  54.341  1.00  0.00     0.162 HD
HETATM   14  O   UNL     1       3.967  30.157  57.519  1.00  0.00    -0.273 OA
BRANCH  12  15
HETATM   15  C   UNL     1       3.580  31.965  55.346  1.00  0.00     0.124 C 
BRANCH  15  16
HETATM   16  C   UNL     1       2.158  32.520  55.465  1.00  0.00     0.053 C 
BRANCH  16  17
HETATM   17  C   UNL     1       1.586  33.163  54.208  1.00  0.00     0.189 C 
HETATM   18  N   UNL     1       1.172  34.614  54.340  1.00  0.00    -0.071 N 
HETATM   19  H   UNL     1       0.234  34.614  54.784  1.00  0.00     0.279 HD
HETATM   20  C   UNL     1       2.068  35.528  55.135  1.00  0.00     0.270 C 
HETATM   21  C   UNL     1       1.035  35.116  52.906  1.00  0.00     0.235 C 
HETATM   22  C   UNL     1       1.788  34.107  52.045  1.00  0.00     0.030 C 
HETATM   23  C   UNL     1       2.526  33.199  53.014  1.00  0.00     0.035 C 
ENDBRANCH  16  17
ENDBRANCH  15  16
ENDBRANCH  12  15
ENDBRANCH  10  11
ENDBRANCH   5  10
BRANCH   6  24
HETATM   24  C   UNL     1       8.049  28.487  56.567  1.00  0.00    -0.024 C 
HETATM   25  C   UNL     1       9.167  29.338  56.350  1.00  0.00    -0.053 C 
HETATM   26  C   UNL     1       9.990  29.379  55.083  1.00  0.00     0.049 C 
HETATM   27  C   UNL     1       9.553  30.268  57.338  1.00  0.00     0.014 C 
HETATM   28  C   UNL     1       8.811  30.452  58.503  1.00  0.00    -0.061 C 
HETATM   29  C   UNL     1       9.206  31.506  59.496  1.00  0.00     0.048 C 
HETATM   30  C   UNL     1       7.640  29.722  58.660  1.00  0.00     0.007 C 
HETATM   31  C   UNL     1       7.258  28.774  57.702  1.00  0.00     0.011 C 
ENDBRANCH   6  24
BRANCH   9  32
HETATM   32  C   UNL     1       7.088  25.628  57.167  1.00  0.00     0.293 C 
HETATM   33  O   UNL     1       5.905  25.459  57.426  1.00  0.00    -0.259 OA
BRANCH  32  34
HETATM   34  O   UNL     1       8.139  25.533  57.997  1.00  0.00    -0.323 OA
HETATM   35  C   UNL     1       8.996  24.417  57.731  1.00  0.00     0.213 C 
ENDBRANCH  32  34
ENDBRANCH   9  32
BRANCH   1  36
HETATM   36  C   UNL     1       7.184  23.663  54.830  1.00  0.00     0.056 C 
HETATM   37  C   UNL     1       7.513  22.969  53.515  1.00  0.00     0.011 C 
ENDBRANCH   1  36
TORSDOF 9
ENDMDL
MODEL 9
REMARK VINA RESULT:      -6.7      4.469      7.956
REMARK  9 active torsions:
REMARK  status: ('A' for Active; 'I' for Inactive)
REMARK    1  A    between atoms: C_2  and  C_3 
REMARK    2  A    between atoms: C_7  and  C_8 
REMARK    3  A    between atoms: C_8  and  C_9 
REMARK       I    between atoms: C_9  and  N_10 
REMARK    4  A    between atoms: N_10  and  C_11 
REMARK    5  A    between atoms: C_11  and  C_12 
REMARK    6  A    between atoms: C_12  and  C_13 
REMARK    7  A    between atoms: C_21  and  C_22 
REMARK    8  A    between atoms: C_32  and  C_33 
REMARK    9  A    between atoms: C_33  and  O_34 
ROOT
HETATM    1  C   UNL     1       3.221  30.547  47.991  1.00  0.00     0.051 C 
HETATM    2  N   UNL     1       4.252  31.500  48.015  1.00  0.00    -0.228 NA
HETATM    3  C   UNL     1       4.813  31.686  49.166  1.00  0.00     0.170 C 
HETATM    4  N   UNL     1       4.582  30.718  50.376  1.00  0.00    -0.318 N 
HETATM    5  C   UNL     1       4.303  31.443  51.416  1.00  0.00     0.011 C 
HETATM    6  C   UNL     1       4.377  29.373  49.790  1.00  0.00     0.166 C 
HETATM    7  S   UNL     1       5.579  33.136  49.686  1.00  0.00    -0.086 SA
HETATM    8  C   UNL     1       4.818  32.879  51.335  1.00  0.00     0.135 C 
HETATM    9  C   UNL     1       3.184  29.538  48.899  1.00  0.00     0.069 C 
ENDROOT
BRANCH   5  10
HETATM   10  C   UNL     1       3.296  30.969  52.427  1.00  0.00     0.156 C 
BRANCH  10  11
HETATM   11  C   UNL     1       3.469  31.425  53.860  1.00  0.00     0.222 C 
HETATM   12  N   UNL     1       4.639  30.980  54.438  1.00  0.00    -0.361 N 
HETATM   13  H   UNL     1       5.252  30.373  53.894  1.00  0.00     0.162 HD
HETATM   14  O   UNL     1       2.643  32.102  54.467  1.00  0.00    -0.273 OA
BRANCH  12  15
HETATM   15  C   UNL     1       4.840  30.952  55.877  1.00  0.00     0.124 C 
BRANCH  15  16
HETATM   16  C   UNL     1       4.607  29.594  56.544  1.00  0.00     0.053 C 
BRANCH  16  17
HETATM   17  C   UNL     1       5.522  28.463  56.091  1.00  0.00     0.189 C 
HETATM   18  N   UNL     1       6.976  28.590  56.495  1.00  0.00    -0.071 N 
HETATM   19  H   UNL     1       7.416  29.238  55.814  1.00  0.00     0.279 HD
HETATM   20  C   UNL     1       7.275  29.092  57.883  1.00  0.00     0.270 C 
HETATM   21  C   UNL     1       7.563  27.196  56.295  1.00  0.00     0.235 C 
HETATM   22  C   UNL     1       6.366  26.254  56.222  1.00  0.00     0.030 C 
HETATM   23  C   UNL     1       5.156  27.085  56.615  1.00  0.00     0.035 C 
ENDBRANCH  16  17
ENDBRANCH  15  16
ENDBRANCH  12  15
ENDBRANCH  10  11
ENDBRANCH   5  10
BRANCH   6  24
HETATM   24  C   UNL     1       4.604  28.119  50.637  1.00  0.00    -0.024 C 
HETATM   25  C   UNL     1       4.835  26.849  50.039  1.00  0.00    -0.053 C 
HETATM   26  C   UNL     1       4.931  26.597  48.552  1.00  0.00     0.049 C 
HETATM   27  C   UNL     1       5.049  25.714  50.848  1.00  0.00     0.014 C 
HETATM   28  C   UNL     1       5.132  25.805  52.235  1.00  0.00    -0.061 C 
HETATM   29  C   UNL     1       5.438  24.589  53.060  1.00  0.00     0.048 C 
HETATM   30  C   UNL     1       5.044  27.063  52.819  1.00  0.00     0.007 C 
HETATM   31  C   UNL     1       4.803  28.197  52.032  1.00  0.00     0.011 C 
ENDBRANCH   6  24
BRANCH   9  32
HETATM   32  C   UNL     1       1.930  28.918  49.343  1.00  0.00     0.293 C 
HETATM   33  O   UNL     1       1.199  29.524  50.114  1.00  0.00    -0.259 OA
BRANCH  32  34
HETATM   34  O   UNL     1       1.757  27.689  48.831  1.00  0.00    -0.323 OA
HETATM   35  C   UNL     1       0.811  27.631  47.759  1.00  0.00     0.213 C 
ENDBRANCH  32  34
ENDBRANCH   9  32
BRANCH   1  36
HETATM   36  C   UNL     1       2.101  30.901  47.026  1.00  0.00     0.056 C 
HETATM   37  C   UNL     1       1.285  32.096  47.500  1.00  0.00     0.011 C 
ENDBRANCH   1  36
TORSDOF 9
ENDMDL
MODEL 10
REMARK VINA RESULT:      -6.4      6.307      9.876
REMARK  9 active torsions:
REMARK  status: ('A' for Active; 'I' for Inactive)
REMARK    1  A    between atoms: C_2  and  C_3 
REMARK    2  A    between atoms: C_7  and  C_8 
REMARK    3  A    between atoms: C_8  and  C_9 
REMARK       I    between atoms: C_9  and  N_10 
REMARK    4  A    between atoms: N_10  and  C_11 
REMARK    5  A    between atoms: C_11  and  C_12 
REMARK    6  A    between atoms: C_12  and  C_13 
REMARK    7  A    between atoms: C_21  and  C_22 
REMARK    8  A    between atoms: C_32  and  C_33 
REMARK    9  A    between atoms: C_33  and  O_34 
ROOT
HETATM    1  C   UNL     1       2.114  29.171  47.549  1.00  0.00     0.051 C 
HETATM    2  N   UNL     1       0.977  29.929  47.869  1.00  0.00    -0.228 NA
HETATM    3  C   UNL     1       1.193  30.982  48.589  1.00  0.00     0.170 C 
HETATM    4  N   UNL     1       2.633  31.546  48.836  1.00  0.00    -0.318 N 
HETATM    5  C   UNL     1       2.762  31.765  50.108  1.00  0.00     0.011 C 
HETATM    6  C   UNL     1       3.408  31.239  47.610  1.00  0.00     0.166 C 
HETATM    7  S   UNL     1       0.063  31.714  49.660  1.00  0.00    -0.086 SA
HETATM    8  C   UNL     1       1.439  31.973  50.845  1.00  0.00     0.135 C 
HETATM    9  C   UNL     1       3.344  29.746  47.501  1.00  0.00     0.069 C 
ENDROOT
BRANCH   5  10
HETATM   10  C   UNL     1       4.074  31.510  50.797  1.00  0.00     0.156 C 
BRANCH  10  11
HETATM   11  C   UNL     1       4.040  30.811  52.139  1.00  0.00     0.222 C 
HETATM   12  N   UNL     1       3.880  29.445  52.039  1.00  0.00    -0.361 N 
HETATM   13  H   UNL     1       3.764  29.033  51.114  1.00  0.00     0.162 HD
HETATM   14  O   UNL     1       4.118  31.395  53.217  1.00  0.00    -0.273 OA
BRANCH  12  15
HETATM   15  C   UNL     1       3.435  28.626  53.154  1.00  0.00     0.124 C 
BRANCH  15  16
HETATM   16  C   UNL     1       4.532  27.815  53.850  1.00  0.00     0.053 C 
BRANCH  16  17
HETATM   17  C   UNL     1       5.150  26.689  53.029  1.00  0.00     0.189 C 
HETATM   18  N   UNL     1       6.611  26.863  52.668  1.00  0.00    -0.071 N 
HETATM   19  H   UNL     1       6.638  27.496  51.847  1.00  0.00     0.279 HD
HETATM   20  C   UNL     1       7.530  27.419  53.723  1.00  0.00     0.270 C 
HETATM   21  C   UNL     1       7.075  25.476  52.233  1.00  0.00     0.235 C 
HETATM   22  C   UNL     1       6.030  24.505  52.773  1.00  0.00     0.030 C 
HETATM   23  C   UNL     1       5.136  25.322  53.692  1.00  0.00     0.035 C 
ENDBRANCH  16  17
ENDBRANCH  15  16
ENDBRANCH  12  15
ENDBRANCH  10  11
ENDBRANCH   5  10
BRANCH   6  24
HETATM   24  C   UNL     1       4.671  32.034  47.274  1.00  0.00    -0.024 C 
HETATM   25  C   UNL     1       5.053  32.289  45.929  1.00  0.00    -0.053 C 
HETATM   26  C   UNL     1       4.267  31.864  44.710  1.00  0.00     0.049 C 
HETATM   27  C   UNL     1       6.220  33.033  45.653  1.00  0.00     0.014 C 
HETATM   28  C   UNL     1       6.977  33.615  46.667  1.00  0.00    -0.061 C 
HETATM   29  C   UNL     1       8.167  34.466  46.333  1.00  0.00     0.048 C 
HETATM   30  C   UNL     1       6.532  33.487  47.977  1.00  0.00     0.007 C 
HETATM   31  C   UNL     1       5.393  32.728  48.271  1.00  0.00     0.011 C 
ENDBRANCH   6  24
BRANCH   9  32
HETATM   32  C   UNL     1       4.576  29.004  47.789  1.00  0.00     0.293 C 
HETATM   33  O   UNL     1       5.307  28.668  46.867  1.00  0.00    -0.259 OA
BRANCH  32  34
HETATM   34  O   UNL     1       4.734  28.760  49.100  1.00  0.00    -0.323 OA
HETATM   35  C   UNL     1       4.968  27.383  49.415  1.00  0.00     0.213 C 
ENDBRANCH  32  34
ENDBRANCH   9  32
BRANCH   1  36
HETATM   36  C   UNL     1       1.841  27.677  47.491  1.00  0.00     0.056 C 
HETATM   37  C   UNL     1       0.552  27.352  46.749  1.00  0.00     0.011 C 
ENDBRANCH   1  36
TORSDOF 9
ENDMDL
