MODEL 1
REMARK VINA RESULT:      -9.5      0.000      0.000
REMARK  5 active torsions:
REMARK  status: ('A' for Active; 'I' for Inactive)
REMARK    1  A    between atoms: C_9  and  C_10 
REMARK    2  A    between atoms: C_10  and  N_11 
REMARK    3  A    between atoms: N_11  and  C_12 
REMARK    4  A    between atoms: C_13  and  O_14 
REMARK    5  A    between atoms: C_16  and  O_17 
ROOT
HETATM    1  C   UNL     1       7.970  20.656  52.841  1.00  0.00     0.048 C 
HETATM    2  C   UNL     1       8.032  21.517  54.069  1.00  0.00    -0.061 A 
HETATM    3  C   UNL     1       7.895  22.910  53.971  1.00  0.00     0.020 A 
HETATM    4  C   UNL     1       7.919  23.706  55.121  1.00  0.00    -0.008 A 
HETATM    5  C   UNL     1       8.071  23.100  56.372  1.00  0.00     0.045 A 
HETATM    6  N   UNL     1       8.080  23.898  57.521  1.00  0.00    -0.322 N 
HETATM    7  C   UNL     1       7.943  25.261  57.504  1.00  0.00     0.253 A 
HETATM    8  O   UNL     1       7.911  25.899  58.552  1.00  0.00    -0.268 OA
HETATM    9  C   UNL     1       7.817  25.915  56.166  1.00  0.00     0.024 A 
HETATM   10  C   UNL     1       7.786  25.160  55.051  1.00  0.00     0.027 A 
HETATM   11  C   UNL     1       8.196  21.717  56.485  1.00  0.00     0.031 A 
HETATM   12  C   UNL     1       8.172  20.929  55.333  1.00  0.00     0.009 A 
HETATM   13  H   UNL     1       8.171  23.477  58.435  1.00  0.00     0.169 HD
ENDROOT
BRANCH   9  14
HETATM   14  C   UNL     1       7.662  27.408  56.153  1.00  0.00     0.136 C 
BRANCH  14  15
HETATM   15  N   UNL     1       8.937  28.012  56.540  1.00  0.00    -0.286 NA
HETATM   16  H   UNL     1       9.517  28.210  55.722  1.00  0.00     0.128 HD
BRANCH  15  17
HETATM   17  C   UNL     1       8.927  29.153  57.365  1.00  0.00     0.042 A 
HETATM   18  C   UNL     1      10.056  29.994  57.325  1.00  0.00     0.089 A 
HETATM   19  C   UNL     1      10.148  31.167  58.065  1.00  0.00     0.074 A 
HETATM   20  C   UNL     1       9.091  31.503  58.898  1.00  0.00     0.068 A 
HETATM   21  C   UNL     1       7.972  30.681  58.994  1.00  0.00     0.038 A 
HETATM   22  C   UNL     1       7.893  29.506  58.236  1.00  0.00     0.029 A 
BRANCH  18  23
HETATM   23  O   UNL     1      11.132  29.619  56.562  1.00  0.00    -0.359 OA
HETATM   24  H   UNL     1      11.663  30.439  56.498  1.00  0.00     0.218 HD
ENDBRANCH  18  23
BRANCH  20  25
HETATM   25  O   UNL     1       9.116  32.634  59.659  1.00  0.00    -0.361 OA
HETATM   26  H   UNL     1       9.191  32.373  60.592  1.00  0.00     0.217 HD
ENDBRANCH  20  25
ENDBRANCH  15  17
ENDBRANCH  14  15
ENDBRANCH   9  14
TORSDOF 5
ENDMDL
MODEL 2
REMARK VINA RESULT:      -9.4      9.998     13.703
REMARK  5 active torsions:
REMARK  status: ('A' for Active; 'I' for Inactive)
REMARK    1  A    between atoms: C_9  and  C_10 
REMARK    2  A    between atoms: C_10  and  N_11 
REMARK    3  A    between atoms: N_11  and  C_12 
REMARK    4  A    between atoms: C_13  and  O_14 
REMARK    5  A    between atoms: C_16  and  O_17 
ROOT
HETATM    1  C   UNL     1       8.889  32.145  61.832  1.00  0.00     0.048 C 
HETATM    2  C   UNL     1       7.687  32.525  62.645  1.00  0.00    -0.061 A 
HETATM    3  C   UNL     1       7.832  32.994  63.959  1.00  0.00     0.020 A 
HETATM    4  C   UNL     1       6.711  33.379  64.702  1.00  0.00    -0.008 A 
HETATM    5  C   UNL     1       5.443  33.302  64.120  1.00  0.00     0.045 A 
HETATM    6  N   UNL     1       4.326  33.702  64.861  1.00  0.00    -0.322 N 
HETATM    7  C   UNL     1       4.392  34.177  66.144  1.00  0.00     0.253 A 
HETATM    8  O   UNL     1       3.379  34.557  66.723  1.00  0.00    -0.268 OA
HETATM    9  C   UNL     1       5.742  34.226  66.782  1.00  0.00     0.024 A 
HETATM   10  C   UNL     1       6.831  33.865  66.076  1.00  0.00     0.027 A 
HETATM   11  C   UNL     1       5.284  32.849  62.812  1.00  0.00     0.031 A 
HETATM   12  C   UNL     1       6.407  32.466  62.077  1.00  0.00     0.009 A 
HETATM   13  H   UNL     1       3.403  33.670  64.451  1.00  0.00     0.169 HD
ENDROOT
BRANCH   9  14
HETATM   14  C   UNL     1       5.810  34.753  68.185  1.00  0.00     0.136 C 
BRANCH  14  15
HETATM   15  N   UNL     1       5.450  33.674  69.106  1.00  0.00    -0.286 NA
HETATM   16  H   UNL     1       5.186  32.827  68.599  1.00  0.00     0.128 HD
BRANCH  15  17
HETATM   17  C   UNL     1       6.356  33.318  70.124  1.00  0.00     0.042 A 
HETATM   18  C   UNL     1       6.076  32.154  70.864  1.00  0.00     0.089 A 
HETATM   19  C   UNL     1       6.911  31.680  71.869  1.00  0.00     0.074 A 
HETATM   20  C   UNL     1       8.053  32.408  72.170  1.00  0.00     0.068 A 
HETATM   21  C   UNL     1       8.348  33.584  71.488  1.00  0.00     0.038 A 
HETATM   22  C   UNL     1       7.498  34.043  70.473  1.00  0.00     0.029 A 
BRANCH  18  23
HETATM   23  O   UNL     1       4.906  31.480  70.619  1.00  0.00    -0.359 OA
HETATM   24  H   UNL     1       4.336  31.731  71.374  1.00  0.00     0.218 HD
ENDBRANCH  18  23
BRANCH  20  25
HETATM   25  O   UNL     1       8.915  32.008  73.149  1.00  0.00    -0.361 OA
HETATM   26  H   UNL     1       8.750  32.548  73.940  1.00  0.00     0.217 HD
ENDBRANCH  20  25
ENDBRANCH  15  17
ENDBRANCH  14  15
ENDBRANCH   9  14
TORSDOF 5
ENDMDL
MODEL 3
REMARK VINA RESULT:      -9.0      1.628      2.148
REMARK  5 active torsions:
REMARK  status: ('A' for Active; 'I' for Inactive)
REMARK    1  A    between atoms: C_9  and  C_10 
REMARK    2  A    between atoms: C_10  and  N_11 
REMARK    3  A    between atoms: N_11  and  C_12 
REMARK    4  A    between atoms: C_13  and  O_14 
REMARK    5  A    between atoms: C_16  and  O_17 
ROOT
HETATM    1  C   UNL     1       8.182  20.202  55.178  1.00  0.00     0.048 C 
HETATM    2  C   UNL     1       8.019  21.612  54.690  1.00  0.00    -0.061 A 
HETATM    3  C   UNL     1       7.885  22.672  55.600  1.00  0.00     0.020 A 
HETATM    4  C   UNL     1       7.766  23.988  55.142  1.00  0.00    -0.008 A 
HETATM    5  C   UNL     1       7.793  24.241  53.767  1.00  0.00     0.045 A 
HETATM    6  N   UNL     1       7.689  25.560  53.313  1.00  0.00    -0.322 N 
HETATM    7  C   UNL     1       7.564  26.644  54.142  1.00  0.00     0.253 A 
HETATM    8  O   UNL     1       7.526  27.781  53.681  1.00  0.00    -0.268 OA
HETATM    9  C   UNL     1       7.499  26.374  55.609  1.00  0.00     0.024 A 
HETATM   10  C   UNL     1       7.618  25.112  56.066  1.00  0.00     0.027 A 
HETATM   11  C   UNL     1       7.937  23.200  52.852  1.00  0.00     0.031 A 
HETATM   12  C   UNL     1       8.054  21.889  53.317  1.00  0.00     0.009 A 
HETATM   13  H   UNL     1       7.724  25.764  52.324  1.00  0.00     0.169 HD
ENDROOT
BRANCH   9  14
HETATM   14  C   UNL     1       7.368  27.565  56.513  1.00  0.00     0.136 C 
BRANCH  14  15
HETATM   15  N   UNL     1       8.687  28.179  56.668  1.00  0.00    -0.286 NA
HETATM   16  H   UNL     1       9.103  28.398  55.761  1.00  0.00     0.128 HD
BRANCH  15  17
HETATM   17  C   UNL     1       8.818  29.307  57.501  1.00  0.00     0.042 A 
HETATM   18  C   UNL     1       9.973  30.097  57.347  1.00  0.00     0.089 A 
HETATM   19  C   UNL     1      10.199  31.254  58.084  1.00  0.00     0.074 A 
HETATM   20  C   UNL     1       9.255  31.623  59.031  1.00  0.00     0.068 A 
HETATM   21  C   UNL     1       8.117  30.851  59.240  1.00  0.00     0.038 A 
HETATM   22  C   UNL     1       7.902  29.692  58.483  1.00  0.00     0.029 A 
BRANCH  18  23
HETATM   23  O   UNL     1      10.942  29.687  56.467  1.00  0.00    -0.359 OA
HETATM   24  H   UNL     1      11.684  30.300  56.642  1.00  0.00     0.218 HD
ENDBRANCH  18  23
BRANCH  20  25
HETATM   25  O   UNL     1       9.414  32.741  59.796  1.00  0.00    -0.361 OA
HETATM   26  H   UNL     1      10.059  32.543  60.496  1.00  0.00     0.217 HD
ENDBRANCH  20  25
ENDBRANCH  15  17
ENDBRANCH  14  15
ENDBRANCH   9  14
TORSDOF 5
ENDMDL
MODEL 4
REMARK VINA RESULT:      -8.9      2.269      3.050
REMARK  5 active torsions:
REMARK  status: ('A' for Active; 'I' for Inactive)
REMARK    1  A    between atoms: C_9  and  C_10 
REMARK    2  A    between atoms: C_10  and  N_11 
REMARK    3  A    between atoms: N_11  and  C_12 
REMARK    4  A    between atoms: C_13  and  O_14 
REMARK    5  A    between atoms: C_16  and  O_17 
ROOT
HETATM    1  C   UNL     1       9.095  20.366  55.508  1.00  0.00     0.048 C 
HETATM    2  C   UNL     1       8.330  21.534  54.958  1.00  0.00    -0.061 A 
HETATM    3  C   UNL     1       7.903  22.570  55.803  1.00  0.00     0.020 A 
HETATM    4  C   UNL     1       7.220  23.673  55.281  1.00  0.00    -0.008 A 
HETATM    5  C   UNL     1       6.975  23.740  53.906  1.00  0.00     0.045 A 
HETATM    6  N   UNL     1       6.304  24.852  53.386  1.00  0.00    -0.322 N 
HETATM    7  C   UNL     1       5.865  25.904  54.147  1.00  0.00     0.253 A 
HETATM    8  O   UNL     1       5.326  26.873  53.622  1.00  0.00    -0.268 OA
HETATM    9  C   UNL     1       6.094  25.818  55.621  1.00  0.00     0.024 A 
HETATM   10  C   UNL     1       6.757  24.764  56.137  1.00  0.00     0.027 A 
HETATM   11  C   UNL     1       7.402  22.725  53.054  1.00  0.00     0.031 A 
HETATM   12  C   UNL     1       8.083  21.627  53.581  1.00  0.00     0.009 A 
HETATM   13  H   UNL     1       6.133  24.927  52.393  1.00  0.00     0.169 HD
ENDROOT
BRANCH   9  14
HETATM   14  C   UNL     1       5.618  26.974  56.450  1.00  0.00     0.136 C 
BRANCH  14  15
HETATM   15  N   UNL     1       6.142  28.210  55.870  1.00  0.00    -0.286 NA
HETATM   16  H   UNL     1       5.509  28.995  56.033  1.00  0.00     0.128 HD
BRANCH  15  17
HETATM   17  C   UNL     1       7.449  28.617  56.203  1.00  0.00     0.042 A 
HETATM   18  C   UNL     1       8.348  28.846  55.145  1.00  0.00     0.089 A 
HETATM   19  C   UNL     1       9.652  29.285  55.344  1.00  0.00     0.074 A 
HETATM   20  C   UNL     1      10.088  29.475  56.648  1.00  0.00     0.068 A 
HETATM   21  C   UNL     1       9.243  29.226  57.724  1.00  0.00     0.038 A 
HETATM   22  C   UNL     1       7.930  28.791  57.504  1.00  0.00     0.029 A 
BRANCH  18  23
HETATM   23  O   UNL     1       7.940  28.581  53.862  1.00  0.00    -0.359 OA
HETATM   24  H   UNL     1       6.978  28.429  53.956  1.00  0.00     0.218 HD
ENDBRANCH  18  23
BRANCH  20  25
HETATM   25  O   UNL     1      11.356  29.896  56.920  1.00  0.00    -0.361 OA
HETATM   26  H   UNL     1      11.486  30.764  56.502  1.00  0.00     0.217 HD
ENDBRANCH  20  25
ENDBRANCH  15  17
ENDBRANCH  14  15
ENDBRANCH   9  14
TORSDOF 5
ENDMDL
MODEL 5
REMARK VINA RESULT:      -8.7      1.734      2.084
REMARK  5 active torsions:
REMARK  status: ('A' for Active; 'I' for Inactive)
REMARK    1  A    between atoms: C_9  and  C_10 
REMARK    2  A    between atoms: C_10  and  N_11 
REMARK    3  A    between atoms: N_11  and  C_12 
REMARK    4  A    between atoms: C_13  and  O_14 
REMARK    5  A    between atoms: C_16  and  O_17 
ROOT
HETATM    1  C   UNL     1       7.947  20.447  52.934  1.00  0.00     0.048 C 
HETATM    2  C   UNL     1       8.034  21.367  54.117  1.00  0.00    -0.061 A 
HETATM    3  C   UNL     1       7.817  22.745  53.967  1.00  0.00     0.020 A 
HETATM    4  C   UNL     1       7.867  23.594  55.077  1.00  0.00    -0.008 A 
HETATM    5  C   UNL     1       8.124  23.057  56.341  1.00  0.00     0.045 A 
HETATM    6  N   UNL     1       8.159  23.908  57.451  1.00  0.00    -0.322 N 
HETATM    7  C   UNL     1       7.948  25.260  57.383  1.00  0.00     0.253 A 
HETATM    8  O   UNL     1       7.944  25.944  58.402  1.00  0.00    -0.268 OA
HETATM    9  C   UNL     1       7.708  25.842  56.028  1.00  0.00     0.024 A 
HETATM   10  C   UNL     1       7.651  25.035  54.951  1.00  0.00     0.027 A 
HETATM   11  C   UNL     1       8.331  21.689  56.507  1.00  0.00     0.031 A 
HETATM   12  C   UNL     1       8.281  20.847  55.395  1.00  0.00     0.009 A 
HETATM   13  H   UNL     1       8.326  23.535  58.375  1.00  0.00     0.169 HD
ENDROOT
BRANCH   9  14
HETATM   14  C   UNL     1       7.472  27.323  55.959  1.00  0.00     0.136 C 
BRANCH  14  15
HETATM   15  N   UNL     1       6.444  27.677  56.938  1.00  0.00    -0.286 NA
HETATM   16  H   UNL     1       6.584  27.180  57.820  1.00  0.00     0.128 HD
BRANCH  15  17
HETATM   17  C   UNL     1       6.218  29.037  57.225  1.00  0.00     0.042 A 
HETATM   18  C   UNL     1       7.084  29.659  58.145  1.00  0.00     0.089 A 
HETATM   19  C   UNL     1       6.985  31.004  58.482  1.00  0.00     0.074 A 
HETATM   20  C   UNL     1       5.969  31.752  57.905  1.00  0.00     0.068 A 
HETATM   21  C   UNL     1       5.071  31.168  57.019  1.00  0.00     0.038 A 
HETATM   22  C   UNL     1       5.189  29.812  56.685  1.00  0.00     0.029 A 
BRANCH  18  23
HETATM   23  O   UNL     1       8.036  28.898  58.774  1.00  0.00    -0.359 OA
HETATM   24  H   UNL     1       7.543  28.101  59.055  1.00  0.00     0.218 HD
ENDBRANCH  18  23
BRANCH  20  25
HETATM   25  O   UNL     1       5.807  33.075  58.195  1.00  0.00    -0.361 OA
HETATM   26  H   UNL     1       4.857  33.279  58.169  1.00  0.00     0.217 HD
ENDBRANCH  20  25
ENDBRANCH  15  17
ENDBRANCH  14  15
ENDBRANCH   9  14
TORSDOF 5
ENDMDL
MODEL 6
REMARK VINA RESULT:      -8.6      4.790      6.385
REMARK  5 active torsions:
REMARK  status: ('A' for Active; 'I' for Inactive)
REMARK    1  A    between atoms: C_9  and  C_10 
REMARK    2  A    between atoms: C_10  and  N_11 
REMARK    3  A    between atoms: N_11  and  C_12 
REMARK    4  A    between atoms: C_13  and  O_14 
REMARK    5  A    between atoms: C_16  and  O_17 
ROOT
HETATM    1  C   UNL     1       8.578  20.365  52.956  1.00  0.00     0.048 C 
HETATM    2  C   UNL     1       8.193  21.608  53.704  1.00  0.00    -0.061 A 
HETATM    3  C   UNL     1       8.108  22.842  53.043  1.00  0.00     0.020 A 
HETATM    4  C   UNL     1       7.716  23.992  53.737  1.00  0.00    -0.008 A 
HETATM    5  C   UNL     1       7.399  23.898  55.095  1.00  0.00     0.045 A 
HETATM    6  N   UNL     1       6.994  25.048  55.782  1.00  0.00    -0.322 N 
HETATM    7  C   UNL     1       6.879  26.283  55.202  1.00  0.00     0.253 A 
HETATM    8  O   UNL     1       6.471  27.242  55.849  1.00  0.00    -0.268 OA
HETATM    9  C   UNL     1       7.252  26.393  53.759  1.00  0.00     0.024 A 
HETATM   10  C   UNL     1       7.624  25.293  53.076  1.00  0.00     0.027 A 
HETATM   11  C   UNL     1       7.469  22.678  55.763  1.00  0.00     0.031 A 
HETATM   12  C   UNL     1       7.862  21.535  55.064  1.00  0.00     0.009 A 
HETATM   13  H   UNL     1       6.744  24.997  56.760  1.00  0.00     0.169 HD
ENDROOT
BRANCH   9  14
HETATM   14  C   UNL     1       7.119  27.747  53.126  1.00  0.00     0.136 C 
BRANCH  14  15
HETATM   15  N   UNL     1       5.733  27.923  52.689  1.00  0.00    -0.286 NA
HETATM   16  H   UNL     1       5.358  28.822  52.998  1.00  0.00     0.128 HD
BRANCH  15  17
HETATM   17  C   UNL     1       5.424  27.758  51.325  1.00  0.00     0.042 A 
HETATM   18  C   UNL     1       5.582  28.876  50.484  1.00  0.00     0.089 A 
HETATM   19  C   UNL     1       5.344  28.828  49.115  1.00  0.00     0.074 A 
HETATM   20  C   UNL     1       4.904  27.632  48.566  1.00  0.00     0.068 A 
HETATM   21  C   UNL     1       4.700  26.514  49.368  1.00  0.00     0.038 A 
HETATM   22  C   UNL     1       4.952  26.578  50.745  1.00  0.00     0.029 A 
BRANCH  18  23
HETATM   23  O   UNL     1       5.940  30.077  51.041  1.00  0.00    -0.359 OA
HETATM   24  H   UNL     1       5.135  30.353  51.525  1.00  0.00     0.218 HD
ENDBRANCH  18  23
BRANCH  20  25
HETATM   25  O   UNL     1       4.642  27.514  47.233  1.00  0.00    -0.361 OA
HETATM   26  H   UNL     1       3.887  28.086  47.018  1.00  0.00     0.217 HD
ENDBRANCH  20  25
ENDBRANCH  15  17
ENDBRANCH  14  15
ENDBRANCH   9  14
TORSDOF 5
ENDMDL
MODEL 7
REMARK VINA RESULT:      -8.6      4.826     10.013
REMARK  5 active torsions:
REMARK  status: ('A' for Active; 'I' for Inactive)
REMARK    1  A    between atoms: C_9  and  C_10 
REMARK    2  A    between atoms: C_10  and  N_11 
REMARK    3  A    between atoms: N_11  and  C_12 
REMARK    4  A    between atoms: C_13  and  O_14 
REMARK    5  A    between atoms: C_16  and  O_17 
ROOT
HETATM    1  C   UNL     1       6.863  34.025  66.729  1.00  0.00     0.048 C 
HETATM    2  C   UNL     1       6.711  33.874  65.243  1.00  0.00    -0.061 A 
HETATM    3  C   UNL     1       7.588  33.055  64.516  1.00  0.00     0.020 A 
HETATM    4  C   UNL     1       7.423  32.891  63.137  1.00  0.00    -0.008 A 
HETATM    5  C   UNL     1       6.369  33.542  62.490  1.00  0.00     0.045 A 
HETATM    6  N   UNL     1       6.198  33.364  61.112  1.00  0.00    -0.322 N 
HETATM    7  C   UNL     1       7.008  32.574  60.339  1.00  0.00     0.253 A 
HETATM    8  O   UNL     1       6.775  32.421  59.144  1.00  0.00    -0.268 OA
HETATM    9  C   UNL     1       8.157  31.906  61.022  1.00  0.00     0.024 A 
HETATM   10  C   UNL     1       8.325  32.050  62.351  1.00  0.00     0.027 A 
HETATM   11  C   UNL     1       5.484  34.349  63.201  1.00  0.00     0.031 A 
HETATM   12  C   UNL     1       5.655  34.510  64.577  1.00  0.00     0.009 A 
HETATM   13  H   UNL     1       5.432  33.812  60.630  1.00  0.00     0.169 HD
ENDROOT
BRANCH   9  14
HETATM   14  C   UNL     1       9.038  31.038  60.172  1.00  0.00     0.136 C 
BRANCH  14  15
HETATM   15  N   UNL     1       8.230  29.947  59.627  1.00  0.00    -0.286 NA
HETATM   16  H   UNL     1       7.239  30.075  59.842  1.00  0.00     0.128 HD
BRANCH  15  17
HETATM   17  C   UNL     1       8.350  29.629  58.260  1.00  0.00     0.042 A 
HETATM   18  C   UNL     1       7.164  29.535  57.508  1.00  0.00     0.089 A 
HETATM   19  C   UNL     1       7.154  29.264  56.145  1.00  0.00     0.074 A 
HETATM   20  C   UNL     1       8.369  29.048  55.510  1.00  0.00     0.068 A 
HETATM   21  C   UNL     1       9.563  29.096  56.223  1.00  0.00     0.038 A 
HETATM   22  C   UNL     1       9.554  29.378  57.596  1.00  0.00     0.029 A 
BRANCH  18  23
HETATM   23  O   UNL     1       5.960  29.669  58.153  1.00  0.00    -0.359 OA
HETATM   24  H   UNL     1       6.214  29.742  59.095  1.00  0.00     0.218 HD
ENDBRANCH  18  23
BRANCH  20  25
HETATM   25  O   UNL     1       8.437  28.770  54.177  1.00  0.00    -0.361 OA
HETATM   26  H   UNL     1       7.571  28.432  53.891  1.00  0.00     0.217 HD
ENDBRANCH  20  25
ENDBRANCH  15  17
ENDBRANCH  14  15
ENDBRANCH   9  14
TORSDOF 5
ENDMDL
MODEL 8
REMARK VINA RESULT:      -8.5      3.614      4.440
REMARK  5 active torsions:
REMARK  status: ('A' for Active; 'I' for Inactive)
REMARK    1  A    between atoms: C_9  and  C_10 
REMARK    2  A    between atoms: C_10  and  N_11 
REMARK    3  A    between atoms: N_11  and  C_12 
REMARK    4  A    between atoms: C_13  and  O_14 
REMARK    5  A    between atoms: C_16  and  O_17 
ROOT
HETATM    1  C   UNL     1       8.462  20.343  52.879  1.00  0.00     0.048 C 
HETATM    2  C   UNL     1       8.343  21.656  53.596  1.00  0.00    -0.061 A 
HETATM    3  C   UNL     1       7.619  22.716  53.030  1.00  0.00     0.020 A 
HETATM    4  C   UNL     1       7.482  23.927  53.717  1.00  0.00    -0.008 A 
HETATM    5  C   UNL     1       8.065  24.069  54.980  1.00  0.00     0.045 A 
HETATM    6  N   UNL     1       7.913  25.276  55.670  1.00  0.00    -0.322 N 
HETATM    7  C   UNL     1       7.214  26.350  55.185  1.00  0.00     0.253 A 
HETATM    8  O   UNL     1       7.078  27.364  55.861  1.00  0.00    -0.268 OA
HETATM    9  C   UNL     1       6.621  26.214  53.820  1.00  0.00     0.024 A 
HETATM   10  C   UNL     1       6.739  25.051  53.149  1.00  0.00     0.027 A 
HETATM   11  C   UNL     1       8.777  23.021  55.559  1.00  0.00     0.031 A 
HETATM   12  C   UNL     1       8.910  21.816  54.868  1.00  0.00     0.009 A 
HETATM   13  H   UNL     1       8.312  25.391  56.591  1.00  0.00     0.169 HD
ENDROOT
BRANCH   9  14
HETATM   14  C   UNL     1       5.852  27.390  53.295  1.00  0.00     0.136 C 
BRANCH  14  15
HETATM   15  N   UNL     1       4.539  27.414  53.941  1.00  0.00    -0.286 NA
HETATM   16  H   UNL     1       4.463  26.687  54.655  1.00  0.00     0.128 HD
BRANCH  15  17
HETATM   17  C   UNL     1       4.072  28.625  54.488  1.00  0.00     0.042 A 
HETATM   18  C   UNL     1       3.944  28.698  55.888  1.00  0.00     0.089 A 
HETATM   19  C   UNL     1       3.529  29.848  56.549  1.00  0.00     0.074 A 
HETATM   20  C   UNL     1       3.200  30.960  55.786  1.00  0.00     0.068 A 
HETATM   21  C   UNL     1       3.278  30.919  54.398  1.00  0.00     0.038 A 
HETATM   22  C   UNL     1       3.705  29.752  53.750  1.00  0.00     0.029 A 
BRANCH  18  23
HETATM   23  O   UNL     1       4.193  27.574  56.634  1.00  0.00    -0.359 OA
HETATM   24  H   UNL     1       4.673  26.989  56.013  1.00  0.00     0.218 HD
ENDBRANCH  18  23
BRANCH  20  25
HETATM   25  O   UNL     1       2.778  32.121  56.365  1.00  0.00    -0.361 OA
HETATM   26  H   UNL     1       2.049  32.480  55.832  1.00  0.00     0.217 HD
ENDBRANCH  20  25
ENDBRANCH  15  17
ENDBRANCH  14  15
ENDBRANCH   9  14
TORSDOF 5
ENDMDL
MODEL 9
REMARK VINA RESULT:      -8.5      3.319      4.331
REMARK  5 active torsions:
REMARK  status: ('A' for Active; 'I' for Inactive)
REMARK    1  A    between atoms: C_9  and  C_10 
REMARK    2  A    between atoms: C_10  and  N_11 
REMARK    3  A    between atoms: N_11  and  C_12 
REMARK    4  A    between atoms: C_13  and  O_14 
REMARK    5  A    between atoms: C_16  and  O_17 
ROOT
HETATM    1  C   UNL     1       8.343  20.334  52.889  1.00  0.00     0.048 C 
HETATM    2  C   UNL     1       8.316  21.274  54.058  1.00  0.00    -0.061 A 
HETATM    3  C   UNL     1       8.016  22.633  53.875  1.00  0.00     0.020 A 
HETATM    4  C   UNL     1       7.959  23.499  54.971  1.00  0.00    -0.008 A 
HETATM    5  C   UNL     1       8.193  22.997  56.255  1.00  0.00     0.045 A 
HETATM    6  N   UNL     1       8.121  23.865  57.350  1.00  0.00    -0.322 N 
HETATM    7  C   UNL     1       7.825  25.199  57.249  1.00  0.00     0.253 A 
HETATM    8  O   UNL     1       7.729  25.895  58.255  1.00  0.00    -0.268 OA
HETATM    9  C   UNL     1       7.610  25.745  55.876  1.00  0.00     0.024 A 
HETATM   10  C   UNL     1       7.656  24.920  54.811  1.00  0.00     0.027 A 
HETATM   11  C   UNL     1       8.481  21.649  56.453  1.00  0.00     0.031 A 
HETATM   12  C   UNL     1       8.538  20.790  55.354  1.00  0.00     0.009 A 
HETATM   13  H   UNL     1       8.270  23.517  58.287  1.00  0.00     0.169 HD
ENDROOT
BRANCH   9  14
HETATM   14  C   UNL     1       7.281  27.205  55.770  1.00  0.00     0.136 C 
BRANCH  14  15
HETATM   15  N   UNL     1       5.852  27.380  56.031  1.00  0.00    -0.286 NA
HETATM   16  H   UNL     1       5.678  27.601  57.013  1.00  0.00     0.128 HD
BRANCH  15  17
HETATM   17  C   UNL     1       5.122  28.285  55.236  1.00  0.00     0.042 A 
HETATM   18  C   UNL     1       4.422  27.761  54.132  1.00  0.00     0.089 A 
HETATM   19  C   UNL     1       3.638  28.546  53.295  1.00  0.00     0.074 A 
HETATM   20  C   UNL     1       3.570  29.909  53.547  1.00  0.00     0.068 A 
HETATM   21  C   UNL     1       4.275  30.473  54.606  1.00  0.00     0.038 A 
HETATM   22  C   UNL     1       5.055  29.665  55.443  1.00  0.00     0.029 A 
BRANCH  18  23
HETATM   23  O   UNL     1       4.554  26.428  53.838  1.00  0.00    -0.359 OA
HETATM   24  H   UNL     1       3.756  26.026  54.236  1.00  0.00     0.218 HD
ENDBRANCH  18  23
BRANCH  20  25
HETATM   25  O   UNL     1       2.827  30.742  52.763  1.00  0.00    -0.361 OA
HETATM   26  H   UNL     1       2.287  31.306  53.343  1.00  0.00     0.217 HD
ENDBRANCH  20  25
ENDBRANCH  15  17
ENDBRANCH  14  15
ENDBRANCH   9  14
TORSDOF 5
ENDMDL
MODEL 10
REMARK VINA RESULT:      -8.3      2.411      3.155
REMARK  5 active torsions:
REMARK  status: ('A' for Active; 'I' for Inactive)
REMARK    1  A    between atoms: C_9  and  C_10 
REMARK    2  A    between atoms: C_10  and  N_11 
REMARK    3  A    between atoms: N_11  and  C_12 
REMARK    4  A    between atoms: C_13  and  O_14 
REMARK    5  A    between atoms: C_16  and  O_17 
ROOT
HETATM    1  C   UNL     1       8.584  20.327  56.204  1.00  0.00     0.048 C 
HETATM    2  C   UNL     1       8.081  21.400  55.283  1.00  0.00    -0.061 A 
HETATM    3  C   UNL     1       7.555  22.595  55.799  1.00  0.00     0.020 A 
HETATM    4  C   UNL     1       7.118  23.605  54.937  1.00  0.00    -0.008 A 
HETATM    5  C   UNL     1       7.220  23.420  53.555  1.00  0.00     0.045 A 
HETATM    6  N   UNL     1       6.795  24.440  52.696  1.00  0.00    -0.322 N 
HETATM    7  C   UNL     1       6.280  25.634  53.126  1.00  0.00     0.253 A 
HETATM    8  O   UNL     1       5.970  26.507  52.321  1.00  0.00    -0.268 OA
HETATM    9  C   UNL     1       6.136  25.821  54.602  1.00  0.00     0.024 A 
HETATM   10  C   UNL     1       6.559  24.858  55.444  1.00  0.00     0.027 A 
HETATM   11  C   UNL     1       7.750  22.244  53.029  1.00  0.00     0.031 A 
HETATM   12  C   UNL     1       8.183  21.239  53.895  1.00  0.00     0.009 A 
HETATM   13  H   UNL     1       6.877  24.332  51.695  1.00  0.00     0.169 HD
ENDROOT
BRANCH   9  14
HETATM   14  C   UNL     1       5.577  27.132  55.068  1.00  0.00     0.136 C 
BRANCH  14  15
HETATM   15  N   UNL     1       5.687  27.194  56.526  1.00  0.00    -0.286 NA
HETATM   16  H   UNL     1       6.266  26.433  56.887  1.00  0.00     0.128 HD
BRANCH  15  17
HETATM   17  C   UNL     1       6.110  28.396  57.126  1.00  0.00     0.042 A 
HETATM   18  C   UNL     1       7.376  28.405  57.741  1.00  0.00     0.089 A 
HETATM   19  C   UNL     1       7.918  29.539  58.334  1.00  0.00     0.074 A 
HETATM   20  C   UNL     1       7.160  30.701  58.343  1.00  0.00     0.068 A 
HETATM   21  C   UNL     1       5.889  30.725  57.779  1.00  0.00     0.038 A 
HETATM   22  C   UNL     1       5.361  29.574  57.179  1.00  0.00     0.029 A 
BRANCH  18  23
HETATM   23  O   UNL     1       8.090  27.235  57.801  1.00  0.00    -0.359 OA
HETATM   24  H   UNL     1       7.885  26.799  56.948  1.00  0.00     0.218 HD
ENDBRANCH  18  23
BRANCH  20  25
HETATM   25  O   UNL     1       7.624  31.849  58.914  1.00  0.00    -0.361 OA
HETATM   26  H   UNL     1       8.595  31.846  58.862  1.00  0.00     0.217 HD
ENDBRANCH  20  25
ENDBRANCH  15  17
ENDBRANCH  14  15
ENDBRANCH   9  14
TORSDOF 5
ENDMDL
