MODEL 1
REMARK VINA RESULT:      -9.3      0.000      0.000
REMARK  8 active torsions:
REMARK  status: ('A' for Active; 'I' for Inactive)
REMARK    1  A    between atoms: O_1  and  C_2 
REMARK    2  A    between atoms: C_2  and  CA_3 
REMARK    3  A    between atoms: CA_3  and  N_4 
REMARK    4  A    between atoms: CA_3  and  C_23 
REMARK       I    between atoms: N_4  and  C_5 
REMARK    5  A    between atoms: C_5  and  C_7 
REMARK    6  A    between atoms: C_10  and  C_17 
REMARK    7  A    between atoms: C_11  and  O_12 
REMARK    8  A    between atoms: O_12  and  C_13 
ROOT
HETATM    1  C   UNL     1       7.616  25.164  56.671  1.00  0.00     0.034 A 
HETATM    2  C   UNL     1       8.459  24.127  57.080  1.00  0.00     0.018 A 
HETATM    3  C   UNL     1       8.642  23.003  56.267  1.00  0.00     0.016 A 
HETATM    4  C   UNL     1       7.974  22.885  55.037  1.00  0.00     0.011 A 
HETATM    5  C   UNL     1       7.095  23.914  54.653  1.00  0.00     0.087 A 
HETATM    6  C   UNL     1       6.929  25.052  55.456  1.00  0.00     0.054 A 
ENDROOT
BRANCH   1   7
HETATM    7  C   UNL     1       7.465  26.352  57.561  1.00  0.00     0.252 C 
HETATM    8  N   UNL     1       7.118  27.532  56.941  1.00  0.00    -0.346 N 
HETATM    9  H   UNL     1       7.322  27.615  55.955  1.00  0.00     0.163 HD
HETATM   10  O   UNL     1       7.687  26.243  58.761  1.00  0.00    -0.268 OA
BRANCH   8  11
HETATM   11  CA  UNL     1       7.048  28.811  57.649  1.00  0.00     0.141 C 
BRANCH  11  12
HETATM   12  C   UNL     1       5.817  29.638  57.217  1.00  0.00     0.194 C 
BRANCH  12  13
HETATM   13  O   UNL     1       4.644  29.147  57.880  1.00  0.00    -0.399 OA
HETATM   14  H   UNL     1       4.956  28.546  58.578  1.00  0.00     0.209 HD
ENDBRANCH  12  13
ENDBRANCH  11  12
BRANCH  11  15
HETATM   15  C   UNL     1       8.388  29.530  57.648  1.00  0.00    -0.033 A 
HETATM   16  C   UNL     1       9.452  29.159  56.814  1.00  0.00     0.009 A 
HETATM   17  C   UNL     1      10.661  29.860  56.840  1.00  0.00     0.001 A 
HETATM   18  C   UNL     1      10.831  30.933  57.710  1.00  0.00     0.000 A 
HETATM   19  C   UNL     1       9.793  31.305  58.561  1.00  0.00     0.001 A 
HETATM   20  C   UNL     1       8.583  30.608  58.531  1.00  0.00     0.009 A 
ENDBRANCH  11  15
ENDBRANCH   8  11
ENDBRANCH   1   7
BRANCH   5  21
HETATM   21  O   UNL     1       6.446  23.830  53.445  1.00  0.00    -0.289 OA
BRANCH  21  22
HETATM   22  C   UNL     1       6.644  24.986  52.642  1.00  0.00     0.505 C 
HETATM   23  F   UNL     1       7.775  24.817  51.911  1.00  0.00    -0.184 F 
HETATM   24  F   UNL     1       5.619  25.043  51.755  1.00  0.00    -0.184 F 
ENDBRANCH  21  22
ENDBRANCH   5  21
BRANCH   4  25
HETATM   25  C   UNL     1       8.203  21.713  54.204  1.00  0.00     0.013 A 
HETATM   26  C   UNL     1       8.833  20.477  54.485  1.00  0.00     0.152 A 
HETATM   27  N   UNL     1       8.836  19.649  53.436  1.00  0.00    -0.187 NA
HETATM   28  N   UNL     1       8.207  20.348  52.480  1.00  0.00    -0.289 N 
HETATM   29  H   UNL     1       8.085  19.915  51.570  1.00  0.00     0.188 HD
HETATM   30  C   UNL     1       7.811  21.590  52.886  1.00  0.00     0.123 A 
ENDBRANCH   4  25
TORSDOF 8
ENDMDL
MODEL 2
REMARK VINA RESULT:      -9.1      3.587      8.450
REMARK  8 active torsions:
REMARK  status: ('A' for Active; 'I' for Inactive)
REMARK    1  A    between atoms: O_1  and  C_2 
REMARK    2  A    between atoms: C_2  and  CA_3 
REMARK    3  A    between atoms: CA_3  and  N_4 
REMARK    4  A    between atoms: CA_3  and  C_23 
REMARK       I    between atoms: N_4  and  C_5 
REMARK    5  A    between atoms: C_5  and  C_7 
REMARK    6  A    between atoms: C_10  and  C_17 
REMARK    7  A    between atoms: C_11  and  O_12 
REMARK    8  A    between atoms: O_12  and  C_13 
ROOT
HETATM    1  C   UNL     1       7.074  28.237  55.694  1.00  0.00     0.034 A 
HETATM    2  C   UNL     1       6.001  28.871  56.327  1.00  0.00     0.018 A 
HETATM    3  C   UNL     1       6.219  29.675  57.450  1.00  0.00     0.016 A 
HETATM    4  C   UNL     1       7.510  29.849  57.975  1.00  0.00     0.011 A 
HETATM    5  C   UNL     1       8.579  29.174  57.357  1.00  0.00     0.087 A 
HETATM    6  C   UNL     1       8.364  28.386  56.217  1.00  0.00     0.054 A 
ENDROOT
BRANCH   1   7
HETATM    7  C   UNL     1       6.798  27.405  54.487  1.00  0.00     0.252 C 
HETATM    8  N   UNL     1       6.415  26.103  54.725  1.00  0.00    -0.346 N 
HETATM    9  H   UNL     1       6.671  25.700  55.615  1.00  0.00     0.163 HD
HETATM   10  O   UNL     1       6.955  27.884  53.371  1.00  0.00    -0.268 OA
BRANCH   8  11
HETATM   11  CA  UNL     1       6.225  25.123  53.655  1.00  0.00     0.141 C 
BRANCH  11  12
HETATM   12  C   UNL     1       4.740  25.007  53.243  1.00  0.00     0.194 C 
BRANCH  12  13
HETATM   13  O   UNL     1       4.174  26.316  53.093  1.00  0.00    -0.399 OA
HETATM   14  H   UNL     1       4.013  26.649  53.993  1.00  0.00     0.209 HD
ENDBRANCH  12  13
ENDBRANCH  11  12
BRANCH  11  15
HETATM   15  C   UNL     1       6.955  23.821  53.945  1.00  0.00    -0.033 A 
HETATM   16  C   UNL     1       7.162  23.336  55.244  1.00  0.00     0.009 A 
HETATM   17  C   UNL     1       7.829  22.126  55.460  1.00  0.00     0.001 A 
HETATM   18  C   UNL     1       8.311  21.390  54.381  1.00  0.00     0.000 A 
HETATM   19  C   UNL     1       8.133  21.865  53.084  1.00  0.00     0.001 A 
HETATM   20  C   UNL     1       7.463  23.070  52.868  1.00  0.00     0.009 A 
ENDBRANCH  11  15
ENDBRANCH   8  11
ENDBRANCH   1   7
BRANCH   5  21
HETATM   21  O   UNL     1       9.853  29.345  57.840  1.00  0.00    -0.289 OA
BRANCH  21  22
HETATM   22  C   UNL     1      10.659  30.135  56.975  1.00  0.00     0.505 C 
HETATM   23  F   UNL     1      10.637  31.418  57.416  1.00  0.00    -0.184 F 
HETATM   24  F   UNL     1      11.938  29.705  57.109  1.00  0.00    -0.184 F 
ENDBRANCH  21  22
ENDBRANCH   5  21
BRANCH   4  25
HETATM   25  C   UNL     1       7.706  30.710  59.133  1.00  0.00     0.013 A 
HETATM   26  C   UNL     1       8.476  30.534  60.307  1.00  0.00     0.152 A 
HETATM   27  N   UNL     1       8.394  31.575  61.140  1.00  0.00    -0.187 NA
HETATM   28  N   UNL     1       7.573  32.424  60.504  1.00  0.00    -0.289 N 
HETATM   29  H   UNL     1       7.356  33.308  60.953  1.00  0.00     0.188 HD
HETATM   30  C   UNL     1       7.131  31.953  59.301  1.00  0.00     0.123 A 
ENDBRANCH   4  25
TORSDOF 8
ENDMDL
MODEL 3
REMARK VINA RESULT:      -9.0      7.317     11.942
REMARK  8 active torsions:
REMARK  status: ('A' for Active; 'I' for Inactive)
REMARK    1  A    between atoms: O_1  and  C_2 
REMARK    2  A    between atoms: C_2  and  CA_3 
REMARK    3  A    between atoms: CA_3  and  N_4 
REMARK    4  A    between atoms: CA_3  and  C_23 
REMARK       I    between atoms: N_4  and  C_5 
REMARK    5  A    between atoms: C_5  and  C_7 
REMARK    6  A    between atoms: C_10  and  C_17 
REMARK    7  A    between atoms: C_11  and  O_12 
REMARK    8  A    between atoms: O_12  and  C_13 
ROOT
HETATM    1  C   UNL     1       7.352  31.955  62.744  1.00  0.00     0.034 A 
HETATM    2  C   UNL     1       8.027  32.701  63.714  1.00  0.00     0.018 A 
HETATM    3  C   UNL     1       7.313  33.487  64.624  1.00  0.00     0.016 A 
HETATM    4  C   UNL     1       5.911  33.557  64.572  1.00  0.00     0.011 A 
HETATM    5  C   UNL     1       5.242  32.837  63.566  1.00  0.00     0.087 A 
HETATM    6  C   UNL     1       5.956  32.030  62.668  1.00  0.00     0.054 A 
ENDROOT
BRANCH   1   7
HETATM    7  C   UNL     1       8.154  31.115  61.807  1.00  0.00     0.252 C 
HETATM    8  N   UNL     1       7.833  31.225  60.471  1.00  0.00    -0.346 N 
HETATM    9  H   UNL     1       6.908  31.561  60.243  1.00  0.00     0.163 HD
HETATM   10  O   UNL     1       9.010  30.359  62.250  1.00  0.00    -0.268 OA
BRANCH   8  11
HETATM   11  CA  UNL     1       8.438  30.384  59.438  1.00  0.00     0.141 C 
BRANCH  11  12
HETATM   12  C   UNL     1       9.684  31.053  58.813  1.00  0.00     0.194 C 
BRANCH  12  13
HETATM   13  O   UNL     1       9.630  32.471  59.022  1.00  0.00    -0.399 OA
HETATM   14  H   UNL     1      10.220  32.660  59.772  1.00  0.00     0.209 HD
ENDBRANCH  12  13
ENDBRANCH  11  12
BRANCH  11  15
HETATM   15  C   UNL     1       7.399  29.843  58.469  1.00  0.00    -0.033 A 
HETATM   16  C   UNL     1       7.458  28.549  57.932  1.00  0.00     0.009 A 
HETATM   17  C   UNL     1       6.470  28.091  57.055  1.00  0.00     0.001 A 
HETATM   18  C   UNL     1       5.417  28.925  56.689  1.00  0.00     0.000 A 
HETATM   19  C   UNL     1       5.351  30.219  57.196  1.00  0.00     0.001 A 
HETATM   20  C   UNL     1       6.334  30.675  58.077  1.00  0.00     0.009 A 
ENDBRANCH  11  15
ENDBRANCH   8  11
ENDBRANCH   1   7
BRANCH   5  21
HETATM   21  O   UNL     1       3.871  32.874  63.509  1.00  0.00    -0.289 OA
BRANCH  21  22
HETATM   22  C   UNL     1       3.394  33.532  62.342  1.00  0.00     0.505 C 
HETATM   23  F   UNL     1       2.088  33.850  62.528  1.00  0.00    -0.184 F 
HETATM   24  F   UNL     1       4.065  34.707  62.237  1.00  0.00    -0.184 F 
ENDBRANCH  21  22
ENDBRANCH   5  21
BRANCH   4  25
HETATM   25  C   UNL     1       5.195  34.368  65.548  1.00  0.00     0.013 A 
HETATM   26  C   UNL     1       4.710  35.696  65.481  1.00  0.00     0.152 A 
HETATM   27  N   UNL     1       4.093  36.077  66.604  1.00  0.00    -0.187 NA
HETATM   28  N   UNL     1       4.179  34.997  67.394  1.00  0.00    -0.289 N 
HETATM   29  H   UNL     1       3.771  35.047  68.322  1.00  0.00     0.188 HD
HETATM   30  C   UNL     1       4.831  33.948  66.811  1.00  0.00     0.123 A 
ENDBRANCH   4  25
TORSDOF 8
ENDMDL
MODEL 4
REMARK VINA RESULT:      -9.0      4.291      7.142
REMARK  8 active torsions:
REMARK  status: ('A' for Active; 'I' for Inactive)
REMARK    1  A    between atoms: O_1  and  C_2 
REMARK    2  A    between atoms: C_2  and  CA_3 
REMARK    3  A    between atoms: CA_3  and  N_4 
REMARK    4  A    between atoms: CA_3  and  C_23 
REMARK       I    between atoms: N_4  and  C_5 
REMARK    5  A    between atoms: C_5  and  C_7 
REMARK    6  A    between atoms: C_10  and  C_17 
REMARK    7  A    between atoms: C_11  and  O_12 
REMARK    8  A    between atoms: O_12  and  C_13 
ROOT
HETATM    1  C   UNL     1       6.341  25.991  52.767  1.00  0.00     0.034 A 
HETATM    2  C   UNL     1       7.205  25.182  52.024  1.00  0.00     0.018 A 
HETATM    3  C   UNL     1       7.752  24.026  52.590  1.00  0.00     0.016 A 
HETATM    4  C   UNL     1       7.460  23.663  53.915  1.00  0.00     0.011 A 
HETATM    5  C   UNL     1       6.622  24.506  54.670  1.00  0.00     0.087 A 
HETATM    6  C   UNL     1       6.056  25.653  54.095  1.00  0.00     0.054 A 
ENDROOT
BRANCH   1   7
HETATM    7  C   UNL     1       5.766  27.204  52.116  1.00  0.00     0.252 C 
HETATM    8  N   UNL     1       4.664  26.997  51.316  1.00  0.00    -0.346 N 
HETATM    9  H   UNL     1       4.529  26.067  50.945  1.00  0.00     0.163 HD
HETATM   10  O   UNL     1       6.302  28.293  52.282  1.00  0.00    -0.268 OA
BRANCH   8  11
HETATM   11  CA  UNL     1       4.056  28.058  50.512  1.00  0.00     0.141 C 
BRANCH  11  12
HETATM   12  C   UNL     1       3.205  29.015  51.378  1.00  0.00     0.194 C 
BRANCH  12  13
HETATM   13  O   UNL     1       2.324  28.256  52.218  1.00  0.00    -0.399 OA
HETATM   14  H   UNL     1       1.433  28.623  52.082  1.00  0.00     0.209 HD
ENDBRANCH  12  13
ENDBRANCH  11  12
BRANCH  11  15
HETATM   15  C   UNL     1       3.397  27.509  49.257  1.00  0.00    -0.033 A 
HETATM   16  C   UNL     1       2.353  28.168  48.592  1.00  0.00     0.009 A 
HETATM   17  C   UNL     1       1.788  27.629  47.432  1.00  0.00     0.001 A 
HETATM   18  C   UNL     1       2.247  26.416  46.928  1.00  0.00     0.000 A 
HETATM   19  C   UNL     1       3.269  25.735  47.585  1.00  0.00     0.001 A 
HETATM   20  C   UNL     1       3.838  26.276  48.740  1.00  0.00     0.009 A 
ENDBRANCH  11  15
ENDBRANCH   8  11
ENDBRANCH   1   7
BRANCH   5  21
HETATM   21  O   UNL     1       6.307  24.161  55.961  1.00  0.00    -0.289 OA
BRANCH  21  22
HETATM   22  C   UNL     1       5.961  25.289  56.754  1.00  0.00     0.505 C 
HETATM   23  F   UNL     1       4.803  25.017  57.410  1.00  0.00    -0.184 F 
HETATM   24  F   UNL     1       6.918  25.424  57.705  1.00  0.00    -0.184 F 
ENDBRANCH  21  22
ENDBRANCH   5  21
BRANCH   4  25
HETATM   25  C   UNL     1       8.027  22.441  54.469  1.00  0.00     0.013 A 
HETATM   26  C   UNL     1       8.832  22.221  55.611  1.00  0.00     0.152 A 
HETATM   27  N   UNL     1       9.146  20.933  55.782  1.00  0.00    -0.187 NA
HETATM   28  N   UNL     1       8.543  20.322  54.752  1.00  0.00    -0.289 N 
HETATM   29  H   UNL     1       8.640  19.316  54.666  1.00  0.00     0.188 HD
HETATM   30  C   UNL     1       7.863  21.180  53.934  1.00  0.00     0.123 A 
ENDBRANCH   4  25
TORSDOF 8
ENDMDL
MODEL 5
REMARK VINA RESULT:      -8.5      3.578      8.371
REMARK  8 active torsions:
REMARK  status: ('A' for Active; 'I' for Inactive)
REMARK    1  A    between atoms: O_1  and  C_2 
REMARK    2  A    between atoms: C_2  and  CA_3 
REMARK    3  A    between atoms: CA_3  and  N_4 
REMARK    4  A    between atoms: CA_3  and  C_23 
REMARK       I    between atoms: N_4  and  C_5 
REMARK    5  A    between atoms: C_5  and  C_7 
REMARK    6  A    between atoms: C_10  and  C_17 
REMARK    7  A    between atoms: C_11  and  O_12 
REMARK    8  A    between atoms: O_12  and  C_13 
ROOT
HETATM    1  C   UNL     1       7.433  28.455  55.896  1.00  0.00     0.034 A 
HETATM    2  C   UNL     1       8.750  28.352  56.353  1.00  0.00     0.018 A 
HETATM    3  C   UNL     1       9.172  29.089  57.464  1.00  0.00     0.016 A 
HETATM    4  C   UNL     1       8.293  29.956  58.132  1.00  0.00     0.011 A 
HETATM    5  C   UNL     1       6.981  30.086  57.641  1.00  0.00     0.087 A 
HETATM    6  C   UNL     1       6.550  29.330  56.541  1.00  0.00     0.054 A 
ENDROOT
BRANCH   1   7
HETATM    7  C   UNL     1       7.021  27.636  54.720  1.00  0.00     0.252 C 
HETATM    8  N   UNL     1       6.802  26.298  54.961  1.00  0.00    -0.346 N 
HETATM    9  H   UNL     1       7.246  25.895  55.773  1.00  0.00     0.163 HD
HETATM   10  O   UNL     1       6.934  28.161  53.616  1.00  0.00    -0.268 OA
BRANCH   8  11
HETATM   11  CA  UNL     1       6.511  25.337  53.896  1.00  0.00     0.141 C 
BRANCH  11  12
HETATM   12  C   UNL     1       4.992  25.103  53.736  1.00  0.00     0.194 C 
BRANCH  12  13
HETATM   13  O   UNL     1       4.376  26.275  53.186  1.00  0.00    -0.399 OA
HETATM   14  H   UNL     1       4.596  27.008  53.786  1.00  0.00     0.209 HD
ENDBRANCH  12  13
ENDBRANCH  11  12
BRANCH  11  15
HETATM   15  C   UNL     1       7.384  24.096  54.002  1.00  0.00    -0.033 A 
HETATM   16  C   UNL     1       8.231  23.850  55.092  1.00  0.00     0.009 A 
HETATM   17  C   UNL     1       9.006  22.688  55.150  1.00  0.00     0.001 A 
HETATM   18  C   UNL     1       8.956  21.760  54.113  1.00  0.00     0.000 A 
HETATM   19  C   UNL     1       8.136  21.995  53.013  1.00  0.00     0.001 A 
HETATM   20  C   UNL     1       7.358  23.154  52.957  1.00  0.00     0.009 A 
ENDBRANCH  11  15
ENDBRANCH   8  11
ENDBRANCH   1   7
BRANCH   5  21
HETATM   21  O   UNL     1       6.098  30.913  58.290  1.00  0.00    -0.289 OA
BRANCH  21  22
HETATM   22  C   UNL     1       4.851  31.013  57.613  1.00  0.00     0.505 C 
HETATM   23  F   UNL     1       3.886  30.482  58.406  1.00  0.00    -0.184 F 
HETATM   24  F   UNL     1       4.563  32.333  57.489  1.00  0.00    -0.184 F 
ENDBRANCH  21  22
ENDBRANCH   5  21
BRANCH   4  25
HETATM   25  C   UNL     1       8.758  30.693  59.300  1.00  0.00     0.013 A 
HETATM   26  C   UNL     1       8.603  30.440  60.684  1.00  0.00     0.152 A 
HETATM   27  N   UNL     1       9.191  31.367  61.446  1.00  0.00    -0.187 NA
HETATM   28  N   UNL     1       9.725  32.216  60.557  1.00  0.00    -0.289 N 
HETATM   29  H   UNL     1      10.235  33.020  60.907  1.00  0.00     0.188 HD
HETATM   30  C   UNL     1       9.492  31.860  59.259  1.00  0.00     0.123 A 
ENDBRANCH   4  25
TORSDOF 8
ENDMDL
MODEL 6
REMARK VINA RESULT:      -8.5      4.120      7.512
REMARK  8 active torsions:
REMARK  status: ('A' for Active; 'I' for Inactive)
REMARK    1  A    between atoms: O_1  and  C_2 
REMARK    2  A    between atoms: C_2  and  CA_3 
REMARK    3  A    between atoms: CA_3  and  N_4 
REMARK    4  A    between atoms: CA_3  and  C_23 
REMARK       I    between atoms: N_4  and  C_5 
REMARK    5  A    between atoms: C_5  and  C_7 
REMARK    6  A    between atoms: C_10  and  C_17 
REMARK    7  A    between atoms: C_11  and  O_12 
REMARK    8  A    between atoms: O_12  and  C_13 
ROOT
HETATM    1  C   UNL     1       5.529  26.092  53.585  1.00  0.00     0.034 A 
HETATM    2  C   UNL     1       5.512  25.330  52.413  1.00  0.00     0.018 A 
HETATM    3  C   UNL     1       5.216  25.930  51.185  1.00  0.00     0.016 A 
HETATM    4  C   UNL     1       4.915  27.299  51.104  1.00  0.00     0.011 A 
HETATM    5  C   UNL     1       4.893  28.050  52.293  1.00  0.00     0.087 A 
HETATM    6  C   UNL     1       5.213  27.454  53.522  1.00  0.00     0.054 A 
ENDROOT
BRANCH   1   7
HETATM    7  C   UNL     1       5.869  25.415  54.869  1.00  0.00     0.252 C 
HETATM    8  N   UNL     1       6.977  24.595  54.847  1.00  0.00    -0.346 N 
HETATM    9  H   UNL     1       7.268  24.234  53.950  1.00  0.00     0.163 HD
HETATM   10  O   UNL     1       5.152  25.578  55.850  1.00  0.00    -0.268 OA
BRANCH   8  11
HETATM   11  CA  UNL     1       7.374  23.767  55.986  1.00  0.00     0.141 C 
BRANCH  11  12
HETATM   12  C   UNL     1       8.287  24.539  56.964  1.00  0.00     0.194 C 
BRANCH  12  13
HETATM   13  O   UNL     1       7.489  25.194  57.959  1.00  0.00    -0.399 OA
HETATM   14  H   UNL     1       6.882  25.783  57.479  1.00  0.00     0.209 HD
ENDBRANCH  12  13
ENDBRANCH  11  12
BRANCH  11  15
HETATM   15  C   UNL     1       7.856  22.394  55.544  1.00  0.00    -0.033 A 
HETATM   16  C   UNL     1       8.334  21.428  56.442  1.00  0.00     0.009 A 
HETATM   17  C   UNL     1       8.754  20.174  55.989  1.00  0.00     0.001 A 
HETATM   18  C   UNL     1       8.716  19.871  54.631  1.00  0.00     0.000 A 
HETATM   19  C   UNL     1       8.264  20.823  53.721  1.00  0.00     0.001 A 
HETATM   20  C   UNL     1       7.839  22.074  54.174  1.00  0.00     0.009 A 
ENDBRANCH  11  15
ENDBRANCH   8  11
ENDBRANCH   1   7
BRANCH   5  21
HETATM   21  O   UNL     1       4.621  29.395  52.236  1.00  0.00    -0.289 OA
BRANCH  21  22
HETATM   22  C   UNL     1       3.283  29.694  52.611  1.00  0.00     0.505 C 
HETATM   23  F   UNL     1       2.519  28.592  52.401  1.00  0.00    -0.184 F 
HETATM   24  F   UNL     1       3.277  29.915  53.950  1.00  0.00    -0.184 F 
ENDBRANCH  21  22
ENDBRANCH   5  21
BRANCH   4  25
HETATM   25  C   UNL     1       4.632  27.898  49.806  1.00  0.00     0.013 A 
HETATM   26  C   UNL     1       3.421  28.039  49.088  1.00  0.00     0.152 A 
HETATM   27  N   UNL     1       3.585  28.661  47.916  1.00  0.00    -0.187 NA
HETATM   28  N   UNL     1       4.900  28.923  47.879  1.00  0.00    -0.289 N 
HETATM   29  H   UNL     1       5.271  29.403  47.066  1.00  0.00     0.188 HD
HETATM   30  C   UNL     1       5.572  28.485  48.984  1.00  0.00     0.123 A 
ENDBRANCH   4  25
TORSDOF 8
ENDMDL
MODEL 7
REMARK VINA RESULT:      -8.4      4.432      7.480
REMARK  8 active torsions:
REMARK  status: ('A' for Active; 'I' for Inactive)
REMARK    1  A    between atoms: O_1  and  C_2 
REMARK    2  A    between atoms: C_2  and  CA_3 
REMARK    3  A    between atoms: CA_3  and  N_4 
REMARK    4  A    between atoms: CA_3  and  C_23 
REMARK       I    between atoms: N_4  and  C_5 
REMARK    5  A    between atoms: C_5  and  C_7 
REMARK    6  A    between atoms: C_10  and  C_17 
REMARK    7  A    between atoms: C_11  and  O_12 
REMARK    8  A    between atoms: O_12  and  C_13 
ROOT
HETATM    1  C   UNL     1       5.918  27.351  52.899  1.00  0.00     0.034 A 
HETATM    2  C   UNL     1       5.522  27.505  54.230  1.00  0.00     0.018 A 
HETATM    3  C   UNL     1       6.081  26.703  55.230  1.00  0.00     0.016 A 
HETATM    4  C   UNL     1       7.034  25.719  54.919  1.00  0.00     0.011 A 
HETATM    5  C   UNL     1       7.396  25.542  53.571  1.00  0.00     0.087 A 
HETATM    6  C   UNL     1       6.853  26.362  52.570  1.00  0.00     0.054 A 
ENDROOT
BRANCH   1   7
HETATM    7  C   UNL     1       5.309  28.241  51.868  1.00  0.00     0.252 C 
HETATM    8  N   UNL     1       4.120  27.810  51.322  1.00  0.00    -0.346 N 
HETATM    9  H   UNL     1       3.918  26.821  51.373  1.00  0.00     0.163 HD
HETATM   10  O   UNL     1       5.891  29.265  51.531  1.00  0.00    -0.268 OA
BRANCH   8  11
HETATM   11  CA  UNL     1       3.456  28.502  50.217  1.00  0.00     0.141 C 
BRANCH  11  12
HETATM   12  C   UNL     1       2.295  29.392  50.714  1.00  0.00     0.194 C 
BRANCH  12  13
HETATM   13  O   UNL     1       1.393  28.613  51.511  1.00  0.00    -0.399 OA
HETATM   14  H   UNL     1       1.448  27.701  51.176  1.00  0.00     0.209 HD
ENDBRANCH  12  13
ENDBRANCH  11  12
BRANCH  11  15
HETATM   15  C   UNL     1       3.148  27.560  49.064  1.00  0.00    -0.033 A 
HETATM   16  C   UNL     1       2.070  27.754  48.188  1.00  0.00     0.009 A 
HETATM   17  C   UNL     1       1.834  26.866  47.134  1.00  0.00     0.001 A 
HETATM   18  C   UNL     1       2.662  25.763  46.949  1.00  0.00     0.000 A 
HETATM   19  C   UNL     1       3.726  25.542  47.820  1.00  0.00     0.001 A 
HETATM   20  C   UNL     1       3.965  26.431  48.869  1.00  0.00     0.009 A 
ENDBRANCH  11  15
ENDBRANCH   8  11
ENDBRANCH   1   7
BRANCH   5  21
HETATM   21  O   UNL     1       8.341  24.601  53.245  1.00  0.00    -0.289 OA
BRANCH  21  22
HETATM   22  C   UNL     1       7.786  23.499  52.537  1.00  0.00     0.505 C 
HETATM   23  F   UNL     1       8.444  22.371  52.909  1.00  0.00    -0.184 F 
HETATM   24  F   UNL     1       6.505  23.352  52.956  1.00  0.00    -0.184 F 
ENDBRANCH  21  22
ENDBRANCH   5  21
BRANCH   4  25
HETATM   25  C   UNL     1       7.614  24.915  55.986  1.00  0.00     0.013 A 
HETATM   26  C   UNL     1       7.672  23.514  56.171  1.00  0.00     0.152 A 
HETATM   27  N   UNL     1       8.305  23.167  57.296  1.00  0.00    -0.187 NA
HETATM   28  N   UNL     1       8.657  24.343  57.836  1.00  0.00    -0.289 N 
HETATM   29  H   UNL     1       9.162  24.336  58.716  1.00  0.00     0.188 HD
HETATM   30  C   UNL     1       8.264  25.421  57.094  1.00  0.00     0.123 A 
ENDBRANCH   4  25
TORSDOF 8
ENDMDL
MODEL 8
REMARK VINA RESULT:      -8.4      3.599      7.606
REMARK  8 active torsions:
REMARK  status: ('A' for Active; 'I' for Inactive)
REMARK    1  A    between atoms: O_1  and  C_2 
REMARK    2  A    between atoms: C_2  and  CA_3 
REMARK    3  A    between atoms: CA_3  and  N_4 
REMARK    4  A    between atoms: CA_3  and  C_23 
REMARK       I    between atoms: N_4  and  C_5 
REMARK    5  A    between atoms: C_5  and  C_7 
REMARK    6  A    between atoms: C_10  and  C_17 
REMARK    7  A    between atoms: C_11  and  O_12 
REMARK    8  A    between atoms: O_12  and  C_13 
ROOT
HETATM    1  C   UNL     1       5.427  26.818  54.894  1.00  0.00     0.034 A 
HETATM    2  C   UNL     1       5.477  28.123  55.392  1.00  0.00     0.018 A 
HETATM    3  C   UNL     1       5.099  29.202  54.586  1.00  0.00     0.016 A 
HETATM    4  C   UNL     1       4.679  29.001  53.261  1.00  0.00     0.011 A 
HETATM    5  C   UNL     1       4.673  27.689  52.753  1.00  0.00     0.087 A 
HETATM    6  C   UNL     1       5.030  26.605  53.569  1.00  0.00     0.054 A 
ENDROOT
BRANCH   1   7
HETATM    7  C   UNL     1       5.822  25.697  55.795  1.00  0.00     0.252 C 
HETATM    8  N   UNL     1       7.061  25.141  55.562  1.00  0.00    -0.346 N 
HETATM    9  H   UNL     1       7.457  25.262  54.640  1.00  0.00     0.163 HD
HETATM   10  O   UNL     1       5.039  25.304  56.652  1.00  0.00    -0.268 OA
BRANCH   8  11
HETATM   11  CA  UNL     1       7.546  23.959  56.274  1.00  0.00     0.141 C 
BRANCH  11  12
HETATM   12  C   UNL     1       8.739  24.297  57.197  1.00  0.00     0.194 C 
BRANCH  12  13
HETATM   13  O   UNL     1       8.293  25.117  58.286  1.00  0.00    -0.399 OA
HETATM   14  H   UNL     1       8.598  26.020  58.091  1.00  0.00     0.209 HD
ENDBRANCH  12  13
ENDBRANCH  11  12
BRANCH  11  15
HETATM   15  C   UNL     1       7.722  22.770  55.342  1.00  0.00    -0.033 A 
HETATM   16  C   UNL     1       7.908  21.459  55.805  1.00  0.00     0.009 A 
HETATM   17  C   UNL     1       8.052  20.396  54.908  1.00  0.00     0.001 A 
HETATM   18  C   UNL     1       8.028  20.629  53.536  1.00  0.00     0.000 A 
HETATM   19  C   UNL     1       7.865  21.926  53.057  1.00  0.00     0.001 A 
HETATM   20  C   UNL     1       7.715  22.987  53.952  1.00  0.00     0.009 A 
ENDBRANCH  11  15
ENDBRANCH   8  11
ENDBRANCH   1   7
BRANCH   5  21
HETATM   21  O   UNL     1       4.247  27.466  51.467  1.00  0.00    -0.289 OA
BRANCH  21  22
HETATM   22  C   UNL     1       5.238  26.827  50.671  1.00  0.00     0.505 C 
HETATM   23  F   UNL     1       4.689  25.724  50.102  1.00  0.00    -0.184 F 
HETATM   24  F   UNL     1       5.546  27.671  49.655  1.00  0.00    -0.184 F 
ENDBRANCH  21  22
ENDBRANCH   5  21
BRANCH   4  25
HETATM   25  C   UNL     1       4.271  30.143  52.454  1.00  0.00     0.013 A 
HETATM   26  C   UNL     1       3.148  30.999  52.551  1.00  0.00     0.152 A 
HETATM   27  N   UNL     1       3.137  31.946  51.608  1.00  0.00    -0.187 NA
HETATM   28  N   UNL     1       4.252  31.703  50.904  1.00  0.00    -0.289 N 
HETATM   29  H   UNL     1       4.465  32.307  50.117  1.00  0.00     0.188 HD
HETATM   30  C   UNL     1       4.965  30.634  51.367  1.00  0.00     0.123 A 
ENDBRANCH   4  25
TORSDOF 8
ENDMDL
MODEL 9
REMARK VINA RESULT:      -8.3      6.803     11.319
REMARK  8 active torsions:
REMARK  status: ('A' for Active; 'I' for Inactive)
REMARK    1  A    between atoms: O_1  and  C_2 
REMARK    2  A    between atoms: C_2  and  CA_3 
REMARK    3  A    between atoms: CA_3  and  N_4 
REMARK    4  A    between atoms: CA_3  and  C_23 
REMARK       I    between atoms: N_4  and  C_5 
REMARK    5  A    between atoms: C_5  and  C_7 
REMARK    6  A    between atoms: C_10  and  C_17 
REMARK    7  A    between atoms: C_11  and  O_12 
REMARK    8  A    between atoms: O_12  and  C_13 
ROOT
HETATM    1  C   UNL     1       5.039  32.412  60.210  1.00  0.00     0.034 A 
HETATM    2  C   UNL     1       3.716  32.610  60.614  1.00  0.00     0.018 A 
HETATM    3  C   UNL     1       3.436  33.235  61.834  1.00  0.00     0.016 A 
HETATM    4  C   UNL     1       4.471  33.659  62.682  1.00  0.00     0.011 A 
HETATM    5  C   UNL     1       5.800  33.418  62.288  1.00  0.00     0.087 A 
HETATM    6  C   UNL     1       6.082  32.812  61.055  1.00  0.00     0.054 A 
ENDROOT
BRANCH   1   7
HETATM    7  C   UNL     1       5.291  31.758  58.893  1.00  0.00     0.252 C 
HETATM    8  N   UNL     1       6.276  30.794  58.875  1.00  0.00    -0.346 N 
HETATM    9  H   UNL     1       6.972  30.830  59.605  1.00  0.00     0.163 HD
HETATM   10  O   UNL     1       4.661  32.120  57.906  1.00  0.00    -0.268 OA
BRANCH   8  11
HETATM   11  CA  UNL     1       6.728  30.146  57.643  1.00  0.00     0.141 C 
BRANCH  11  12
HETATM   12  C   UNL     1       6.030  28.785  57.424  1.00  0.00     0.194 C 
BRANCH  12  13
HETATM   13  O   UNL     1       4.654  28.876  57.816  1.00  0.00    -0.399 OA
HETATM   14  H   UNL     1       4.129  28.650  57.028  1.00  0.00     0.209 HD
ENDBRANCH  12  13
ENDBRANCH  11  12
BRANCH  11  15
HETATM   15  C   UNL     1       8.243  30.162  57.520  1.00  0.00    -0.033 A 
HETATM   16  C   UNL     1       8.945  29.341  56.626  1.00  0.00     0.009 A 
HETATM   17  C   UNL     1      10.339  29.401  56.540  1.00  0.00     0.001 A 
HETATM   18  C   UNL     1      11.054  30.272  57.357  1.00  0.00     0.000 A 
HETATM   19  C   UNL     1      10.378  31.081  58.266  1.00  0.00     0.001 A 
HETATM   20  C   UNL     1       8.985  31.026  58.348  1.00  0.00     0.009 A 
ENDBRANCH  11  15
ENDBRANCH   8  11
ENDBRANCH   1   7
BRANCH   5  21
HETATM   21  O   UNL     1       6.829  33.842  63.092  1.00  0.00    -0.289 OA
BRANCH  21  22
HETATM   22  C   UNL     1       7.477  32.765  63.757  1.00  0.00     0.505 C 
HETATM   23  F   UNL     1       8.745  32.664  63.282  1.00  0.00    -0.184 F 
HETATM   24  F   UNL     1       7.584  33.102  65.066  1.00  0.00    -0.184 F 
ENDBRANCH  21  22
ENDBRANCH   5  21
BRANCH   4  25
HETATM   25  C   UNL     1       4.147  34.327  63.936  1.00  0.00     0.013 A 
HETATM   26  C   UNL     1       4.232  33.884  65.277  1.00  0.00     0.152 A 
HETATM   27  N   UNL     1       3.837  34.813  66.154  1.00  0.00    -0.187 NA
HETATM   28  N   UNL     1       3.499  35.854  65.379  1.00  0.00    -0.289 N 
HETATM   29  H   UNL     1       3.161  36.698  65.830  1.00  0.00     0.188 HD
HETATM   30  C   UNL     1       3.662  35.614  64.044  1.00  0.00     0.123 A 
ENDBRANCH   4  25
TORSDOF 8
ENDMDL
MODEL 10
REMARK VINA RESULT:      -8.1      6.327      9.487
REMARK  8 active torsions:
REMARK  status: ('A' for Active; 'I' for Inactive)
REMARK    1  A    between atoms: O_1  and  C_2 
REMARK    2  A    between atoms: C_2  and  CA_3 
REMARK    3  A    between atoms: CA_3  and  N_4 
REMARK    4  A    between atoms: CA_3  and  C_23 
REMARK       I    between atoms: N_4  and  C_5 
REMARK    5  A    between atoms: C_5  and  C_7 
REMARK    6  A    between atoms: C_10  and  C_17 
REMARK    7  A    between atoms: C_11  and  O_12 
REMARK    8  A    between atoms: O_12  and  C_13 
ROOT
HETATM    1  C   UNL     1       7.727  32.563  61.766  1.00  0.00     0.034 A 
HETATM    2  C   UNL     1       8.921  31.851  61.909  1.00  0.00     0.018 A 
HETATM    3  C   UNL     1       9.485  31.191  60.813  1.00  0.00     0.016 A 
HETATM    4  C   UNL     1       8.860  31.214  59.556  1.00  0.00     0.011 A 
HETATM    5  C   UNL     1       7.637  31.898  59.430  1.00  0.00     0.087 A 
HETATM    6  C   UNL     1       7.082  32.579  60.523  1.00  0.00     0.054 A 
ENDROOT
BRANCH   1   7
HETATM    7  C   UNL     1       7.171  33.267  62.957  1.00  0.00     0.252 C 
HETATM    8  N   UNL     1       6.057  34.047  62.734  1.00  0.00    -0.346 N 
HETATM    9  H   UNL     1       5.899  34.370  61.790  1.00  0.00     0.163 HD
HETATM   10  O   UNL     1       7.730  33.160  64.042  1.00  0.00    -0.268 OA
BRANCH   8  11
HETATM   11  CA  UNL     1       5.462  34.897  63.767  1.00  0.00     0.141 C 
BRANCH  11  12
HETATM   12  C   UNL     1       4.337  34.164  64.532  1.00  0.00     0.194 C 
BRANCH  12  13
HETATM   13  O   UNL     1       4.697  32.790  64.728  1.00  0.00    -0.399 OA
HETATM   14  H   UNL     1       4.176  32.476  65.487  1.00  0.00     0.209 HD
ENDBRANCH  12  13
ENDBRANCH  11  12
BRANCH  11  15
HETATM   15  C   UNL     1       5.136  36.284  63.238  1.00  0.00    -0.033 A 
HETATM   16  C   UNL     1       6.038  37.356  63.300  1.00  0.00     0.009 A 
HETATM   17  C   UNL     1       5.696  38.611  62.788  1.00  0.00     0.001 A 
HETATM   18  C   UNL     1       4.442  38.818  62.220  1.00  0.00     0.000 A 
HETATM   19  C   UNL     1       3.525  37.772  62.167  1.00  0.00     0.001 A 
HETATM   20  C   UNL     1       3.868  36.517  62.673  1.00  0.00     0.009 A 
ENDBRANCH  11  15
ENDBRANCH   8  11
ENDBRANCH   1   7
BRANCH   5  21
HETATM   21  O   UNL     1       7.018  31.952  58.205  1.00  0.00    -0.289 OA
BRANCH  21  22
HETATM   22  C   UNL     1       5.697  31.427  58.242  1.00  0.00     0.505 C 
HETATM   23  F   UNL     1       5.010  31.912  57.177  1.00  0.00    -0.184 F 
HETATM   24  F   UNL     1       5.789  30.086  58.061  1.00  0.00    -0.184 F 
ENDBRANCH  21  22
ENDBRANCH   5  21
BRANCH   4  25
HETATM   25  C   UNL     1       9.485  30.536  58.428  1.00  0.00     0.013 A 
HETATM   26  C   UNL     1      10.631  30.859  57.664  1.00  0.00     0.152 A 
HETATM   27  N   UNL     1      10.881  29.965  56.703  1.00  0.00    -0.187 NA
HETATM   28  N   UNL     1       9.898  29.063  56.848  1.00  0.00    -0.289 N 
HETATM   29  H   UNL     1       9.877  28.270  56.215  1.00  0.00     0.188 HD
HETATM   30  C   UNL     1       9.035  29.360  57.864  1.00  0.00     0.123 A 
ENDBRANCH   4  25
TORSDOF 8
ENDMDL
