MODEL 1
REMARK VINA RESULT:      -9.6      0.000      0.000
REMARK  8 active torsions:
REMARK  status: ('A' for Active; 'I' for Inactive)
REMARK    1  A    between atoms: C_2  and  C_3 
REMARK    2  A    between atoms: C_6  and  C_7 
REMARK    3  A    between atoms: C_11  and  C_12 
REMARK    4  A    between atoms: C_12  and  C_13 
REMARK    5  A    between atoms: C_13  and  C_14 
REMARK    6  A    between atoms: C_14  and  O_15 
REMARK    7  A    between atoms: C_20  and  C_21 
REMARK       I    between atoms: C_21  and  N_22 
REMARK    8  A    between atoms: N_22  and  C_23 
ROOT
HETATM    1  C   UNL     1       6.537  27.159  53.449  1.00  0.00     0.202 C 
HETATM    2  N   UNL     1       5.653  27.371  52.303  1.00  0.00    -0.083 N 
HETATM    3  C   UNL     1       4.341  27.735  52.414  1.00  0.00     0.726 A 
HETATM    4  N   UNL     1       3.825  27.866  51.218  1.00  0.00    -0.046 NA
HETATM    5  C   UNL     1       4.896  27.614  50.390  1.00  0.00     0.166 A 
HETATM    6  N   UNL     1       6.050  27.326  51.013  1.00  0.00    -0.140 NA
HETATM    7  N   UNL     1       3.821  27.947  53.637  1.00  0.00    -0.192 N 
HETATM    8  C   UNL     1       4.611  28.056  54.781  1.00  0.00     0.037 C 
HETATM    9  C   UNL     1       3.897  28.560  56.013  1.00  0.00     0.070 C 
HETATM   10  C   UNL     1       5.926  27.714  54.740  1.00  0.00     0.062 C 
HETATM   11  H   UNL     1       2.884  28.341  53.689  1.00  0.00     0.184 HD
ENDROOT
BRANCH  10  12
HETATM   12  C   UNL     1       6.830  28.022  55.897  1.00  0.00     0.256 C 
HETATM   13  N   UNL     1       6.990  29.360  56.183  1.00  0.00    -0.323 N 
HETATM   14  H   UNL     1       6.517  30.041  55.607  1.00  0.00     0.169 HD
HETATM   15  O   UNL     1       7.321  27.098  56.538  1.00  0.00    -0.267 OA
BRANCH  13  16
HETATM   16  C   UNL     1       7.775  29.934  57.205  1.00  0.00     0.035 A 
HETATM   17  C   UNL     1       9.170  29.887  57.243  1.00  0.00     0.031 A 
HETATM   18  C   UNL     1       9.871  30.506  58.284  1.00  0.00     0.026 A 
HETATM   19  C   UNL     1       9.179  31.160  59.299  1.00  0.00     0.034 A 
HETATM   20 CL   UNL     1      10.042  31.915  60.581  1.00  0.00    -0.084 Cl
HETATM   21  C   UNL     1       7.788  31.209  59.279  1.00  0.00     0.026 A 
HETATM   22  C   UNL     1       7.090  30.607  58.228  1.00  0.00     0.031 A 
ENDBRANCH  13  16
ENDBRANCH  10  12
BRANCH   1  23
HETATM   23  C   UNL     1       6.877  25.671  53.554  1.00  0.00    -0.028 A 
HETATM   24  C   UNL     1       7.809  25.100  52.671  1.00  0.00     0.010 A 
HETATM   25  C   UNL     1       8.253  23.789  52.858  1.00  0.00     0.007 A 
HETATM   26  C   UNL     1       7.762  23.016  53.916  1.00  0.00    -0.059 A 
HETATM   27  C   UNL     1       6.787  23.560  54.760  1.00  0.00     0.007 A 
HETATM   28  C   UNL     1       6.342  24.868  54.576  1.00  0.00     0.010 A 
BRANCH  26  29
HETATM   29  C   UNL     1       8.301  21.631  54.176  1.00  0.00     0.034 C 
HETATM   30  C   UNL     1       8.146  20.736  52.955  1.00  0.00     0.010 C 
ENDBRANCH  26  29
ENDBRANCH   1  23
BRANCH   5  31
HETATM   31  C   UNL     1       4.791  27.716  48.913  1.00  0.00     0.085 C 
BRANCH  31  32
HETATM   32  C   UNL     1       4.212  26.458  48.266  1.00  0.00     0.034 C 
BRANCH  32  33
HETATM   33  C   UNL     1       2.797  26.656  47.736  1.00  0.00     0.164 C 
BRANCH  33  34
HETATM   34  O   UNL     1       1.929  27.011  48.807  1.00  0.00    -0.401 OA
HETATM   35  H   UNL     1       1.152  26.428  48.764  1.00  0.00     0.209 HD
ENDBRANCH  33  34
ENDBRANCH  32  33
ENDBRANCH  31  32
ENDBRANCH   5  31
TORSDOF 8
ENDMDL
MODEL 2
REMARK VINA RESULT:      -9.5      3.672      6.935
REMARK  8 active torsions:
REMARK  status: ('A' for Active; 'I' for Inactive)
REMARK    1  A    between atoms: C_2  and  C_3 
REMARK    2  A    between atoms: C_6  and  C_7 
REMARK    3  A    between atoms: C_11  and  C_12 
REMARK    4  A    between atoms: C_12  and  C_13 
REMARK    5  A    between atoms: C_13  and  C_14 
REMARK    6  A    between atoms: C_14  and  O_15 
REMARK    7  A    between atoms: C_20  and  C_21 
REMARK       I    between atoms: C_21  and  N_22 
REMARK    8  A    between atoms: N_22  and  C_23 
ROOT
HETATM    1  C   UNL     1       4.896  27.873  54.814  1.00  0.00     0.202 C 
HETATM    2  N   UNL     1       4.211  29.143  54.579  1.00  0.00    -0.083 N 
HETATM    3  C   UNL     1       4.065  29.710  53.345  1.00  0.00     0.726 A 
HETATM    4  N   UNL     1       3.393  30.828  53.459  1.00  0.00    -0.046 NA
HETATM    5  C   UNL     1       3.101  30.878  54.803  1.00  0.00     0.166 A 
HETATM    6  N   UNL     1       3.566  29.850  55.532  1.00  0.00    -0.140 NA
HETATM    7  N   UNL     1       4.544  29.064  52.266  1.00  0.00    -0.192 N 
HETATM    8  C   UNL     1       4.961  27.733  52.311  1.00  0.00     0.037 C 
HETATM    9  C   UNL     1       5.209  27.089  50.967  1.00  0.00     0.070 C 
HETATM   10  C   UNL     1       5.122  27.106  53.507  1.00  0.00     0.062 C 
HETATM   11  H   UNL     1       4.312  29.440  51.350  1.00  0.00     0.184 HD
ENDROOT
BRANCH  10  12
HETATM   12  C   UNL     1       5.364  25.627  53.564  1.00  0.00     0.256 C 
HETATM   13  N   UNL     1       6.650  25.249  53.883  1.00  0.00    -0.323 N 
HETATM   14  H   UNL     1       7.342  25.966  54.042  1.00  0.00     0.169 HD
HETATM   15  O   UNL     1       4.426  24.857  53.381  1.00  0.00    -0.267 OA
BRANCH  13  16
HETATM   16  C   UNL     1       7.158  23.938  54.005  1.00  0.00     0.035 A 
HETATM   17  C   UNL     1       7.593  23.162  52.929  1.00  0.00     0.031 A 
HETATM   18  C   UNL     1       8.106  21.878  53.144  1.00  0.00     0.026 A 
HETATM   19  C   UNL     1       8.170  21.360  54.434  1.00  0.00     0.034 A 
HETATM   20 CL   UNL     1       8.795  19.779  54.696  1.00  0.00    -0.084 Cl
HETATM   21  C   UNL     1       7.732  22.118  55.516  1.00  0.00     0.026 A 
HETATM   22  C   UNL     1       7.238  23.408  55.302  1.00  0.00     0.031 A 
ENDBRANCH  13  16
ENDBRANCH  10  12
BRANCH   1  23
HETATM   23  C   UNL     1       6.199  28.135  55.572  1.00  0.00    -0.028 A 
HETATM   24  C   UNL     1       7.331  28.600  54.881  1.00  0.00     0.010 A 
HETATM   25  C   UNL     1       8.473  28.999  55.580  1.00  0.00     0.007 A 
HETATM   26  C   UNL     1       8.516  28.924  56.976  1.00  0.00    -0.059 A 
HETATM   27  C   UNL     1       7.414  28.402  57.663  1.00  0.00     0.007 A 
HETATM   28  C   UNL     1       6.273  28.002  56.970  1.00  0.00     0.010 A 
BRANCH  26  29
HETATM   29  C   UNL     1       9.712  29.436  57.741  1.00  0.00     0.034 C 
HETATM   30  C   UNL     1      10.904  29.662  56.822  1.00  0.00     0.010 C 
ENDBRANCH  26  29
ENDBRANCH   1  23
BRANCH   5  31
HETATM   31  C   UNL     1       2.278  31.964  55.391  1.00  0.00     0.085 C 
BRANCH  31  32
HETATM   32  C   UNL     1       1.816  32.991  54.358  1.00  0.00     0.034 C 
BRANCH  32  33
HETATM   33  C   UNL     1       0.356  33.396  54.530  1.00  0.00     0.164 C 
BRANCH  33  34
HETATM   34  O   UNL     1      -0.322  32.422  55.316  1.00  0.00    -0.401 OA
HETATM   35  H   UNL     1      -1.277  32.585  55.230  1.00  0.00     0.209 HD
ENDBRANCH  33  34
ENDBRANCH  32  33
ENDBRANCH  31  32
ENDBRANCH   5  31
TORSDOF 8
ENDMDL
MODEL 3
REMARK VINA RESULT:      -8.8      3.560      6.973
REMARK  8 active torsions:
REMARK  status: ('A' for Active; 'I' for Inactive)
REMARK    1  A    between atoms: C_2  and  C_3 
REMARK    2  A    between atoms: C_6  and  C_7 
REMARK    3  A    between atoms: C_11  and  C_12 
REMARK    4  A    between atoms: C_12  and  C_13 
REMARK    5  A    between atoms: C_13  and  C_14 
REMARK    6  A    between atoms: C_14  and  O_15 
REMARK    7  A    between atoms: C_20  and  C_21 
REMARK       I    between atoms: C_21  and  N_22 
REMARK    8  A    between atoms: N_22  and  C_23 
ROOT
HETATM    1  C   UNL     1       6.072  29.354  57.754  1.00  0.00     0.202 C 
HETATM    2  N   UNL     1       6.504  28.122  57.094  1.00  0.00    -0.083 N 
HETATM    3  C   UNL     1       7.766  27.923  56.611  1.00  0.00     0.726 A 
HETATM    4  N   UNL     1       7.849  26.722  56.097  1.00  0.00    -0.046 NA
HETATM    5  C   UNL     1       6.600  26.196  56.338  1.00  0.00     0.166 A 
HETATM    6  N   UNL     1       5.742  27.015  56.970  1.00  0.00    -0.140 NA
HETATM    7  N   UNL     1       8.690  28.889  56.772  1.00  0.00    -0.192 N 
HETATM    8  C   UNL     1       8.497  29.980  57.619  1.00  0.00     0.037 C 
HETATM    9  C   UNL     1       9.726  30.816  57.886  1.00  0.00     0.070 C 
HETATM   10  C   UNL     1       7.265  30.235  58.138  1.00  0.00     0.062 C 
HETATM   11  H   UNL     1       9.651  28.669  56.521  1.00  0.00     0.184 HD
ENDROOT
BRANCH  10  12
HETATM   12  C   UNL     1       7.090  31.271  59.208  1.00  0.00     0.256 C 
HETATM   13  N   UNL     1       7.270  30.825  60.499  1.00  0.00    -0.323 N 
HETATM   14  H   UNL     1       7.490  29.852  60.651  1.00  0.00     0.169 HD
HETATM   15  O   UNL     1       6.854  32.432  58.887  1.00  0.00    -0.267 OA
BRANCH  13  16
HETATM   16  C   UNL     1       7.167  31.574  61.691  1.00  0.00     0.035 A 
HETATM   17  C   UNL     1       5.958  31.940  62.285  1.00  0.00     0.031 A 
HETATM   18  C   UNL     1       5.948  32.663  63.483  1.00  0.00     0.026 A 
HETATM   19  C   UNL     1       7.147  33.036  64.082  1.00  0.00     0.034 A 
HETATM   20 CL   UNL     1       7.133  33.930  65.551  1.00  0.00    -0.084 Cl
HETATM   21  C   UNL     1       8.360  32.685  63.498  1.00  0.00     0.026 A 
HETATM   22  C   UNL     1       8.369  31.946  62.312  1.00  0.00     0.031 A 
ENDBRANCH  13  16
ENDBRANCH  10  12
BRANCH   1  23
HETATM   23  C   UNL     1       5.070  30.083  56.857  1.00  0.00    -0.028 A 
HETATM   24  C   UNL     1       3.824  30.478  57.373  1.00  0.00     0.010 A 
HETATM   25  C   UNL     1       2.969  31.286  56.619  1.00  0.00     0.007 A 
HETATM   26  C   UNL     1       3.330  31.699  55.332  1.00  0.00    -0.059 A 
HETATM   27  C   UNL     1       4.542  31.255  54.791  1.00  0.00     0.007 A 
HETATM   28  C   UNL     1       5.398  30.449  55.540  1.00  0.00     0.010 A 
BRANCH  26  29
HETATM   29  C   UNL     1       2.451  32.642  54.549  1.00  0.00     0.034 C 
HETATM   30  C   UNL     1       1.914  33.761  55.429  1.00  0.00     0.010 C 
ENDBRANCH  26  29
ENDBRANCH   1  23
BRANCH   5  31
HETATM   31  C   UNL     1       6.249  24.800  55.976  1.00  0.00     0.085 C 
BRANCH  31  32
HETATM   32  C   UNL     1       6.236  24.558  54.467  1.00  0.00     0.034 C 
BRANCH  32  33
HETATM   33  C   UNL     1       5.362  25.550  53.710  1.00  0.00     0.164 C 
BRANCH  33  34
HETATM   34  O   UNL     1       4.150  24.916  53.314  1.00  0.00    -0.401 OA
HETATM   35  H   UNL     1       4.251  24.635  52.389  1.00  0.00     0.209 HD
ENDBRANCH  33  34
ENDBRANCH  32  33
ENDBRANCH  31  32
ENDBRANCH   5  31
TORSDOF 8
ENDMDL
MODEL 4
REMARK VINA RESULT:      -8.7      3.863      6.911
REMARK  8 active torsions:
REMARK  status: ('A' for Active; 'I' for Inactive)
REMARK    1  A    between atoms: C_2  and  C_3 
REMARK    2  A    between atoms: C_6  and  C_7 
REMARK    3  A    between atoms: C_11  and  C_12 
REMARK    4  A    between atoms: C_12  and  C_13 
REMARK    5  A    between atoms: C_13  and  C_14 
REMARK    6  A    between atoms: C_14  and  O_15 
REMARK    7  A    between atoms: C_20  and  C_21 
REMARK       I    between atoms: C_21  and  N_22 
REMARK    8  A    between atoms: N_22  and  C_23 
ROOT
HETATM    1  C   UNL     1       5.346  28.249  50.745  1.00  0.00     0.202 C 
HETATM    2  N   UNL     1       5.450  29.695  50.544  1.00  0.00    -0.083 N 
HETATM    3  C   UNL     1       5.067  30.619  51.474  1.00  0.00     0.726 A 
HETATM    4  N   UNL     1       5.301  31.821  51.012  1.00  0.00    -0.046 NA
HETATM    5  C   UNL     1       5.885  31.574  49.790  1.00  0.00     0.166 A 
HETATM    6  N   UNL     1       6.019  30.277  49.467  1.00  0.00    -0.140 NA
HETATM    7  N   UNL     1       4.595  30.198  52.662  1.00  0.00    -0.192 N 
HETATM    8  C   UNL     1       4.706  28.874  53.088  1.00  0.00     0.037 C 
HETATM    9  C   UNL     1       4.372  28.633  54.541  1.00  0.00     0.070 C 
HETATM   10  C   UNL     1       5.086  27.903  52.215  1.00  0.00     0.062 C 
HETATM   11  H   UNL     1       4.438  30.898  53.383  1.00  0.00     0.184 HD
ENDROOT
BRANCH  10  12
HETATM   12  C   UNL     1       5.410  26.523  52.704  1.00  0.00     0.256 C 
HETATM   13  N   UNL     1       6.735  26.299  53.008  1.00  0.00    -0.323 N 
HETATM   14  H   UNL     1       7.399  27.048  52.875  1.00  0.00     0.169 HD
HETATM   15  O   UNL     1       4.503  25.709  52.854  1.00  0.00    -0.267 OA
BRANCH  13  16
HETATM   16  C   UNL     1       7.320  25.106  53.484  1.00  0.00     0.035 A 
HETATM   17  C   UNL     1       7.655  24.019  52.674  1.00  0.00     0.031 A 
HETATM   18  C   UNL     1       8.255  22.883  53.227  1.00  0.00     0.026 A 
HETATM   19  C   UNL     1       8.508  22.823  54.594  1.00  0.00     0.034 A 
HETATM   20 CL   UNL     1       9.241  21.422  55.272  1.00  0.00    -0.084 Cl
HETATM   21  C   UNL     1       8.173  23.895  55.415  1.00  0.00     0.026 A 
HETATM   22  C   UNL     1       7.591  25.037  54.859  1.00  0.00     0.031 A 
ENDBRANCH  13  16
ENDBRANCH  10  12
BRANCH   1  23
HETATM   23  C   UNL     1       4.272  27.686  49.812  1.00  0.00    -0.028 A 
HETATM   24  C   UNL     1       3.035  28.342  49.690  1.00  0.00     0.010 A 
HETATM   25  C   UNL     1       2.110  27.937  48.724  1.00  0.00     0.007 A 
HETATM   26  C   UNL     1       2.393  26.861  47.876  1.00  0.00    -0.059 A 
HETATM   27  C   UNL     1       3.597  26.166  48.037  1.00  0.00     0.007 A 
HETATM   28  C   UNL     1       4.522  26.567  48.999  1.00  0.00     0.010 A 
BRANCH  26  29
HETATM   29  C   UNL     1       1.437  26.475  46.774  1.00  0.00     0.034 C 
HETATM   30  C   UNL     1       0.372  27.541  46.563  1.00  0.00     0.010 C 
ENDBRANCH  26  29
ENDBRANCH   1  23
BRANCH   5  31
HETATM   31  C   UNL     1       6.387  32.667  48.920  1.00  0.00     0.085 C 
BRANCH  31  32
HETATM   32  C   UNL     1       5.689  34.003  49.175  1.00  0.00     0.034 C 
BRANCH  32  33
HETATM   33  C   UNL     1       6.553  34.990  49.951  1.00  0.00     0.164 C 
BRANCH  33  34
HETATM   34  O   UNL     1       6.396  34.769  51.348  1.00  0.00    -0.401 OA
HETATM   35  H   UNL     1       7.236  34.415  51.688  1.00  0.00     0.209 HD
ENDBRANCH  33  34
ENDBRANCH  32  33
ENDBRANCH  31  32
ENDBRANCH   5  31
TORSDOF 8
ENDMDL
MODEL 5
REMARK VINA RESULT:      -8.5      2.853      5.668
REMARK  8 active torsions:
REMARK  status: ('A' for Active; 'I' for Inactive)
REMARK    1  A    between atoms: C_2  and  C_3 
REMARK    2  A    between atoms: C_6  and  C_7 
REMARK    3  A    between atoms: C_11  and  C_12 
REMARK    4  A    between atoms: C_12  and  C_13 
REMARK    5  A    between atoms: C_13  and  C_14 
REMARK    6  A    between atoms: C_14  and  O_15 
REMARK    7  A    between atoms: C_20  and  C_21 
REMARK       I    between atoms: C_21  and  N_22 
REMARK    8  A    between atoms: N_22  and  C_23 
ROOT
HETATM    1  C   UNL     1       4.352  28.372  51.233  1.00  0.00     0.202 C 
HETATM    2  N   UNL     1       4.003  27.694  49.985  1.00  0.00    -0.083 N 
HETATM    3  C   UNL     1       4.686  26.621  49.487  1.00  0.00     0.726 A 
HETATM    4  N   UNL     1       4.123  26.228  48.373  1.00  0.00    -0.046 NA
HETATM    5  C   UNL     1       3.048  27.079  48.253  1.00  0.00     0.166 A 
HETATM    6  N   UNL     1       2.919  27.987  49.235  1.00  0.00    -0.140 NA
HETATM    7  N   UNL     1       5.723  26.122  50.186  1.00  0.00    -0.192 N 
HETATM    8  C   UNL     1       5.983  26.486  51.507  1.00  0.00     0.037 C 
HETATM    9  C   UNL     1       7.009  25.638  52.220  1.00  0.00     0.070 C 
HETATM   10  C   UNL     1       5.335  27.543  52.067  1.00  0.00     0.062 C 
HETATM   11  H   UNL     1       6.133  25.249  49.863  1.00  0.00     0.184 HD
ENDROOT
BRANCH  10  12
HETATM   12  C   UNL     1       5.448  27.813  53.538  1.00  0.00     0.256 C 
HETATM   13  N   UNL     1       6.527  28.581  53.918  1.00  0.00    -0.323 N 
HETATM   14  H   UNL     1       7.171  28.899  53.209  1.00  0.00     0.169 HD
HETATM   15  O   UNL     1       4.576  27.394  54.295  1.00  0.00    -0.267 OA
BRANCH  13  16
HETATM   16  C   UNL     1       6.879  28.987  55.223  1.00  0.00     0.035 A 
HETATM   17  C   UNL     1       6.104  29.836  56.015  1.00  0.00     0.031 A 
HETATM   18  C   UNL     1       6.518  30.168  57.311  1.00  0.00     0.026 A 
HETATM   19  C   UNL     1       7.715  29.664  57.811  1.00  0.00     0.034 A 
HETATM   20 CL   UNL     1       8.225  30.078  59.401  1.00  0.00    -0.084 Cl
HETATM   21  C   UNL     1       8.501  28.823  57.030  1.00  0.00     0.026 A 
HETATM   22  C   UNL     1       8.077  28.477  55.744  1.00  0.00     0.031 A 
ENDBRANCH  13  16
ENDBRANCH  10  12
BRANCH   1  23
HETATM   23  C   UNL     1       4.887  29.769  50.916  1.00  0.00    -0.028 A 
HETATM   24  C   UNL     1       5.852  29.939  49.908  1.00  0.00     0.010 A 
HETATM   25  C   UNL     1       6.228  31.220  49.495  1.00  0.00     0.007 A 
HETATM   26  C   UNL     1       5.664  32.354  50.091  1.00  0.00    -0.059 A 
HETATM   27  C   UNL     1       4.751  32.189  51.138  1.00  0.00     0.007 A 
HETATM   28  C   UNL     1       4.374  30.912  51.553  1.00  0.00     0.010 A 
BRANCH  26  29
HETATM   29  C   UNL     1       6.000  33.737  49.590  1.00  0.00     0.034 C 
HETATM   30  C   UNL     1       6.638  33.688  48.209  1.00  0.00     0.010 C 
ENDBRANCH  26  29
ENDBRANCH   1  23
BRANCH   5  31
HETATM   31  C   UNL     1       2.066  26.958  47.146  1.00  0.00     0.085 C 
BRANCH  31  32
HETATM   32  C   UNL     1       0.681  27.489  47.514  1.00  0.00     0.034 C 
BRANCH  32  33
HETATM   33  C   UNL     1      -0.180  27.807  46.296  1.00  0.00     0.164 C 
BRANCH  33  34
HETATM   34  O   UNL     1       0.164  26.934  45.225  1.00  0.00    -0.401 OA
HETATM   35  H   UNL     1       0.353  27.483  44.445  1.00  0.00     0.209 HD
ENDBRANCH  33  34
ENDBRANCH  32  33
ENDBRANCH  31  32
ENDBRANCH   5  31
TORSDOF 8
ENDMDL
MODEL 6
REMARK VINA RESULT:      -8.3      3.777      6.931
REMARK  8 active torsions:
REMARK  status: ('A' for Active; 'I' for Inactive)
REMARK    1  A    between atoms: C_2  and  C_3 
REMARK    2  A    between atoms: C_6  and  C_7 
REMARK    3  A    between atoms: C_11  and  C_12 
REMARK    4  A    between atoms: C_12  and  C_13 
REMARK    5  A    between atoms: C_13  and  C_14 
REMARK    6  A    between atoms: C_14  and  O_15 
REMARK    7  A    between atoms: C_20  and  C_21 
REMARK       I    between atoms: C_21  and  N_22 
REMARK    8  A    between atoms: N_22  and  C_23 
ROOT
HETATM    1  C   UNL     1       6.312  29.456  57.867  1.00  0.00     0.202 C 
HETATM    2  N   UNL     1       6.772  28.191  57.294  1.00  0.00    -0.083 N 
HETATM    3  C   UNL     1       8.072  27.939  56.959  1.00  0.00     0.726 A 
HETATM    4  N   UNL     1       8.170  26.720  56.491  1.00  0.00    -0.046 NA
HETATM    5  C   UNL     1       6.885  26.240  56.608  1.00  0.00     0.166 A 
HETATM    6  N   UNL     1       5.991  27.104  57.118  1.00  0.00    -0.140 NA
HETATM    7  N   UNL     1       9.004  28.881  57.192  1.00  0.00    -0.192 N 
HETATM    8  C   UNL     1       8.756  30.004  57.982  1.00  0.00     0.037 C 
HETATM    9  C   UNL     1       9.976  30.810  58.359  1.00  0.00     0.070 C 
HETATM   10  C   UNL     1       7.485  30.312  58.354  1.00  0.00     0.062 C 
HETATM   11  H   UNL     1       9.979  28.624  57.056  1.00  0.00     0.184 HD
ENDROOT
BRANCH  10  12
HETATM   12  C   UNL     1       7.228  31.387  59.368  1.00  0.00     0.256 C 
HETATM   13  N   UNL     1       7.256  30.979  60.684  1.00  0.00    -0.323 N 
HETATM   14  H   UNL     1       7.429  30.005  60.888  1.00  0.00     0.169 HD
HETATM   15  O   UNL     1       7.063  32.543  58.990  1.00  0.00    -0.267 OA
BRANCH  13  16
HETATM   16  C   UNL     1       7.050  31.768  61.836  1.00  0.00     0.035 A 
HETATM   17  C   UNL     1       5.814  32.298  62.211  1.00  0.00     0.031 A 
HETATM   18  C   UNL     1       5.695  33.051  63.385  1.00  0.00     0.026 A 
HETATM   19  C   UNL     1       6.814  33.290  64.177  1.00  0.00     0.034 A 
HETATM   20 CL   UNL     1       6.666  34.221  65.616  1.00  0.00    -0.084 Cl
HETATM   21  C   UNL     1       8.053  32.775  63.811  1.00  0.00     0.026 A 
HETATM   22  C   UNL     1       8.167  32.007  62.649  1.00  0.00     0.031 A 
ENDBRANCH  13  16
ENDBRANCH  10  12
BRANCH   1  23
HETATM   23  C   UNL     1       5.439  30.185  56.844  1.00  0.00    -0.028 A 
HETATM   24  C   UNL     1       5.535  29.859  55.481  1.00  0.00     0.010 A 
HETATM   25  C   UNL     1       4.633  30.396  54.558  1.00  0.00     0.007 A 
HETATM   26  C   UNL     1       3.632  31.281  54.974  1.00  0.00    -0.059 A 
HETATM   27  C   UNL     1       3.574  31.658  56.320  1.00  0.00     0.007 A 
HETATM   28  C   UNL     1       4.472  31.124  57.244  1.00  0.00     0.010 A 
BRANCH  26  29
HETATM   29  C   UNL     1       2.602  31.795  53.999  1.00  0.00     0.034 C 
HETATM   30  C   UNL     1       3.184  31.938  52.599  1.00  0.00     0.010 C 
ENDBRANCH  26  29
ENDBRANCH   1  23
BRANCH   5  31
HETATM   31  C   UNL     1       6.529  24.844  56.250  1.00  0.00     0.085 C 
BRANCH  31  32
HETATM   32  C   UNL     1       7.346  24.300  55.079  1.00  0.00     0.034 C 
BRANCH  32  33
HETATM   33  C   UNL     1       7.021  24.982  53.755  1.00  0.00     0.164 C 
BRANCH  33  34
HETATM   34  O   UNL     1       6.555  24.016  52.819  1.00  0.00    -0.401 OA
HETATM   35  H   UNL     1       6.983  23.169  53.031  1.00  0.00     0.209 HD
ENDBRANCH  33  34
ENDBRANCH  32  33
ENDBRANCH  31  32
ENDBRANCH   5  31
TORSDOF 8
ENDMDL
MODEL 7
REMARK VINA RESULT:      -8.1      2.023      2.470
REMARK  8 active torsions:
REMARK  status: ('A' for Active; 'I' for Inactive)
REMARK    1  A    between atoms: C_2  and  C_3 
REMARK    2  A    between atoms: C_6  and  C_7 
REMARK    3  A    between atoms: C_11  and  C_12 
REMARK    4  A    between atoms: C_12  and  C_13 
REMARK    5  A    between atoms: C_13  and  C_14 
REMARK    6  A    between atoms: C_14  and  O_15 
REMARK    7  A    between atoms: C_20  and  C_21 
REMARK       I    between atoms: C_21  and  N_22 
REMARK    8  A    between atoms: N_22  and  C_23 
ROOT
HETATM    1  C   UNL     1       6.164  28.438  54.315  1.00  0.00     0.202 C 
HETATM    2  N   UNL     1       5.577  28.770  53.018  1.00  0.00    -0.083 N 
HETATM    3  C   UNL     1       4.303  29.237  52.858  1.00  0.00     0.726 A 
HETATM    4  N   UNL     1       4.079  29.459  51.588  1.00  0.00    -0.046 NA
HETATM    5  C   UNL     1       5.287  29.153  51.003  1.00  0.00     0.166 A 
HETATM    6  N   UNL     1       6.249  28.744  51.847  1.00  0.00    -0.140 NA
HETATM    7  N   UNL     1       3.539  29.442  53.947  1.00  0.00    -0.192 N 
HETATM    8  C   UNL     1       4.059  29.438  55.242  1.00  0.00     0.037 C 
HETATM    9  C   UNL     1       3.126  29.949  56.314  1.00  0.00     0.070 C 
HETATM   10  C   UNL     1       5.322  28.989  55.471  1.00  0.00     0.062 C 
HETATM   11  H   UNL     1       2.645  29.910  53.815  1.00  0.00     0.184 HD
ENDROOT
BRANCH  10  12
HETATM   12  C   UNL     1       5.963  29.174  56.814  1.00  0.00     0.256 C 
HETATM   13  N   UNL     1       6.579  30.390  57.014  1.00  0.00    -0.323 N 
HETATM   14  H   UNL     1       6.578  31.065  56.264  1.00  0.00     0.169 HD
HETATM   15  O   UNL     1       5.865  28.284  57.654  1.00  0.00    -0.267 OA
BRANCH  13  16
HETATM   16  C   UNL     1       7.257  30.833  58.170  1.00  0.00     0.035 A 
HETATM   17  C   UNL     1       6.720  31.725  59.100  1.00  0.00     0.031 A 
HETATM   18  C   UNL     1       7.455  32.092  60.234  1.00  0.00     0.026 A 
HETATM   19  C   UNL     1       8.733  31.581  60.432  1.00  0.00     0.034 A 
HETATM   20 CL   UNL     1       9.636  32.038  61.823  1.00  0.00    -0.084 Cl
HETATM   21  C   UNL     1       9.284  30.697  59.510  1.00  0.00     0.026 A 
HETATM   22  C   UNL     1       8.543  30.315  58.388  1.00  0.00     0.031 A 
ENDBRANCH  13  16
ENDBRANCH  10  12
BRANCH   1  23
HETATM   23  C   UNL     1       6.364  26.924  54.407  1.00  0.00    -0.028 A 
HETATM   24  C   UNL     1       5.470  26.058  53.756  1.00  0.00     0.010 A 
HETATM   25  C   UNL     1       5.730  24.687  53.691  1.00  0.00     0.007 A 
HETATM   26  C   UNL     1       6.876  24.152  54.291  1.00  0.00    -0.059 A 
HETATM   27  C   UNL     1       7.736  25.002  54.994  1.00  0.00     0.007 A 
HETATM   28  C   UNL     1       7.479  26.371  55.061  1.00  0.00     0.010 A 
BRANCH  26  29
HETATM   29  C   UNL     1       7.208  22.687  54.150  1.00  0.00     0.034 C 
HETATM   30  C   UNL     1       8.036  22.422  52.900  1.00  0.00     0.010 C 
ENDBRANCH  26  29
ENDBRANCH   1  23
BRANCH   5  31
HETATM   31  C   UNL     1       5.524  29.323  49.547  1.00  0.00     0.085 C 
BRANCH  31  32
HETATM   32  C   UNL     1       4.543  30.294  48.891  1.00  0.00     0.034 C 
BRANCH  32  33
HETATM   33  C   UNL     1       5.203  31.586  48.424  1.00  0.00     0.164 C 
BRANCH  33  34
HETATM   34  O   UNL     1       6.311  31.889  49.266  1.00  0.00    -0.401 OA
HETATM   35  H   UNL     1       6.014  31.802  50.188  1.00  0.00     0.209 HD
ENDBRANCH  33  34
ENDBRANCH  32  33
ENDBRANCH  31  32
ENDBRANCH   5  31
TORSDOF 8
ENDMDL
MODEL 8
REMARK VINA RESULT:      -7.7      3.781      6.131
REMARK  8 active torsions:
REMARK  status: ('A' for Active; 'I' for Inactive)
REMARK    1  A    between atoms: C_2  and  C_3 
REMARK    2  A    between atoms: C_6  and  C_7 
REMARK    3  A    between atoms: C_11  and  C_12 
REMARK    4  A    between atoms: C_12  and  C_13 
REMARK    5  A    between atoms: C_13  and  C_14 
REMARK    6  A    between atoms: C_14  and  O_15 
REMARK    7  A    between atoms: C_20  and  C_21 
REMARK       I    between atoms: C_21  and  N_22 
REMARK    8  A    between atoms: N_22  and  C_23 
ROOT
HETATM    1  C   UNL     1       5.334  29.130  51.213  1.00  0.00     0.202 C 
HETATM    2  N   UNL     1       5.463  30.505  50.730  1.00  0.00    -0.083 N 
HETATM    3  C   UNL     1       4.961  31.591  51.389  1.00  0.00     0.726 A 
HETATM    4  N   UNL     1       5.254  32.677  50.719  1.00  0.00    -0.046 NA
HETATM    5  C   UNL     1       5.994  32.198  49.661  1.00  0.00     0.166 A 
HETATM    6  N   UNL     1       6.168  30.866  49.637  1.00  0.00    -0.140 NA
HETATM    7  N   UNL     1       4.338  31.412  52.568  1.00  0.00    -0.192 N 
HETATM    8  C   UNL     1       4.392  30.209  53.272  1.00  0.00     0.037 C 
HETATM    9  C   UNL     1       3.871  30.266  54.688  1.00  0.00     0.070 C 
HETATM   10  C   UNL     1       4.883  29.089  52.677  1.00  0.00     0.062 C 
HETATM   11  H   UNL     1       4.088  32.243  53.100  1.00  0.00     0.184 HD
ENDROOT
BRANCH  10  12
HETATM   12  C   UNL     1       5.141  27.850  53.482  1.00  0.00     0.256 C 
HETATM   13  N   UNL     1       6.378  27.782  54.084  1.00  0.00    -0.323 N 
HETATM   14  H   UNL     1       7.030  28.539  53.943  1.00  0.00     0.169 HD
HETATM   15  O   UNL     1       4.249  27.015  53.602  1.00  0.00    -0.267 OA
BRANCH  13  16
HETATM   16  C   UNL     1       6.887  26.742  54.892  1.00  0.00     0.035 A 
HETATM   17  C   UNL     1       6.960  26.796  56.285  1.00  0.00     0.031 A 
HETATM   18  C   UNL     1       7.458  25.707  57.010  1.00  0.00     0.026 A 
HETATM   19  C   UNL     1       7.899  24.568  56.343  1.00  0.00     0.034 A 
HETATM   20 CL   UNL     1       8.516  23.233  57.235  1.00  0.00    -0.084 Cl
HETATM   21  C   UNL     1       7.840  24.503  54.954  1.00  0.00     0.026 A 
HETATM   22  C   UNL     1       7.325  25.584  54.232  1.00  0.00     0.031 A 
ENDBRANCH  13  16
ENDBRANCH  10  12
BRANCH   1  23
HETATM   23  C   UNL     1       4.392  28.357  50.289  1.00  0.00    -0.028 A 
HETATM   24  C   UNL     1       3.141  28.900  49.948  1.00  0.00     0.010 A 
HETATM   25  C   UNL     1       2.342  28.287  48.979  1.00  0.00     0.007 A 
HETATM   26  C   UNL     1       2.765  27.113  48.347  1.00  0.00    -0.059 A 
HETATM   27  C   UNL     1       3.981  26.534  48.730  1.00  0.00     0.007 A 
HETATM   28  C   UNL     1       4.781  27.143  49.696  1.00  0.00     0.010 A 
BRANCH  26  29
HETATM   29  C   UNL     1       1.949  26.495  47.239  1.00  0.00     0.034 C 
HETATM   30  C   UNL     1       2.624  25.252  46.677  1.00  0.00     0.010 C 
ENDBRANCH  26  29
ENDBRANCH   1  23
BRANCH   5  31
HETATM   31  C   UNL     1       6.605  33.100  48.653  1.00  0.00     0.085 C 
BRANCH  31  32
HETATM   32  C   UNL     1       5.907  33.040  47.295  1.00  0.00     0.034 C 
BRANCH  32  33
HETATM   33  C   UNL     1       6.757  33.602  46.161  1.00  0.00     0.164 C 
BRANCH  33  34
HETATM   34  O   UNL     1       5.925  34.295  45.237  1.00  0.00    -0.401 OA
HETATM   35  H   UNL     1       5.217  33.687  44.963  1.00  0.00     0.209 HD
ENDBRANCH  33  34
ENDBRANCH  32  33
ENDBRANCH  31  32
ENDBRANCH   5  31
TORSDOF 8
ENDMDL
MODEL 9
REMARK VINA RESULT:      -7.5      3.226      6.203
REMARK  8 active torsions:
REMARK  status: ('A' for Active; 'I' for Inactive)
REMARK    1  A    between atoms: C_2  and  C_3 
REMARK    2  A    between atoms: C_6  and  C_7 
REMARK    3  A    between atoms: C_11  and  C_12 
REMARK    4  A    between atoms: C_12  and  C_13 
REMARK    5  A    between atoms: C_13  and  C_14 
REMARK    6  A    between atoms: C_14  and  O_15 
REMARK    7  A    between atoms: C_20  and  C_21 
REMARK       I    between atoms: C_21  and  N_22 
REMARK    8  A    between atoms: N_22  and  C_23 
ROOT
HETATM    1  C   UNL     1       5.397  26.726  53.821  1.00  0.00     0.202 C 
HETATM    2  N   UNL     1       6.329  25.598  53.806  1.00  0.00    -0.083 N 
HETATM    3  C   UNL     1       7.567  25.630  54.382  1.00  0.00     0.726 A 
HETATM    4  N   UNL     1       8.150  24.469  54.218  1.00  0.00    -0.046 NA
HETATM    5  C   UNL     1       7.189  23.729  53.567  1.00  0.00     0.166 A 
HETATM    6  N   UNL     1       6.041  24.376  53.310  1.00  0.00    -0.140 NA
HETATM    7  N   UNL     1       7.960  26.740  55.033  1.00  0.00    -0.192 N 
HETATM    8  C   UNL     1       7.077  27.769  55.364  1.00  0.00     0.037 C 
HETATM    9  C   UNL     1       7.621  28.802  56.322  1.00  0.00     0.070 C 
HETATM   10  C   UNL     1       5.827  27.796  54.830  1.00  0.00     0.062 C 
HETATM   11  H   UNL     1       8.828  26.695  55.561  1.00  0.00     0.184 HD
ENDROOT
BRANCH  10  12
HETATM   12  C   UNL     1       4.805  28.771  55.335  1.00  0.00     0.256 C 
HETATM   13  N   UNL     1       4.967  30.071  54.912  1.00  0.00    -0.323 N 
HETATM   14  H   UNL     1       5.749  30.295  54.314  1.00  0.00     0.169 HD
HETATM   15  O   UNL     1       3.880  28.364  56.033  1.00  0.00    -0.267 OA
BRANCH  13  16
HETATM   16  C   UNL     1       4.162  31.187  55.228  1.00  0.00     0.035 A 
HETATM   17  C   UNL     1       4.430  32.076  56.271  1.00  0.00     0.031 A 
HETATM   18  C   UNL     1       3.591  33.172  56.499  1.00  0.00     0.026 A 
HETATM   19  C   UNL     1       2.473  33.374  55.697  1.00  0.00     0.034 A 
HETATM   20 CL   UNL     1       1.439  34.719  55.983  1.00  0.00    -0.084 Cl
HETATM   21  C   UNL     1       2.188  32.492  54.659  1.00  0.00     0.026 A 
HETATM   22  C   UNL     1       3.038  31.408  54.419  1.00  0.00     0.031 A 
ENDBRANCH  13  16
ENDBRANCH  10  12
BRANCH   1  23
HETATM   23  C   UNL     1       5.254  27.281  52.403  1.00  0.00    -0.028 A 
HETATM   24  C   UNL     1       5.591  28.618  52.136  1.00  0.00     0.010 A 
HETATM   25  C   UNL     1       5.623  29.093  50.822  1.00  0.00     0.007 A 
HETATM   26  C   UNL     1       5.301  28.249  49.753  1.00  0.00    -0.059 A 
HETATM   27  C   UNL     1       4.902  26.935  50.021  1.00  0.00     0.007 A 
HETATM   28  C   UNL     1       4.869  26.458  51.330  1.00  0.00     0.010 A 
BRANCH  26  29
HETATM   29  C   UNL     1       5.418  28.730  48.328  1.00  0.00     0.034 C 
HETATM   30  C   UNL     1       5.239  27.587  47.339  1.00  0.00     0.010 C 
ENDBRANCH  26  29
ENDBRANCH   1  23
BRANCH   5  31
HETATM   31  C   UNL     1       7.391  22.298  53.227  1.00  0.00     0.085 C 
BRANCH  31  32
HETATM   32  C   UNL     1       8.769  21.776  53.633  1.00  0.00     0.034 C 
BRANCH  32  33
HETATM   33  C   UNL     1       8.702  20.519  54.493  1.00  0.00     0.164 C 
BRANCH  33  34
HETATM   34  O   UNL     1       7.587  20.601  55.375  1.00  0.00    -0.401 OA
HETATM   35  H   UNL     1       7.674  19.886  56.029  1.00  0.00     0.209 HD
ENDBRANCH  33  34
ENDBRANCH  32  33
ENDBRANCH  31  32
ENDBRANCH   5  31
TORSDOF 8
ENDMDL
MODEL 10
REMARK VINA RESULT:      -7.3      4.407      8.238
REMARK  8 active torsions:
REMARK  status: ('A' for Active; 'I' for Inactive)
REMARK    1  A    between atoms: C_2  and  C_3 
REMARK    2  A    between atoms: C_6  and  C_7 
REMARK    3  A    between atoms: C_11  and  C_12 
REMARK    4  A    between atoms: C_12  and  C_13 
REMARK    5  A    between atoms: C_13  and  C_14 
REMARK    6  A    between atoms: C_14  and  O_15 
REMARK    7  A    between atoms: C_20  and  C_21 
REMARK       I    between atoms: C_21  and  N_22 
REMARK    8  A    between atoms: N_22  and  C_23 
ROOT
HETATM    1  C   UNL     1       3.218  29.711  49.084  1.00  0.00     0.202 C 
HETATM    2  N   UNL     1       2.006  29.839  48.276  1.00  0.00    -0.083 N 
HETATM    3  C   UNL     1       1.607  28.914  47.353  1.00  0.00     0.726 A 
HETATM    4  N   UNL     1       0.480  29.300  46.812  1.00  0.00    -0.046 NA
HETATM    5  C   UNL     1       0.197  30.467  47.485  1.00  0.00     0.166 A 
HETATM    6  N   UNL     1       1.098  30.829  48.413  1.00  0.00    -0.140 NA
HETATM    7  N   UNL     1       2.340  27.798  47.186  1.00  0.00    -0.192 N 
HETATM    8  C   UNL     1       3.347  27.419  48.074  1.00  0.00     0.037 C 
HETATM    9  C   UNL     1       3.878  26.017  47.889  1.00  0.00     0.070 C 
HETATM   10  C   UNL     1       3.788  28.290  49.021  1.00  0.00     0.062 C 
HETATM   11  H   UNL     1       1.958  27.067  46.590  1.00  0.00     0.184 HD
ENDROOT
BRANCH  10  12
HETATM   12  C   UNL     1       4.713  27.829  50.108  1.00  0.00     0.256 C 
HETATM   13  N   UNL     1       4.130  27.069  51.098  1.00  0.00    -0.323 N 
HETATM   14  H   UNL     1       3.140  26.881  51.048  1.00  0.00     0.169 HD
HETATM   15  O   UNL     1       5.909  28.100  50.035  1.00  0.00    -0.267 OA
BRANCH  13  16
HETATM   16  C   UNL     1       4.754  26.508  52.233  1.00  0.00     0.035 A 
HETATM   17  C   UNL     1       4.905  27.170  53.453  1.00  0.00     0.031 A 
HETATM   18  C   UNL     1       5.515  26.528  54.536  1.00  0.00     0.026 A 
HETATM   19  C   UNL     1       5.992  25.228  54.397  1.00  0.00     0.034 A 
HETATM   20 CL   UNL     1       6.747  24.442  55.728  1.00  0.00    -0.084 Cl
HETATM   21  C   UNL     1       5.856  24.558  53.186  1.00  0.00     0.026 A 
HETATM   22  C   UNL     1       5.229  25.193  52.110  1.00  0.00     0.031 A 
ENDBRANCH  13  16
ENDBRANCH  10  12
BRANCH   1  23
HETATM   23  C   UNL     1       4.232  30.769  48.644  1.00  0.00    -0.028 A 
HETATM   24  C   UNL     1       4.401  31.054  47.278  1.00  0.00     0.010 A 
HETATM   25  C   UNL     1       5.198  32.126  46.870  1.00  0.00     0.007 A 
HETATM   26  C   UNL     1       5.856  32.922  47.814  1.00  0.00    -0.059 A 
HETATM   27  C   UNL     1       5.742  32.603  49.171  1.00  0.00     0.007 A 
HETATM   28  C   UNL     1       4.948  31.533  49.582  1.00  0.00     0.010 A 
BRANCH  26  29
HETATM   29  C   UNL     1       6.646  34.134  47.385  1.00  0.00     0.034 C 
HETATM   30  C   UNL     1       7.352  34.784  48.568  1.00  0.00     0.010 C 
ENDBRANCH  26  29
ENDBRANCH   1  23
BRANCH   5  31
HETATM   31  C   UNL     1      -1.049  31.236  47.241  1.00  0.00     0.085 C 
BRANCH  31  32
HETATM   32  C   UNL     1      -1.772  30.814  45.963  1.00  0.00     0.034 C 
BRANCH  32  33
HETATM   33  C   UNL     1      -2.928  29.853  46.219  1.00  0.00     0.164 C 
BRANCH  33  34
HETATM   34  O   UNL     1      -2.440  28.516  46.258  1.00  0.00    -0.401 OA
HETATM   35  H   UNL     1      -1.665  28.467  45.672  1.00  0.00     0.209 HD
ENDBRANCH  33  34
ENDBRANCH  32  33
ENDBRANCH  31  32
ENDBRANCH   5  31
TORSDOF 8
ENDMDL
