MODEL 1
REMARK VINA RESULT:      -8.3      0.000      0.000
REMARK  6 active torsions:
REMARK  status: ('A' for Active; 'I' for Inactive)
REMARK    1  A    between atoms: C_4  and  C_5 
REMARK       I    between atoms: C_5  and  N_6 
REMARK    2  A    between atoms: N_6  and  C_7 
REMARK    3  A    between atoms: C_15  and  C_16 
REMARK       I    between atoms: C_16  and  N_17 
REMARK    4  A    between atoms: N_17  and  C_18 
REMARK    5  A    between atoms: C_18  and  C_19 
REMARK    6  A    between atoms: C_19  and  N_20 
ROOT
HETATM    1  C   UNL     1       7.763  24.501  55.703  1.00  0.00     0.093 A 
HETATM    2  S   UNL     1       8.266  23.197  56.666  1.00  0.00    -0.075 SA
HETATM    3  C   UNL     1       8.310  22.144  55.346  1.00  0.00    -0.008 A 
HETATM    4  C   UNL     1       7.989  22.764  54.151  1.00  0.00    -0.026 A 
HETATM    5  C   UNL     1       7.937  21.955  52.880  1.00  0.00     0.041 C 
HETATM    6  C   UNL     1       7.830  20.445  53.145  1.00  0.00     0.005 C 
HETATM    7  C   UNL     1       8.848  19.993  54.198  1.00  0.00     0.005 C 
HETATM    8  C   UNL     1       8.601  20.685  55.543  1.00  0.00     0.047 C 
HETATM    9  C   UNL     1       7.722  24.185  54.345  1.00  0.00     0.073 A 
ENDROOT
BRANCH   1  10
HETATM   10  N   UNL     1       7.375  25.699  56.295  1.00  0.00    -0.316 N 
HETATM   11  C   UNL     1       6.078  26.180  56.393  1.00  0.00     0.256 C 
HETATM   12  O   UNL     1       5.058  25.515  56.247  1.00  0.00    -0.267 OA
HETATM   13  H   UNL     1       8.142  26.268  56.625  1.00  0.00     0.169 HD
BRANCH  11  14
HETATM   14  C   UNL     1       5.920  27.633  56.733  1.00  0.00     0.032 A 
HETATM   15  C   UNL     1       4.780  28.391  56.430  1.00  0.00     0.017 A 
HETATM   16  C   UNL     1       4.705  29.735  56.815  1.00  0.00     0.001 A 
HETATM   17  C   UNL     1       5.763  30.331  57.500  1.00  0.00     0.000 A 
HETATM   18  C   UNL     1       6.903  29.591  57.797  1.00  0.00     0.001 A 
HETATM   19  C   UNL     1       6.982  28.252  57.414  1.00  0.00     0.017 A 
ENDBRANCH  11  14
ENDBRANCH   1  10
BRANCH   9  20
HETATM   20  C   UNL     1       7.416  25.214  53.344  1.00  0.00     0.255 C 
HETATM   21  N   UNL     1       6.377  24.961  52.474  1.00  0.00    -0.355 N 
HETATM   22  H   UNL     1       5.865  24.099  52.612  1.00  0.00     0.162 HD
HETATM   23  O   UNL     1       8.114  26.216  53.171  1.00  0.00    -0.268 OA
BRANCH  21  24
HETATM   24  C   UNL     1       5.704  25.987  51.683  1.00  0.00     0.150 C 
BRANCH  24  25
HETATM   25  C   UNL     1       4.963  27.099  52.447  1.00  0.00     0.249 C 
BRANCH  25  26
HETATM   26  N   UNL     1       3.969  26.534  53.392  1.00  0.00    -0.078 N 
HETATM   27  H   UNL     1       4.488  26.220  54.232  1.00  0.00     0.274 HD
HETATM   28  H   UNL     1       3.271  27.218  53.702  1.00  0.00     0.274 HD
HETATM   29  H   UNL     1       3.489  25.710  53.012  1.00  0.00     0.274 HD
ENDBRANCH  25  26
ENDBRANCH  24  25
ENDBRANCH  21  24
ENDBRANCH   9  20
TORSDOF 6
ENDMDL
MODEL 2
REMARK VINA RESULT:      -8.1      2.377      7.333
REMARK  6 active torsions:
REMARK  status: ('A' for Active; 'I' for Inactive)
REMARK    1  A    between atoms: C_4  and  C_5 
REMARK       I    between atoms: C_5  and  N_6 
REMARK    2  A    between atoms: N_6  and  C_7 
REMARK    3  A    between atoms: C_15  and  C_16 
REMARK       I    between atoms: C_16  and  N_17 
REMARK    4  A    between atoms: N_17  and  C_18 
REMARK    5  A    between atoms: C_18  and  C_19 
REMARK    6  A    between atoms: C_19  and  N_20 
ROOT
HETATM    1  C   UNL     1       5.992  26.522  54.484  1.00  0.00     0.093 A 
HETATM    2  S   UNL     1       4.871  26.713  53.225  1.00  0.00    -0.075 SA
HETATM    3  C   UNL     1       4.487  28.286  53.707  1.00  0.00    -0.008 A 
HETATM    4  C   UNL     1       5.226  28.710  54.798  1.00  0.00    -0.026 A 
HETATM    5  C   UNL     1       4.974  30.075  55.384  1.00  0.00     0.041 C 
HETATM    6  C   UNL     1       3.621  30.662  54.956  1.00  0.00     0.005 C 
HETATM    7  C   UNL     1       3.408  30.521  53.445  1.00  0.00     0.005 C 
HETATM    8  C   UNL     1       3.394  29.049  53.021  1.00  0.00     0.047 C 
HETATM    9  C   UNL     1       6.171  27.687  55.230  1.00  0.00     0.073 A 
ENDROOT
BRANCH   1  10
HETATM   10  N   UNL     1       6.566  25.277  54.727  1.00  0.00    -0.316 N 
HETATM   11  C   UNL     1       7.463  24.614  53.902  1.00  0.00     0.256 C 
HETATM   12  O   UNL     1       8.110  25.127  52.995  1.00  0.00    -0.267 OA
HETATM   13  H   UNL     1       6.234  24.822  55.566  1.00  0.00     0.169 HD
BRANCH  11  14
HETATM   14  C   UNL     1       7.671  23.152  54.167  1.00  0.00     0.032 A 
HETATM   15  C   UNL     1       7.558  22.559  55.432  1.00  0.00     0.017 A 
HETATM   16  C   UNL     1       7.736  21.179  55.582  1.00  0.00     0.001 A 
HETATM   17  C   UNL     1       8.031  20.383  54.476  1.00  0.00     0.000 A 
HETATM   18  C   UNL     1       8.154  20.962  53.217  1.00  0.00     0.001 A 
HETATM   19  C   UNL     1       7.977  22.337  53.064  1.00  0.00     0.017 A 
ENDBRANCH  11  14
ENDBRANCH   1  10
BRANCH   9  20
HETATM   20  C   UNL     1       7.181  27.749  56.293  1.00  0.00     0.255 C 
HETATM   21  N   UNL     1       8.282  28.549  56.075  1.00  0.00    -0.355 N 
HETATM   22  H   UNL     1       8.298  29.077  55.211  1.00  0.00     0.162 HD
HETATM   23  O   UNL     1       7.148  27.032  57.297  1.00  0.00    -0.268 OA
BRANCH  21  24
HETATM   24  C   UNL     1       9.175  29.018  57.131  1.00  0.00     0.150 C 
BRANCH  24  25
HETATM   25  C   UNL     1       8.678  30.171  58.021  1.00  0.00     0.249 C 
BRANCH  25  26
HETATM   26  N   UNL     1       7.811  29.671  59.116  1.00  0.00    -0.078 N 
HETATM   27  H   UNL     1       7.157  28.983  58.700  1.00  0.00     0.274 HD
HETATM   28  H   UNL     1       8.332  29.189  59.857  1.00  0.00     0.274 HD
HETATM   29  H   UNL     1       7.238  30.413  59.535  1.00  0.00     0.274 HD
ENDBRANCH  25  26
ENDBRANCH  24  25
ENDBRANCH  21  24
ENDBRANCH   9  20
TORSDOF 6
ENDMDL
MODEL 3
REMARK VINA RESULT:      -8.0      6.274     10.513
REMARK  6 active torsions:
REMARK  status: ('A' for Active; 'I' for Inactive)
REMARK    1  A    between atoms: C_4  and  C_5 
REMARK       I    between atoms: C_5  and  N_6 
REMARK    2  A    between atoms: N_6  and  C_7 
REMARK    3  A    between atoms: C_15  and  C_16 
REMARK       I    between atoms: C_16  and  N_17 
REMARK    4  A    between atoms: N_17  and  C_18 
REMARK    5  A    between atoms: C_18  and  C_19 
REMARK    6  A    between atoms: C_19  and  N_20 
ROOT
HETATM    1  C   UNL     1       7.527  31.816  61.426  1.00  0.00     0.093 A 
HETATM    2  S   UNL     1       8.133  32.000  63.000  1.00  0.00    -0.075 SA
HETATM    3  C   UNL     1       7.010  33.206  63.370  1.00  0.00    -0.008 A 
HETATM    4  C   UNL     1       6.132  33.462  62.331  1.00  0.00    -0.026 A 
HETATM    5  C   UNL     1       5.094  34.544  62.480  1.00  0.00     0.041 C 
HETATM    6  C   UNL     1       5.420  35.523  63.618  1.00  0.00     0.005 C 
HETATM    7  C   UNL     1       5.813  34.777  64.897  1.00  0.00     0.005 C 
HETATM    8  C   UNL     1       7.073  33.931  64.682  1.00  0.00     0.047 C 
HETATM    9  C   UNL     1       6.393  32.593  61.189  1.00  0.00     0.073 A 
ENDROOT
BRANCH   1  10
HETATM   10  N   UNL     1       8.198  31.014  60.506  1.00  0.00    -0.316 N 
HETATM   11  C   UNL     1       9.046  31.456  59.502  1.00  0.00     0.256 C 
HETATM   12  O   UNL     1       9.565  32.566  59.443  1.00  0.00    -0.267 OA
HETATM   13  H   UNL     1       7.982  30.030  60.576  1.00  0.00     0.169 HD
BRANCH  11  14
HETATM   14  C   UNL     1       9.370  30.478  58.412  1.00  0.00     0.032 A 
HETATM   15  C   UNL     1      10.542  30.517  57.644  1.00  0.00     0.017 A 
HETATM   16  C   UNL     1      10.778  29.542  56.668  1.00  0.00     0.001 A 
HETATM   17  C   UNL     1       9.850  28.525  56.450  1.00  0.00     0.000 A 
HETATM   18  C   UNL     1       8.679  28.481  57.199  1.00  0.00     0.001 A 
HETATM   19  C   UNL     1       8.440  29.452  58.172  1.00  0.00     0.017 A 
ENDBRANCH  11  14
ENDBRANCH   1  10
BRANCH   9  20
HETATM   20  C   UNL     1       5.662  32.486  59.921  1.00  0.00     0.255 C 
HETATM   21  N   UNL     1       4.550  31.672  59.898  1.00  0.00    -0.355 N 
HETATM   22  H   UNL     1       4.286  31.236  60.772  1.00  0.00     0.162 HD
HETATM   23  O   UNL     1       6.066  32.983  58.866  1.00  0.00    -0.268 OA
BRANCH  21  24
HETATM   24  C   UNL     1       3.514  31.731  58.870  1.00  0.00     0.150 C 
BRANCH  24  25
HETATM   25  C   UNL     1       3.593  30.707  57.723  1.00  0.00     0.249 C 
BRANCH  25  26
HETATM   26  N   UNL     1       4.525  29.601  58.052  1.00  0.00    -0.078 N 
HETATM   27  H   UNL     1       4.288  29.273  59.005  1.00  0.00     0.274 HD
HETATM   28  H   UNL     1       4.436  28.797  57.420  1.00  0.00     0.274 HD
HETATM   29  H   UNL     1       5.505  29.905  58.074  1.00  0.00     0.274 HD
ENDBRANCH  25  26
ENDBRANCH  24  25
ENDBRANCH  21  24
ENDBRANCH   9  20
TORSDOF 6
ENDMDL
MODEL 4
REMARK VINA RESULT:      -7.9      2.494      7.142
REMARK  6 active torsions:
REMARK  status: ('A' for Active; 'I' for Inactive)
REMARK    1  A    between atoms: C_4  and  C_5 
REMARK       I    between atoms: C_5  and  N_6 
REMARK    2  A    between atoms: N_6  and  C_7 
REMARK    3  A    between atoms: C_15  and  C_16 
REMARK       I    between atoms: C_16  and  N_17 
REMARK    4  A    between atoms: N_17  and  C_18 
REMARK    5  A    between atoms: C_18  and  C_19 
REMARK    6  A    between atoms: C_19  and  N_20 
ROOT
HETATM    1  C   UNL     1       5.692  26.177  52.703  1.00  0.00     0.093 A 
HETATM    2  S   UNL     1       5.293  26.085  51.056  1.00  0.00    -0.075 SA
HETATM    3  C   UNL     1       4.556  27.604  51.074  1.00  0.00    -0.008 A 
HETATM    4  C   UNL     1       4.634  28.226  52.309  1.00  0.00    -0.026 A 
HETATM    5  C   UNL     1       3.986  29.572  52.508  1.00  0.00     0.041 C 
HETATM    6  C   UNL     1       2.945  29.893  51.426  1.00  0.00     0.005 C 
HETATM    7  C   UNL     1       3.495  29.605  50.024  1.00  0.00     0.005 C 
HETATM    8  C   UNL     1       3.845  28.122  49.859  1.00  0.00     0.047 C 
HETATM    9  C   UNL     1       5.365  27.409  53.270  1.00  0.00     0.073 A 
ENDROOT
BRANCH   1  10
HETATM   10  N   UNL     1       6.213  25.066  53.361  1.00  0.00    -0.316 N 
HETATM   11  C   UNL     1       7.397  24.413  53.051  1.00  0.00     0.256 C 
HETATM   12  O   UNL     1       8.303  24.868  52.361  1.00  0.00    -0.267 OA
HETATM   13  H   UNL     1       5.620  24.698  54.091  1.00  0.00     0.169 HD
BRANCH  11  14
HETATM   14  C   UNL     1       7.587  23.044  53.636  1.00  0.00     0.032 A 
HETATM   15  C   UNL     1       7.885  21.902  52.880  1.00  0.00     0.017 A 
HETATM   16  C   UNL     1       8.079  20.669  53.514  1.00  0.00     0.001 A 
HETATM   17  C   UNL     1       7.974  20.566  54.900  1.00  0.00     0.000 A 
HETATM   18  C   UNL     1       7.670  21.690  55.659  1.00  0.00     0.001 A 
HETATM   19  C   UNL     1       7.475  22.921  55.031  1.00  0.00     0.017 A 
ENDBRANCH  11  14
ENDBRANCH   1  10
BRANCH   9  20
HETATM   20  C   UNL     1       5.733  27.717  54.657  1.00  0.00     0.255 C 
HETATM   21  N   UNL     1       6.535  28.819  54.869  1.00  0.00    -0.355 N 
HETATM   22  H   UNL     1       6.780  29.368  54.055  1.00  0.00     0.162 HD
HETATM   23  O   UNL     1       5.467  26.975  55.606  1.00  0.00    -0.268 OA
BRANCH  21  24
HETATM   24  C   UNL     1       6.690  29.480  56.161  1.00  0.00     0.150 C 
BRANCH  24  25
HETATM   25  C   UNL     1       5.440  30.130  56.781  1.00  0.00     0.249 C 
BRANCH  25  26
HETATM   26  N   UNL     1       4.801  29.232  57.774  1.00  0.00    -0.078 N 
HETATM   27  H   UNL     1       5.002  29.619  58.713  1.00  0.00     0.274 HD
HETATM   28  H   UNL     1       3.781  29.181  57.675  1.00  0.00     0.274 HD
HETATM   29  H   UNL     1       5.189  28.282  57.752  1.00  0.00     0.274 HD
ENDBRANCH  25  26
ENDBRANCH  24  25
ENDBRANCH  21  24
ENDBRANCH   9  20
TORSDOF 6
ENDMDL
MODEL 5
REMARK VINA RESULT:      -7.7      2.004      6.593
REMARK  6 active torsions:
REMARK  status: ('A' for Active; 'I' for Inactive)
REMARK    1  A    between atoms: C_4  and  C_5 
REMARK       I    between atoms: C_5  and  N_6 
REMARK    2  A    between atoms: N_6  and  C_7 
REMARK    3  A    between atoms: C_15  and  C_16 
REMARK       I    between atoms: C_16  and  N_17 
REMARK    4  A    between atoms: N_17  and  C_18 
REMARK    5  A    between atoms: C_18  and  C_19 
REMARK    6  A    between atoms: C_19  and  N_20 
ROOT
HETATM    1  C   UNL     1       5.678  25.540  55.263  1.00  0.00     0.093 A 
HETATM    2  S   UNL     1       5.212  26.155  56.774  1.00  0.00    -0.075 SA
HETATM    3  C   UNL     1       4.945  27.700  56.145  1.00  0.00    -0.008 A 
HETATM    4  C   UNL     1       5.160  27.770  54.779  1.00  0.00    -0.026 A 
HETATM    5  C   UNL     1       5.009  29.089  54.066  1.00  0.00     0.041 C 
HETATM    6  C   UNL     1       5.050  30.287  55.026  1.00  0.00     0.005 C 
HETATM    7  C   UNL     1       4.138  30.060  56.237  1.00  0.00     0.005 C 
HETATM    8  C   UNL     1       4.587  28.841  57.050  1.00  0.00     0.047 C 
HETATM    9  C   UNL     1       5.537  26.471  54.234  1.00  0.00     0.073 A 
ENDROOT
BRANCH   1  10
HETATM   10  N   UNL     1       6.210  24.257  55.163  1.00  0.00    -0.316 N 
HETATM   11  C   UNL     1       7.523  23.894  55.421  1.00  0.00     0.256 C 
HETATM   12  O   UNL     1       8.339  24.563  56.048  1.00  0.00    -0.267 OA
HETATM   13  H   UNL     1       5.562  23.563  54.818  1.00  0.00     0.169 HD
BRANCH  11  14
HETATM   14  C   UNL     1       7.967  22.555  54.908  1.00  0.00     0.032 A 
HETATM   15  C   UNL     1       8.532  21.555  55.712  1.00  0.00     0.017 A 
HETATM   16  C   UNL     1       8.888  20.321  55.154  1.00  0.00     0.001 A 
HETATM   17  C   UNL     1       8.685  20.077  53.796  1.00  0.00     0.000 A 
HETATM   18  C   UNL     1       8.133  21.066  52.988  1.00  0.00     0.001 A 
HETATM   19  C   UNL     1       7.778  22.297  53.540  1.00  0.00     0.017 A 
ENDBRANCH  11  14
ENDBRANCH   1  10
BRANCH   9  20
HETATM   20  C   UNL     1       5.787  26.090  52.839  1.00  0.00     0.255 C 
HETATM   21  N   UNL     1       4.730  26.181  51.959  1.00  0.00    -0.355 N 
HETATM   22  H   UNL     1       3.861  26.549  52.325  1.00  0.00     0.162 HD
HETATM   23  O   UNL     1       6.845  25.581  52.457  1.00  0.00    -0.268 OA
BRANCH  21  24
HETATM   24  C   UNL     1       4.875  26.205  50.506  1.00  0.00     0.150 C 
BRANCH  24  25
HETATM   25  C   UNL     1       5.051  27.579  49.833  1.00  0.00     0.249 C 
BRANCH  25  26
HETATM   26  N   UNL     1       5.440  27.435  48.409  1.00  0.00    -0.078 N 
HETATM   27  H   UNL     1       4.794  26.747  47.982  1.00  0.00     0.274 HD
HETATM   28  H   UNL     1       5.353  28.308  47.876  1.00  0.00     0.274 HD
HETATM   29  H   UNL     1       6.390  27.065  48.296  1.00  0.00     0.274 HD
ENDBRANCH  25  26
ENDBRANCH  24  25
ENDBRANCH  21  24
ENDBRANCH   9  20
TORSDOF 6
ENDMDL
MODEL 6
REMARK VINA RESULT:      -7.7      1.419      1.971
REMARK  6 active torsions:
REMARK  status: ('A' for Active; 'I' for Inactive)
REMARK    1  A    between atoms: C_4  and  C_5 
REMARK       I    between atoms: C_5  and  N_6 
REMARK    2  A    between atoms: N_6  and  C_7 
REMARK    3  A    between atoms: C_15  and  C_16 
REMARK       I    between atoms: C_16  and  N_17 
REMARK    4  A    between atoms: N_17  and  C_18 
REMARK    5  A    between atoms: C_18  and  C_19 
REMARK    6  A    between atoms: C_19  and  N_20 
ROOT
HETATM    1  C   UNL     1       7.640  25.137  55.487  1.00  0.00     0.093 A 
HETATM    2  S   UNL     1       8.832  24.160  56.199  1.00  0.00    -0.075 SA
HETATM    3  C   UNL     1       8.594  22.923  55.075  1.00  0.00    -0.008 A 
HETATM    4  C   UNL     1       7.644  23.238  54.118  1.00  0.00    -0.026 A 
HETATM    5  C   UNL     1       7.278  22.224  53.066  1.00  0.00     0.041 C 
HETATM    6  C   UNL     1       7.702  20.798  53.447  1.00  0.00     0.005 C 
HETATM    7  C   UNL     1       9.150  20.765  53.950  1.00  0.00     0.005 C 
HETATM    8  C   UNL     1       9.319  21.617  55.212  1.00  0.00     0.047 C 
HETATM    9  C   UNL     1       7.114  24.583  54.319  1.00  0.00     0.073 A 
ENDROOT
BRANCH   1  10
HETATM   10  N   UNL     1       7.233  26.312  56.111  1.00  0.00    -0.316 N 
HETATM   11  C   UNL     1       7.548  27.602  55.712  1.00  0.00     0.256 C 
HETATM   12  O   UNL     1       7.976  27.922  54.608  1.00  0.00    -0.267 OA
HETATM   13  H   UNL     1       6.704  26.171  56.961  1.00  0.00     0.169 HD
BRANCH  11  14
HETATM   14  C   UNL     1       7.320  28.695  56.715  1.00  0.00     0.032 A 
HETATM   15  C   UNL     1       8.110  28.892  57.856  1.00  0.00     0.017 A 
HETATM   16  C   UNL     1       7.844  29.959  58.721  1.00  0.00     0.001 A 
HETATM   17  C   UNL     1       6.790  30.833  58.458  1.00  0.00     0.000 A 
HETATM   18  C   UNL     1       5.994  30.643  57.333  1.00  0.00     0.001 A 
HETATM   19  C   UNL     1       6.256  29.579  56.469  1.00  0.00     0.017 A 
ENDBRANCH  11  14
ENDBRANCH   1  10
BRANCH   9  20
HETATM   20  C   UNL     1       6.150  25.329  53.503  1.00  0.00     0.255 C 
HETATM   21  N   UNL     1       6.652  26.084  52.464  1.00  0.00    -0.355 N 
HETATM   22  H   UNL     1       7.650  26.037  52.306  1.00  0.00     0.162 HD
HETATM   23  O   UNL     1       4.951  25.410  53.780  1.00  0.00    -0.268 OA
BRANCH  21  24
HETATM   24  C   UNL     1       5.848  26.578  51.350  1.00  0.00     0.150 C 
BRANCH  24  25
HETATM   25  C   UNL     1       5.465  28.069  51.357  1.00  0.00     0.249 C 
BRANCH  25  26
HETATM   26  N   UNL     1       6.068  28.775  52.513  1.00  0.00    -0.078 N 
HETATM   27  H   UNL     1       6.994  29.126  52.210  1.00  0.00     0.274 HD
HETATM   28  H   UNL     1       5.519  29.585  52.824  1.00  0.00     0.274 HD
HETATM   29  H   UNL     1       6.231  28.152  53.313  1.00  0.00     0.274 HD
ENDBRANCH  25  26
ENDBRANCH  24  25
ENDBRANCH  21  24
ENDBRANCH   9  20
TORSDOF 6
ENDMDL
MODEL 7
REMARK VINA RESULT:      -7.6      1.760      2.375
REMARK  6 active torsions:
REMARK  status: ('A' for Active; 'I' for Inactive)
REMARK    1  A    between atoms: C_4  and  C_5 
REMARK       I    between atoms: C_5  and  N_6 
REMARK    2  A    between atoms: N_6  and  C_7 
REMARK    3  A    between atoms: C_15  and  C_16 
REMARK       I    between atoms: C_16  and  N_17 
REMARK    4  A    between atoms: N_17  and  C_18 
REMARK    5  A    between atoms: C_18  and  C_19 
REMARK    6  A    between atoms: C_19  and  N_20 
ROOT
HETATM    1  C   UNL     1       6.430  25.652  55.106  1.00  0.00     0.093 A 
HETATM    2  S   UNL     1       7.654  25.145  56.168  1.00  0.00    -0.075 SA
HETATM    3  C   UNL     1       8.038  23.812  55.206  1.00  0.00    -0.008 A 
HETATM    4  C   UNL     1       7.282  23.747  54.047  1.00  0.00    -0.026 A 
HETATM    5  C   UNL     1       7.469  22.592  53.098  1.00  0.00     0.041 C 
HETATM    6  C   UNL     1       8.179  21.398  53.753  1.00  0.00     0.005 C 
HETATM    7  C   UNL     1       9.423  21.848  54.527  1.00  0.00     0.005 C 
HETATM    8  C   UNL     1       9.051  22.806  55.665  1.00  0.00     0.047 C 
HETATM    9  C   UNL     1       6.364  24.876  53.949  1.00  0.00     0.073 A 
ENDROOT
BRANCH   1  10
HETATM   10  N   UNL     1       5.576  26.691  55.467  1.00  0.00    -0.316 N 
HETATM   11  C   UNL     1       5.579  27.973  54.938  1.00  0.00     0.256 C 
HETATM   12  O   UNL     1       6.117  28.310  53.888  1.00  0.00    -0.267 OA
HETATM   13  H   UNL     1       4.945  26.467  56.223  1.00  0.00     0.169 HD
BRANCH  11  14
HETATM   14  C   UNL     1       4.836  29.024  55.709  1.00  0.00     0.032 A 
HETATM   15  C   UNL     1       5.004  29.255  57.082  1.00  0.00     0.017 A 
HETATM   16  C   UNL     1       4.292  30.281  57.715  1.00  0.00     0.001 A 
HETATM   17  C   UNL     1       3.410  31.079  56.987  1.00  0.00     0.000 A 
HETATM   18  C   UNL     1       3.229  30.852  55.627  1.00  0.00     0.001 A 
HETATM   19  C   UNL     1       3.936  29.830  54.993  1.00  0.00     0.017 A 
ENDBRANCH  11  14
ENDBRANCH   1  10
BRANCH   9  20
HETATM   20  C   UNL     1       5.442  25.227  52.863  1.00  0.00     0.255 C 
HETATM   21  N   UNL     1       5.926  26.037  51.858  1.00  0.00    -0.355 N 
HETATM   22  H   UNL     1       6.901  26.300  51.914  1.00  0.00     0.162 HD
HETATM   23  O   UNL     1       4.242  24.938  52.877  1.00  0.00    -0.268 OA
BRANCH  21  24
HETATM   24  C   UNL     1       5.296  26.181  50.549  1.00  0.00     0.150 C 
BRANCH  24  25
HETATM   25  C   UNL     1       4.488  27.465  50.287  1.00  0.00     0.249 C 
BRANCH  25  26
HETATM   26  N   UNL     1       3.854  27.965  51.531  1.00  0.00    -0.078 N 
HETATM   27  H   UNL     1       3.375  28.853  51.297  1.00  0.00     0.274 HD
HETATM   28  H   UNL     1       3.147  27.326  51.910  1.00  0.00     0.274 HD
HETATM   29  H   UNL     1       4.541  28.181  52.264  1.00  0.00     0.274 HD
ENDBRANCH  25  26
ENDBRANCH  24  25
ENDBRANCH  21  24
ENDBRANCH   9  20
TORSDOF 6
ENDMDL
MODEL 8
REMARK VINA RESULT:      -7.5      1.914      2.663
REMARK  6 active torsions:
REMARK  status: ('A' for Active; 'I' for Inactive)
REMARK    1  A    between atoms: C_4  and  C_5 
REMARK       I    between atoms: C_5  and  N_6 
REMARK    2  A    between atoms: N_6  and  C_7 
REMARK    3  A    between atoms: C_15  and  C_16 
REMARK       I    between atoms: C_16  and  N_17 
REMARK    4  A    between atoms: N_17  and  C_18 
REMARK    5  A    between atoms: C_18  and  C_19 
REMARK    6  A    between atoms: C_19  and  N_20 
ROOT
HETATM    1  C   UNL     1       7.667  26.480  56.400  1.00  0.00     0.093 A 
HETATM    2  S   UNL     1       8.282  25.262  57.409  1.00  0.00    -0.075 SA
HETATM    3  C   UNL     1       8.227  24.110  56.176  1.00  0.00    -0.008 A 
HETATM    4  C   UNL     1       7.786  24.631  54.971  1.00  0.00    -0.026 A 
HETATM    5  C   UNL     1       7.636  23.725  53.777  1.00  0.00     0.041 C 
HETATM    6  C   UNL     1       7.584  22.239  54.164  1.00  0.00     0.005 C 
HETATM    7  C   UNL     1       8.703  21.884  55.150  1.00  0.00     0.005 C 
HETATM    8  C   UNL     1       8.565  22.675  56.455  1.00  0.00     0.047 C 
HETATM    9  C   UNL     1       7.509  26.059  55.080  1.00  0.00     0.073 A 
ENDROOT
BRANCH   1  10
HETATM   10  N   UNL     1       7.310  27.716  56.932  1.00  0.00    -0.316 N 
HETATM   11  C   UNL     1       8.154  28.800  57.122  1.00  0.00     0.256 C 
HETATM   12  O   UNL     1       9.251  28.950  56.595  1.00  0.00    -0.267 OA
HETATM   13  H   UNL     1       6.351  27.772  57.246  1.00  0.00     0.169 HD
BRANCH  11  14
HETATM   14  C   UNL     1       7.662  29.888  58.030  1.00  0.00     0.032 A 
HETATM   15  C   UNL     1       6.550  30.696  57.757  1.00  0.00     0.017 A 
HETATM   16  C   UNL     1       6.141  31.668  58.679  1.00  0.00     0.001 A 
HETATM   17  C   UNL     1       6.838  31.841  59.874  1.00  0.00     0.000 A 
HETATM   18  C   UNL     1       7.948  31.051  60.152  1.00  0.00     0.001 A 
HETATM   19  C   UNL     1       8.359  30.082  59.235  1.00  0.00     0.017 A 
ENDBRANCH  11  14
ENDBRANCH   1  10
BRANCH   9  20
HETATM   20  C   UNL     1       7.092  27.003  54.037  1.00  0.00     0.255 C 
HETATM   21  N   UNL     1       5.930  26.717  53.353  1.00  0.00    -0.355 N 
HETATM   22  H   UNL     1       5.417  25.896  53.648  1.00  0.00     0.162 HD
HETATM   23  O   UNL     1       7.790  27.951  53.667  1.00  0.00    -0.268 OA
BRANCH  21  24
HETATM   24  C   UNL     1       5.181  27.695  52.568  1.00  0.00     0.150 C 
BRANCH  24  25
HETATM   25  C   UNL     1       5.385  27.687  51.042  1.00  0.00     0.249 C 
BRANCH  25  26
HETATM   26  N   UNL     1       5.815  26.351  50.563  1.00  0.00    -0.078 N 
HETATM   27  H   UNL     1       5.017  25.705  50.698  1.00  0.00     0.274 HD
HETATM   28  H   UNL     1       6.055  26.337  49.565  1.00  0.00     0.274 HD
HETATM   29  H   UNL     1       6.601  25.972  51.104  1.00  0.00     0.274 HD
ENDBRANCH  25  26
ENDBRANCH  24  25
ENDBRANCH  21  24
ENDBRANCH   9  20
TORSDOF 6
ENDMDL
MODEL 9
REMARK VINA RESULT:      -7.3      2.940      7.154
REMARK  6 active torsions:
REMARK  status: ('A' for Active; 'I' for Inactive)
REMARK    1  A    between atoms: C_4  and  C_5 
REMARK       I    between atoms: C_5  and  N_6 
REMARK    2  A    between atoms: N_6  and  C_7 
REMARK    3  A    between atoms: C_15  and  C_16 
REMARK       I    between atoms: C_16  and  N_17 
REMARK    4  A    between atoms: N_17  and  C_18 
REMARK    5  A    between atoms: C_18  and  C_19 
REMARK    6  A    between atoms: C_19  and  N_20 
ROOT
HETATM    1  C   UNL     1       4.675  27.658  54.314  1.00  0.00     0.093 A 
HETATM    2  S   UNL     1       4.208  28.526  55.695  1.00  0.00    -0.075 SA
HETATM    3  C   UNL     1       3.882  29.920  54.799  1.00  0.00    -0.008 A 
HETATM    4  C   UNL     1       4.079  29.745  53.440  1.00  0.00    -0.026 A 
HETATM    5  C   UNL     1       3.876  30.906  52.501  1.00  0.00     0.041 C 
HETATM    6  C   UNL     1       3.890  32.260  53.225  1.00  0.00     0.005 C 
HETATM    7  C   UNL     1       3.001  32.232  54.473  1.00  0.00     0.005 C 
HETATM    8  C   UNL     1       3.499  31.197  55.487  1.00  0.00     0.047 C 
HETATM    9  C   UNL     1       4.492  28.379  53.135  1.00  0.00     0.073 A 
ENDROOT
BRANCH   1  10
HETATM   10  N   UNL     1       5.247  26.395  54.441  1.00  0.00    -0.316 N 
HETATM   11  C   UNL     1       6.578  26.124  54.720  1.00  0.00     0.256 C 
HETATM   12  O   UNL     1       7.387  26.922  55.181  1.00  0.00    -0.267 OA
HETATM   13  H   UNL     1       4.613  25.630  54.255  1.00  0.00     0.169 HD
BRANCH  11  14
HETATM   14  C   UNL     1       7.053  24.725  54.455  1.00  0.00     0.032 A 
HETATM   15  C   UNL     1       7.151  23.730  55.437  1.00  0.00     0.017 A 
HETATM   16  C   UNL     1       7.573  22.440  55.094  1.00  0.00     0.001 A 
HETATM   17  C   UNL     1       7.901  22.135  53.774  1.00  0.00     0.000 A 
HETATM   18  C   UNL     1       7.816  23.117  52.792  1.00  0.00     0.001 A 
HETATM   19  C   UNL     1       7.396  24.404  53.131  1.00  0.00     0.017 A 
ENDBRANCH  11  14
ENDBRANCH   1  10
BRANCH   9  20
HETATM   20  C   UNL     1       4.737  27.757  51.829  1.00  0.00     0.255 C 
HETATM   21  N   UNL     1       3.679  27.700  50.946  1.00  0.00    -0.355 N 
HETATM   22  H   UNL     1       2.814  28.134  51.243  1.00  0.00     0.162 HD
HETATM   23  O   UNL     1       5.790  27.181  51.543  1.00  0.00    -0.268 OA
BRANCH  21  24
HETATM   24  C   UNL     1       3.822  27.467  49.512  1.00  0.00     0.150 C 
BRANCH  24  25
HETATM   25  C   UNL     1       4.537  28.551  48.685  1.00  0.00     0.249 C 
BRANCH  25  26
HETATM   26  N   UNL     1       5.977  28.237  48.515  1.00  0.00    -0.078 N 
HETATM   27  H   UNL     1       6.293  28.705  47.646  1.00  0.00     0.274 HD
HETATM   28  H   UNL     1       6.560  28.588  49.282  1.00  0.00     0.274 HD
HETATM   29  H   UNL     1       6.149  27.232  48.393  1.00  0.00     0.274 HD
ENDBRANCH  25  26
ENDBRANCH  24  25
ENDBRANCH  21  24
ENDBRANCH   9  20
TORSDOF 6
ENDMDL
MODEL 10
REMARK VINA RESULT:      -7.2      2.879      7.345
REMARK  6 active torsions:
REMARK  status: ('A' for Active; 'I' for Inactive)
REMARK    1  A    between atoms: C_4  and  C_5 
REMARK       I    between atoms: C_5  and  N_6 
REMARK    2  A    between atoms: N_6  and  C_7 
REMARK    3  A    between atoms: C_15  and  C_16 
REMARK       I    between atoms: C_16  and  N_17 
REMARK    4  A    between atoms: N_17  and  C_18 
REMARK    5  A    between atoms: C_18  and  C_19 
REMARK    6  A    between atoms: C_19  and  N_20 
ROOT
HETATM    1  C   UNL     1       6.221  27.157  52.734  1.00  0.00     0.093 A 
HETATM    2  S   UNL     1       5.429  27.454  51.263  1.00  0.00    -0.075 SA
HETATM    3  C   UNL     1       4.658  28.828  51.871  1.00  0.00    -0.008 A 
HETATM    4  C   UNL     1       5.015  29.112  53.178  1.00  0.00    -0.026 A 
HETATM    5  C   UNL     1       4.382  30.282  53.887  1.00  0.00     0.041 C 
HETATM    6  C   UNL     1       3.092  30.760  53.203  1.00  0.00     0.005 C 
HETATM    7  C   UNL     1       3.287  30.907  51.690  1.00  0.00     0.005 C 
HETATM    8  C   UNL     1       3.646  29.564  51.043  1.00  0.00     0.047 C 
HETATM    9  C   UNL     1       5.995  28.156  53.681  1.00  0.00     0.073 A 
ENDROOT
BRANCH   1  10
HETATM   10  N   UNL     1       6.934  25.976  52.919  1.00  0.00    -0.316 N 
HETATM   11  C   UNL     1       6.409  24.757  53.322  1.00  0.00     0.256 C 
HETATM   12  O   UNL     1       5.222  24.448  53.295  1.00  0.00    -0.267 OA
HETATM   13  H   UNL     1       7.932  26.067  52.790  1.00  0.00     0.169 HD
BRANCH  11  14
HETATM   14  C   UNL     1       7.386  23.727  53.806  1.00  0.00     0.032 A 
HETATM   15  C   UNL     1       8.047  23.790  55.040  1.00  0.00     0.017 A 
HETATM   16  C   UNL     1       8.919  22.765  55.426  1.00  0.00     0.001 A 
HETATM   17  C   UNL     1       9.139  21.675  54.586  1.00  0.00     0.000 A 
HETATM   18  C   UNL     1       8.495  21.605  53.355  1.00  0.00     0.001 A 
HETATM   19  C   UNL     1       7.626  22.626  52.967  1.00  0.00     0.017 A 
ENDBRANCH  11  14
ENDBRANCH   1  10
BRANCH   9  20
HETATM   20  C   UNL     1       6.683  28.131  54.977  1.00  0.00     0.255 C 
HETATM   21  N   UNL     1       7.573  29.150  55.241  1.00  0.00    -0.355 N 
HETATM   22  H   UNL     1       7.660  29.874  54.538  1.00  0.00     0.162 HD
HETATM   23  O   UNL     1       6.595  27.189  55.769  1.00  0.00    -0.268 OA
BRANCH  21  24
HETATM   24  C   UNL     1       8.054  29.491  56.577  1.00  0.00     0.150 C 
BRANCH  24  25
HETATM   25  C   UNL     1       9.484  29.059  56.948  1.00  0.00     0.249 C 
BRANCH  25  26
HETATM   26  N   UNL     1      10.496  29.862  56.218  1.00  0.00    -0.078 N 
HETATM   27  H   UNL     1      10.428  29.606  55.217  1.00  0.00     0.274 HD
HETATM   28  H   UNL     1      10.335  30.874  56.287  1.00  0.00     0.274 HD
HETATM   29  H   UNL     1      11.455  29.652  56.517  1.00  0.00     0.274 HD
ENDBRANCH  25  26
ENDBRANCH  24  25
ENDBRANCH  21  24
ENDBRANCH   9  20
TORSDOF 6
ENDMDL
