MODEL 1
REMARK VINA RESULT:      -9.1      0.000      0.000
REMARK  4 active torsions:
REMARK  status: ('A' for Active; 'I' for Inactive)
REMARK    1  A    between atoms: C_7  and  C_8 
REMARK    2  A    between atoms: C_8  and  N_9 
REMARK    3  A    between atoms: N_15  and  C_17 
REMARK    4  A    between atoms: C_21  and  C_22 
ROOT
HETATM    1  N   UNL     1       8.341  29.268  55.559  1.00  0.00    -0.067 N 
HETATM    2  H   UNL     1       8.829  30.135  55.288  1.00  0.00     0.280 HD
HETATM    3  C   UNL     1       8.506  28.331  54.399  1.00  0.00     0.236 C 
HETATM    4  C   UNL     1       7.681  27.062  54.603  1.00  0.00     0.039 C 
HETATM    5  C   UNL     1       6.172  27.306  54.888  1.00  0.00    -0.013 C 
HETATM    6  C   UNL     1       5.403  27.763  53.621  1.00  0.00     0.245 C 
HETATM    7  N   UNL     1       5.267  26.639  52.621  1.00  0.00    -0.065 N 
HETATM    8  H   UNL     1       6.199  26.300  52.347  1.00  0.00     0.280 HD
HETATM    9  C   UNL     1       4.516  25.440  53.194  1.00  0.00     0.244 C 
HETATM   10  C   UNL     1       5.269  24.871  54.410  1.00  0.00     0.045 C 
HETATM   11  C   UNL     1       5.483  26.016  55.435  1.00  0.00     0.022 C 
HETATM   12  C   UNL     1       6.057  28.391  56.005  1.00  0.00     0.039 C 
HETATM   13  C   UNL     1       6.909  29.641  55.795  1.00  0.00     0.236 C 
ENDROOT
BRANCH   7  14
HETATM   14  C   UNL     1       4.599  27.112  51.362  1.00  0.00     0.188 A 
HETATM   15  C   UNL     1       5.496  27.618  50.268  1.00  0.00     0.035 A 
HETATM   16  C   UNL     1       4.813  26.288  50.125  1.00  0.00     0.035 A 
ENDBRANCH   7  14
BRANCH  10  17
HETATM   17  C   UNL     1       6.535  24.069  54.122  1.00  0.00    -0.052 A 
HETATM   18  C   UNL     1       7.006  23.788  52.828  1.00  0.00     0.007 A 
HETATM   19  C   UNL     1       8.179  23.051  52.631  1.00  0.00     0.001 A 
HETATM   20  C   UNL     1       8.891  22.556  53.717  1.00  0.00     0.000 A 
HETATM   21  C   UNL     1       8.417  22.774  55.004  1.00  0.00     0.001 A 
HETATM   22  C   UNL     1       7.247  23.511  55.203  1.00  0.00     0.007 A 
ENDBRANCH  10  17
BRANCH   1  23
HETATM   23  C   UNL     1       9.091  28.866  56.828  1.00  0.00     0.277 C 
BRANCH  23  24
HETATM   24  C   UNL     1       9.430  30.039  57.665  1.00  0.00     0.011 A 
HETATM   25  C   UNL     1       8.697  30.638  58.682  1.00  0.00     0.035 A 
HETATM   26  C   UNL     1       7.396  30.279  59.308  1.00  0.00     0.070 C 
HETATM   27  N   UNL     1       9.447  31.717  59.098  1.00  0.00    -0.278 N 
HETATM   28  C   UNL     1       9.156  32.676  60.141  1.00  0.00     0.179 C 
HETATM   29  N   UNL     1      10.588  31.854  58.402  1.00  0.00    -0.185 NA
HETATM   30  C   UNL     1      10.608  30.813  57.580  1.00  0.00     0.149 A 
ENDBRANCH  23  24
ENDBRANCH   1  23
TORSDOF 4
ENDMDL
MODEL 2
REMARK VINA RESULT:      -8.1      2.980      7.834
REMARK  4 active torsions:
REMARK  status: ('A' for Active; 'I' for Inactive)
REMARK    1  A    between atoms: C_7  and  C_8 
REMARK    2  A    between atoms: C_8  and  N_9 
REMARK    3  A    between atoms: N_15  and  C_17 
REMARK    4  A    between atoms: C_21  and  C_22 
ROOT
HETATM    1  N   UNL     1       5.762  26.084  51.335  1.00  0.00    -0.067 N 
HETATM    2  H   UNL     1       6.078  25.913  50.369  1.00  0.00     0.280 HD
HETATM    3  C   UNL     1       7.006  26.366  52.125  1.00  0.00     0.236 C 
HETATM    4  C   UNL     1       6.692  26.471  53.616  1.00  0.00     0.039 C 
HETATM    5  C   UNL     1       5.941  25.247  54.210  1.00  0.00    -0.013 C 
HETATM    6  C   UNL     1       6.864  24.008  54.355  1.00  0.00     0.245 C 
HETATM    7  N   UNL     1       7.884  24.204  55.452  1.00  0.00    -0.065 N 
HETATM    8  H   UNL     1       8.460  25.033  55.250  1.00  0.00     0.280 HD
HETATM    9  C   UNL     1       7.236  24.443  56.813  1.00  0.00     0.244 C 
HETATM   10  C   UNL     1       6.367  25.714  56.774  1.00  0.00     0.045 C 
HETATM   11  C   UNL     1       5.346  25.575  55.616  1.00  0.00     0.022 C 
HETATM   12  C   UNL     1       4.737  24.911  53.274  1.00  0.00     0.039 C 
HETATM   13  C   UNL     1       5.068  24.835  51.784  1.00  0.00     0.236 C 
ENDROOT
BRANCH   7  14
HETATM   14  C   UNL     1       8.829  23.039  55.528  1.00  0.00     0.188 A 
HETATM   15  C   UNL     1       8.214  21.679  55.705  1.00  0.00     0.035 A 
HETATM   16  C   UNL     1       8.809  22.069  54.382  1.00  0.00     0.035 A 
ENDBRANCH   7  14
BRANCH  10  17
HETATM   17  C   UNL     1       7.104  27.051  56.778  1.00  0.00    -0.052 A 
HETATM   18  C   UNL     1       8.481  27.185  57.024  1.00  0.00     0.007 A 
HETATM   19  C   UNL     1       9.099  28.440  57.007  1.00  0.00     0.001 A 
HETATM   20  C   UNL     1       8.353  29.589  56.772  1.00  0.00     0.000 A 
HETATM   21  C   UNL     1       6.981  29.488  56.578  1.00  0.00     0.001 A 
HETATM   22  C   UNL     1       6.364  28.236  56.593  1.00  0.00     0.007 A 
ENDBRANCH  10  17
BRANCH   1  23
HETATM   23  C   UNL     1       4.826  27.279  51.154  1.00  0.00     0.277 C 
BRANCH  23  24
HETATM   24  C   UNL     1       4.278  27.349  49.780  1.00  0.00     0.011 A 
HETATM   25  C   UNL     1       3.162  28.031  49.310  1.00  0.00     0.035 A 
HETATM   26  C   UNL     1       2.207  28.950  49.984  1.00  0.00     0.070 C 
HETATM   27  N   UNL     1       3.074  27.723  47.969  1.00  0.00    -0.278 N 
HETATM   28  C   UNL     1       2.104  28.175  46.996  1.00  0.00     0.179 C 
HETATM   29  N   UNL     1       4.040  26.881  47.566  1.00  0.00    -0.185 NA
HETATM   30  C   UNL     1       4.799  26.700  48.640  1.00  0.00     0.149 A 
ENDBRANCH  23  24
ENDBRANCH   1  23
TORSDOF 4
ENDMDL
MODEL 3
REMARK VINA RESULT:      -8.0      2.894      7.500
REMARK  4 active torsions:
REMARK  status: ('A' for Active; 'I' for Inactive)
REMARK    1  A    between atoms: C_7  and  C_8 
REMARK    2  A    between atoms: C_8  and  N_9 
REMARK    3  A    between atoms: N_15  and  C_17 
REMARK    4  A    between atoms: C_21  and  C_22 
ROOT
HETATM    1  N   UNL     1       5.778  26.368  51.599  1.00  0.00    -0.067 N 
HETATM    2  H   UNL     1       6.123  26.311  50.630  1.00  0.00     0.280 HD
HETATM    3  C   UNL     1       6.978  26.700  52.437  1.00  0.00     0.236 C 
HETATM    4  C   UNL     1       6.635  26.648  53.924  1.00  0.00     0.039 C 
HETATM    5  C   UNL     1       5.998  25.311  54.399  1.00  0.00    -0.013 C 
HETATM    6  C   UNL     1       7.034  24.159  54.461  1.00  0.00     0.245 C 
HETATM    7  N   UNL     1       8.015  24.357  55.592  1.00  0.00    -0.065 N 
HETATM    8  H   UNL     1       8.511  25.252  55.472  1.00  0.00     0.280 HD
HETATM    9  C   UNL     1       7.328  24.417  56.954  1.00  0.00     0.244 C 
HETATM   10  C   UNL     1       6.341  25.599  57.002  1.00  0.00     0.045 C 
HETATM   11  C   UNL     1       5.354  25.461  55.813  1.00  0.00     0.022 C 
HETATM   12  C   UNL     1       4.845  24.943  53.412  1.00  0.00     0.039 C 
HETATM   13  C   UNL     1       5.202  25.025  51.928  1.00  0.00     0.236 C 
ENDROOT
BRANCH   7  14
HETATM   14  C   UNL     1       9.067  23.285  55.592  1.00  0.00     0.188 A 
HETATM   15  C   UNL     1       8.619  21.896  55.948  1.00  0.00     0.035 A 
HETATM   16  C   UNL     1       8.967  22.232  54.526  1.00  0.00     0.035 A 
ENDBRANCH   7  14
BRANCH  10  17
HETATM   17  C   UNL     1       6.945  26.995  57.131  1.00  0.00    -0.052 A 
HETATM   18  C   UNL     1       6.183  28.172  57.219  1.00  0.00     0.007 A 
HETATM   19  C   UNL     1       6.797  29.423  57.343  1.00  0.00     0.001 A 
HETATM   20  C   UNL     1       8.183  29.529  57.353  1.00  0.00     0.000 A 
HETATM   21  C   UNL     1       8.959  28.385  57.214  1.00  0.00     0.001 A 
HETATM   22  C   UNL     1       8.346  27.136  57.092  1.00  0.00     0.007 A 
ENDBRANCH  10  17
BRANCH   1  23
HETATM   23  C   UNL     1       4.734  27.480  51.498  1.00  0.00     0.277 C 
BRANCH  23  24
HETATM   24  C   UNL     1       4.518  27.909  50.097  1.00  0.00     0.011 A 
HETATM   25  C   UNL     1       4.896  29.090  49.468  1.00  0.00     0.035 A 
HETATM   26  C   UNL     1       5.682  30.258  49.948  1.00  0.00     0.070 C 
HETATM   27  N   UNL     1       4.412  29.000  48.182  1.00  0.00    -0.278 N 
HETATM   28  C   UNL     1       4.533  29.949  47.098  1.00  0.00     0.179 C 
HETATM   29  N   UNL     1       3.738  27.859  47.961  1.00  0.00    -0.185 NA
HETATM   30  C   UNL     1       3.849  27.176  49.093  1.00  0.00     0.149 A 
ENDBRANCH  23  24
ENDBRANCH   1  23
TORSDOF 4
ENDMDL
MODEL 4
REMARK VINA RESULT:      -8.0      5.764     12.655
REMARK  4 active torsions:
REMARK  status: ('A' for Active; 'I' for Inactive)
REMARK    1  A    between atoms: C_7  and  C_8 
REMARK    2  A    between atoms: C_8  and  N_9 
REMARK    3  A    between atoms: N_15  and  C_17 
REMARK    4  A    between atoms: C_21  and  C_22 
ROOT
HETATM    1  N   UNL     1       6.708  32.116  61.690  1.00  0.00    -0.067 N 
HETATM    2  H   UNL     1       7.445  31.396  61.721  1.00  0.00     0.280 HD
HETATM    3  C   UNL     1       7.214  33.250  62.532  1.00  0.00     0.236 C 
HETATM    4  C   UNL     1       6.138  34.320  62.708  1.00  0.00     0.039 C 
HETATM    5  C   UNL     1       4.784  33.796  63.264  1.00  0.00    -0.013 C 
HETATM    6  C   UNL     1       4.868  33.443  64.772  1.00  0.00     0.245 C 
HETATM    7  N   UNL     1       5.000  34.684  65.624  1.00  0.00    -0.065 N 
HETATM    8  H   UNL     1       5.843  35.208  65.351  1.00  0.00     0.280 HD
HETATM    9  C   UNL     1       3.819  35.635  65.450  1.00  0.00     0.244 C 
HETATM   10  C   UNL     1       3.721  36.103  63.986  1.00  0.00     0.045 C 
HETATM   11  C   UNL     1       3.648  34.850  63.075  1.00  0.00     0.022 C 
HETATM   12  C   UNL     1       4.375  32.534  62.441  1.00  0.00     0.039 C 
HETATM   13  C   UNL     1       5.473  31.487  62.256  1.00  0.00     0.236 C 
ENDROOT
BRANCH   7  14
HETATM   14  C   UNL     1       5.169  34.331  67.074  1.00  0.00     0.188 A 
HETATM   15  C   UNL     1       6.562  34.404  67.631  1.00  0.00     0.035 A 
HETATM   16  C   UNL     1       5.546  35.444  68.008  1.00  0.00     0.035 A 
ENDBRANCH   7  14
BRANCH  10  17
HETATM   17  C   UNL     1       4.749  37.132  63.523  1.00  0.00    -0.052 A 
HETATM   18  C   UNL     1       5.505  37.932  64.397  1.00  0.00     0.007 A 
HETATM   19  C   UNL     1       6.436  38.854  63.908  1.00  0.00     0.001 A 
HETATM   20  C   UNL     1       6.614  39.018  62.540  1.00  0.00     0.000 A 
HETATM   21  C   UNL     1       5.841  38.277  61.655  1.00  0.00     0.001 A 
HETATM   22  C   UNL     1       4.912  37.355  62.141  1.00  0.00     0.007 A 
ENDBRANCH  10  17
BRANCH   1  23
HETATM   23  C   UNL     1       6.620  32.412  60.193  1.00  0.00     0.277 C 
BRANCH  23  24
HETATM   24  C   UNL     1       7.706  31.751  59.434  1.00  0.00     0.011 A 
HETATM   25  C   UNL     1       7.626  30.774  58.449  1.00  0.00     0.035 A 
HETATM   26  C   UNL     1       6.460  30.128  57.789  1.00  0.00     0.070 C 
HETATM   27  N   UNL     1       8.928  30.478  58.109  1.00  0.00    -0.278 N 
HETATM   28  C   UNL     1       9.417  29.538  57.125  1.00  0.00     0.179 C 
HETATM   29  N   UNL     1       9.822  31.181  58.823  1.00  0.00    -0.185 NA
HETATM   30  C   UNL     1       9.091  31.989  59.579  1.00  0.00     0.149 A 
ENDBRANCH  23  24
ENDBRANCH   1  23
TORSDOF 4
ENDMDL
MODEL 5
REMARK VINA RESULT:      -7.6      1.460      2.056
REMARK  4 active torsions:
REMARK  status: ('A' for Active; 'I' for Inactive)
REMARK    1  A    between atoms: C_7  and  C_8 
REMARK    2  A    between atoms: C_8  and  N_9 
REMARK    3  A    between atoms: N_15  and  C_17 
REMARK    4  A    between atoms: C_21  and  C_22 
ROOT
HETATM    1  N   UNL     1       7.716  29.697  56.620  1.00  0.00    -0.067 N 
HETATM    2  H   UNL     1       8.256  30.564  56.486  1.00  0.00     0.280 HD
HETATM    3  C   UNL     1       8.344  28.684  55.709  1.00  0.00     0.236 C 
HETATM    4  C   UNL     1       7.528  27.393  55.684  1.00  0.00     0.039 C 
HETATM    5  C   UNL     1       6.026  27.580  55.329  1.00  0.00    -0.013 C 
HETATM    6  C   UNL     1       5.815  27.899  53.826  1.00  0.00     0.245 C 
HETATM    7  N   UNL     1       6.107  26.697  52.959  1.00  0.00    -0.065 N 
HETATM    8  H   UNL     1       7.077  26.386  53.106  1.00  0.00     0.280 HD
HETATM    9  C   UNL     1       5.211  25.507  53.295  1.00  0.00     0.244 C 
HETATM   10  C   UNL     1       5.428  25.072  54.756  1.00  0.00     0.045 C 
HETATM   11  C   UNL     1       5.198  26.302  55.673  1.00  0.00     0.022 C 
HETATM   12  C   UNL     1       5.458  28.739  56.207  1.00  0.00     0.039 C 
HETATM   13  C   UNL     1       6.302  30.013  56.237  1.00  0.00     0.236 C 
ENDROOT
BRANCH   7  14
HETATM   14  C   UNL     1       5.986  27.037  51.501  1.00  0.00     0.188 A 
HETATM   15  C   UNL     1       5.115  26.142  50.666  1.00  0.00     0.035 A 
HETATM   16  C   UNL     1       4.649  27.525  51.022  1.00  0.00     0.035 A 
ENDBRANCH   7  14
BRANCH  10  17
HETATM   17  C   UNL     1       6.719  24.317  55.064  1.00  0.00    -0.052 A 
HETATM   18  C   UNL     1       7.272  24.206  56.352  1.00  0.00     0.007 A 
HETATM   19  C   UNL     1       8.456  23.494  56.569  1.00  0.00     0.001 A 
HETATM   20  C   UNL     1       9.128  22.902  55.506  1.00  0.00     0.000 A 
HETATM   21  C   UNL     1       8.630  23.042  54.217  1.00  0.00     0.001 A 
HETATM   22  C   UNL     1       7.446  23.751  53.999  1.00  0.00     0.007 A 
ENDBRANCH  10  17
BRANCH   1  23
HETATM   23  C   UNL     1       7.907  29.431  58.112  1.00  0.00     0.277 C 
BRANCH  23  24
HETATM   24  C   UNL     1       7.524  30.602  58.935  1.00  0.00     0.011 A 
HETATM   25  C   UNL     1       8.046  31.036  60.148  1.00  0.00     0.035 A 
HETATM   26  C   UNL     1       9.177  30.535  60.975  1.00  0.00     0.070 C 
HETATM   27  N   UNL     1       7.304  32.142  60.500  1.00  0.00    -0.278 N 
HETATM   28  C   UNL     1       7.433  32.988  61.665  1.00  0.00     0.179 C 
HETATM   29  N   UNL     1       6.338  32.423  59.609  1.00  0.00    -0.185 NA
HETATM   30  C   UNL     1       6.506  31.533  58.639  1.00  0.00     0.149 A 
ENDBRANCH  23  24
ENDBRANCH   1  23
TORSDOF 4
ENDMDL
MODEL 6
REMARK VINA RESULT:      -7.5      3.895      6.705
REMARK  4 active torsions:
REMARK  status: ('A' for Active; 'I' for Inactive)
REMARK    1  A    between atoms: C_7  and  C_8 
REMARK    2  A    between atoms: C_8  and  N_9 
REMARK    3  A    between atoms: N_15  and  C_17 
REMARK    4  A    between atoms: C_21  and  C_22 
ROOT
HETATM    1  N   UNL     1       5.743  27.325  54.188  1.00  0.00    -0.067 N 
HETATM    2  H   UNL     1       6.550  27.345  54.829  1.00  0.00     0.280 HD
HETATM    3  C   UNL     1       6.274  27.766  52.855  1.00  0.00     0.236 C 
HETATM    4  C   UNL     1       5.139  27.943  51.849  1.00  0.00     0.039 C 
HETATM    5  C   UNL     1       3.998  28.891  52.315  1.00  0.00    -0.013 C 
HETATM    6  C   UNL     1       4.429  30.381  52.294  1.00  0.00     0.245 C 
HETATM    7  N   UNL     1       4.585  30.891  50.880  1.00  0.00    -0.065 N 
HETATM    8  H   UNL     1       5.288  30.328  50.381  1.00  0.00     0.280 HD
HETATM    9  C   UNL     1       3.291  30.787  50.078  1.00  0.00     0.244 C 
HETATM   10  C   UNL     1       2.842  29.317  49.979  1.00  0.00     0.045 C 
HETATM   11  C   UNL     1       2.731  28.739  51.414  1.00  0.00     0.022 C 
HETATM   12  C   UNL     1       3.579  28.475  53.761  1.00  0.00     0.039 C 
HETATM   13  C   UNL     1       4.731  28.279  54.745  1.00  0.00     0.236 C 
ENDROOT
BRANCH   7  14
HETATM   14  C   UNL     1       5.087  32.306  50.867  1.00  0.00     0.188 A 
HETATM   15  C   UNL     1       6.117  32.651  49.829  1.00  0.00     0.035 A 
HETATM   16  C   UNL     1       4.709  33.154  49.687  1.00  0.00     0.035 A 
ENDBRANCH   7  14
BRANCH  10  17
HETATM   17  C   UNL     1       3.626  28.421  49.023  1.00  0.00    -0.052 A 
HETATM   18  C   UNL     1       4.705  28.867  48.241  1.00  0.00     0.007 A 
HETATM   19  C   UNL     1       5.387  27.993  47.387  1.00  0.00     0.001 A 
HETATM   20  C   UNL     1       4.990  26.666  47.273  1.00  0.00     0.000 A 
HETATM   21  C   UNL     1       3.893  26.215  47.996  1.00  0.00     0.001 A 
HETATM   22  C   UNL     1       3.212  27.085  48.850  1.00  0.00     0.007 A 
ENDBRANCH  10  17
BRANCH   1  23
HETATM   23  C   UNL     1       5.316  25.860  54.261  1.00  0.00     0.277 C 
BRANCH  23  24
HETATM   24  C   UNL     1       6.363  25.009  54.873  1.00  0.00     0.011 A 
HETATM   25  C   UNL     1       7.307  24.194  54.259  1.00  0.00     0.035 A 
HETATM   26  C   UNL     1       7.627  23.956  52.826  1.00  0.00     0.070 C 
HETATM   27  N   UNL     1       8.005  23.593  55.284  1.00  0.00    -0.278 N 
HETATM   28  C   UNL     1       9.106  22.659  55.207  1.00  0.00     0.179 C 
HETATM   29  N   UNL     1       7.555  23.954  56.498  1.00  0.00    -0.185 NA
HETATM   30  C   UNL     1       6.607  24.849  56.254  1.00  0.00     0.149 A 
ENDBRANCH  23  24
ENDBRANCH   1  23
TORSDOF 4
ENDMDL
MODEL 7
REMARK VINA RESULT:      -7.3      3.318      6.914
REMARK  4 active torsions:
REMARK  status: ('A' for Active; 'I' for Inactive)
REMARK    1  A    between atoms: C_7  and  C_8 
REMARK    2  A    between atoms: C_8  and  N_9 
REMARK    3  A    between atoms: N_15  and  C_17 
REMARK    4  A    between atoms: C_21  and  C_22 
ROOT
HETATM    1  N   UNL     1       7.494  26.673  54.987  1.00  0.00    -0.067 N 
HETATM    2  H   UNL     1       8.343  26.605  55.568  1.00  0.00     0.280 HD
HETATM    3  C   UNL     1       7.607  27.978  54.256  1.00  0.00     0.236 C 
HETATM    4  C   UNL     1       6.325  28.282  53.484  1.00  0.00     0.039 C 
HETATM    5  C   UNL     1       5.027  28.252  54.339  1.00  0.00    -0.013 C 
HETATM    6  C   UNL     1       4.913  29.485  55.274  1.00  0.00     0.245 C 
HETATM    7  N   UNL     1       4.642  30.749  54.492  1.00  0.00    -0.065 N 
HETATM    8  H   UNL     1       5.398  30.909  53.812  1.00  0.00     0.280 HD
HETATM    9  C   UNL     1       3.344  30.671  53.693  1.00  0.00     0.244 C 
HETATM   10  C   UNL     1       3.413  29.518  52.674  1.00  0.00     0.045 C 
HETATM   11  C   UNL     1       3.754  28.210  53.436  1.00  0.00     0.022 C 
HETATM   12  C   UNL     1       5.029  26.939  55.183  1.00  0.00     0.039 C 
HETATM   13  C   UNL     1       6.329  26.641  55.928  1.00  0.00     0.236 C 
ENDROOT
BRANCH   7  14
HETATM   14  C   UNL     1       4.621  31.950  55.393  1.00  0.00     0.188 A 
HETATM   15  C   UNL     1       5.011  33.265  54.780  1.00  0.00     0.035 A 
HETATM   16  C   UNL     1       3.574  32.990  55.120  1.00  0.00     0.035 A 
ENDBRANCH   7  14
BRANCH  10  17
HETATM   17  C   UNL     1       4.280  29.743  51.438  1.00  0.00    -0.052 A 
HETATM   18  C   UNL     1       4.635  28.726  50.535  1.00  0.00     0.007 A 
HETATM   19  C   UNL     1       5.428  28.999  49.415  1.00  0.00     0.001 A 
HETATM   20  C   UNL     1       5.907  30.284  49.188  1.00  0.00     0.000 A 
HETATM   21  C   UNL     1       5.614  31.295  50.094  1.00  0.00     0.001 A 
HETATM   22  C   UNL     1       4.820  31.024  51.211  1.00  0.00     0.007 A 
ENDBRANCH  10  17
BRANCH   1  23
HETATM   23  C   UNL     1       7.612  25.428  54.109  1.00  0.00     0.277 C 
BRANCH  23  24
HETATM   24  C   UNL     1       8.002  24.233  54.892  1.00  0.00     0.011 A 
HETATM   25  C   UNL     1       8.064  22.902  54.499  1.00  0.00     0.035 A 
HETATM   26  C   UNL     1       7.837  22.247  53.183  1.00  0.00     0.070 C 
HETATM   27  N   UNL     1       8.439  22.197  55.622  1.00  0.00    -0.278 N 
HETATM   28  C   UNL     1       8.664  20.776  55.769  1.00  0.00     0.179 C 
HETATM   29  N   UNL     1       8.596  22.985  56.699  1.00  0.00    -0.185 NA
HETATM   30  C   UNL     1       8.391  24.216  56.250  1.00  0.00     0.149 A 
ENDBRANCH  23  24
ENDBRANCH   1  23
TORSDOF 4
ENDMDL
MODEL 8
REMARK VINA RESULT:      -7.2      5.937     12.722
REMARK  4 active torsions:
REMARK  status: ('A' for Active; 'I' for Inactive)
REMARK    1  A    between atoms: C_7  and  C_8 
REMARK    2  A    between atoms: C_8  and  N_9 
REMARK    3  A    between atoms: N_15  and  C_17 
REMARK    4  A    between atoms: C_21  and  C_22 
ROOT
HETATM    1  N   UNL     1       5.610  32.348  60.744  1.00  0.00    -0.067 N 
HETATM    2  H   UNL     1       6.222  31.528  60.616  1.00  0.00     0.280 HD
HETATM    3  C   UNL     1       6.385  33.299  61.609  1.00  0.00     0.236 C 
HETATM    4  C   UNL     1       5.521  34.491  62.016  1.00  0.00     0.039 C 
HETATM    5  C   UNL     1       4.175  34.116  62.698  1.00  0.00    -0.013 C 
HETATM    6  C   UNL     1       4.376  33.597  64.145  1.00  0.00     0.245 C 
HETATM    7  N   UNL     1       4.802  34.707  65.077  1.00  0.00    -0.065 N 
HETATM    8  H   UNL     1       5.681  35.127  64.743  1.00  0.00     0.280 HD
HETATM    9  C   UNL     1       3.776  35.836  65.144  1.00  0.00     0.244 C 
HETATM   10  C   UNL     1       3.585  36.465  63.751  1.00  0.00     0.045 C 
HETATM   11  C   UNL     1       3.207  35.340  62.752  1.00  0.00     0.022 C 
HETATM   12  C   UNL     1       3.476  33.023  61.829  1.00  0.00     0.039 C 
HETATM   13  C   UNL     1       4.364  31.852  61.411  1.00  0.00     0.236 C 
ENDROOT
BRANCH   7  14
HETATM   14  C   UNL     1       5.080  34.181  66.456  1.00  0.00     0.188 A 
HETATM   15  C   UNL     1       6.488  34.317  66.962  1.00  0.00     0.035 A 
HETATM   16  C   UNL     1       5.402  35.191  67.519  1.00  0.00     0.035 A 
ENDBRANCH   7  14
BRANCH  10  17
HETATM   17  C   UNL     1       4.703  37.375  63.248  1.00  0.00    -0.052 A 
HETATM   18  C   UNL     1       5.658  37.976  64.084  1.00  0.00     0.007 A 
HETATM   19  C   UNL     1       6.663  38.797  63.560  1.00  0.00     0.001 A 
HETATM   20  C   UNL     1       6.719  39.057  62.195  1.00  0.00     0.000 A 
HETATM   21  C   UNL     1       5.754  38.517  61.355  1.00  0.00     0.001 A 
HETATM   22  C   UNL     1       4.751  37.697  61.877  1.00  0.00     0.007 A 
ENDBRANCH  10  17
BRANCH   1  23
HETATM   23  C   UNL     1       5.397  32.812  59.304  1.00  0.00     0.277 C 
BRANCH  23  24
HETATM   24  C   UNL     1       4.985  31.697  58.420  1.00  0.00     0.011 A 
HETATM   25  C   UNL     1       5.740  30.644  57.917  1.00  0.00     0.035 A 
HETATM   26  C   UNL     1       7.156  30.247  58.142  1.00  0.00     0.070 C 
HETATM   27  N   UNL     1       4.885  29.920  57.115  1.00  0.00    -0.278 N 
HETATM   28  C   UNL     1       5.152  28.717  56.359  1.00  0.00     0.179 C 
HETATM   29  N   UNL     1       3.653  30.452  57.058  1.00  0.00    -0.185 NA
HETATM   30  C   UNL     1       3.694  31.487  57.887  1.00  0.00     0.149 A 
ENDBRANCH  23  24
ENDBRANCH   1  23
TORSDOF 4
ENDMDL
MODEL 9
REMARK VINA RESULT:      -7.1      8.205     12.274
REMARK  4 active torsions:
REMARK  status: ('A' for Active; 'I' for Inactive)
REMARK    1  A    between atoms: C_7  and  C_8 
REMARK    2  A    between atoms: C_8  and  N_9 
REMARK    3  A    between atoms: N_15  and  C_17 
REMARK    4  A    between atoms: C_21  and  C_22 
ROOT
HETATM    1  N   UNL     1       4.161  33.005  58.870  1.00  0.00    -0.067 N 
HETATM    2  H   UNL     1       4.671  32.345  58.264  1.00  0.00     0.280 HD
HETATM    3  C   UNL     1       5.217  33.782  59.600  1.00  0.00     0.236 C 
HETATM    4  C   UNL     1       4.592  34.685  60.662  1.00  0.00     0.039 C 
HETATM    5  C   UNL     1       3.663  33.954  61.672  1.00  0.00    -0.013 C 
HETATM    6  C   UNL     1       4.463  33.092  62.684  1.00  0.00     0.245 C 
HETATM    7  N   UNL     1       5.229  33.954  63.660  1.00  0.00    -0.065 N 
HETATM    8  H   UNL     1       5.880  34.567  63.150  1.00  0.00     0.280 HD
HETATM    9  C   UNL     1       4.314  34.866  64.473  1.00  0.00     0.244 C 
HETATM   10  C   UNL     1       3.546  35.819  63.539  1.00  0.00     0.045 C 
HETATM   11  C   UNL     1       2.795  34.969  62.480  1.00  0.00     0.022 C 
HETATM   12  C   UNL     1       2.676  33.053  60.864  1.00  0.00     0.039 C 
HETATM   13  C   UNL     1       3.319  32.176  59.790  1.00  0.00     0.236 C 
ENDROOT
BRANCH   7  14
HETATM   14  C   UNL     1       6.069  33.115  64.580  1.00  0.00     0.188 A 
HETATM   15  C   UNL     1       7.555  33.140  64.354  1.00  0.00     0.035 A 
HETATM   16  C   UNL     1       6.963  33.843  65.542  1.00  0.00     0.035 A 
ENDBRANCH   7  14
BRANCH  10  17
HETATM   17  C   UNL     1       4.336  36.978  62.937  1.00  0.00    -0.052 A 
HETATM   18  C   UNL     1       5.685  37.241  63.230  1.00  0.00     0.007 A 
HETATM   19  C   UNL     1       6.355  38.318  62.640  1.00  0.00     0.001 A 
HETATM   20  C   UNL     1       5.688  39.171  61.769  1.00  0.00     0.000 A 
HETATM   21  C   UNL     1       4.340  38.964  61.505  1.00  0.00     0.001 A 
HETATM   22  C   UNL     1       3.670  37.888  62.092  1.00  0.00     0.007 A 
ENDBRANCH  10  17
BRANCH   1  23
HETATM   23  C   UNL     1       3.354  33.810  57.852  1.00  0.00     0.277 C 
BRANCH  23  24
HETATM   24  C   UNL     1       4.226  34.627  56.977  1.00  0.00     0.011 A 
HETATM   25  C   UNL     1       4.516  35.985  57.041  1.00  0.00     0.035 A 
HETATM   26  C   UNL     1       4.122  37.036  58.017  1.00  0.00     0.070 C 
HETATM   27  N   UNL     1       5.341  36.242  55.968  1.00  0.00    -0.278 N 
HETATM   28  C   UNL     1       5.948  37.493  55.569  1.00  0.00     0.179 C 
HETATM   29  N   UNL     1       5.573  35.151  55.220  1.00  0.00    -0.185 NA
HETATM   30  C   UNL     1       4.952  34.167  55.857  1.00  0.00     0.149 A 
ENDBRANCH  23  24
ENDBRANCH   1  23
TORSDOF 4
ENDMDL
MODEL 10
REMARK VINA RESULT:      -7.1      8.995     12.847
REMARK  4 active torsions:
REMARK  status: ('A' for Active; 'I' for Inactive)
REMARK    1  A    between atoms: C_7  and  C_8 
REMARK    2  A    between atoms: C_8  and  N_9 
REMARK    3  A    between atoms: N_15  and  C_17 
REMARK    4  A    between atoms: C_21  and  C_22 
ROOT
HETATM    1  N   UNL     1       5.293  37.922  61.349  1.00  0.00    -0.067 N 
HETATM    2  H   UNL     1       5.881  38.530  60.760  1.00  0.00     0.280 HD
HETATM    3  C   UNL     1       6.249  37.128  62.191  1.00  0.00     0.236 C 
HETATM    4  C   UNL     1       5.509  36.061  62.995  1.00  0.00     0.039 C 
HETATM    5  C   UNL     1       4.618  35.109  62.147  1.00  0.00    -0.013 C 
HETATM    6  C   UNL     1       5.459  34.098  61.325  1.00  0.00     0.245 C 
HETATM    7  N   UNL     1       6.110  33.067  62.216  1.00  0.00    -0.065 N 
HETATM    8  H   UNL     1       6.719  33.532  62.903  1.00  0.00     0.280 HD
HETATM    9  C   UNL     1       5.089  32.258  63.012  1.00  0.00     0.244 C 
HETATM   10  C   UNL     1       4.269  33.188  63.925  1.00  0.00     0.045 C 
HETATM   11  C   UNL     1       3.634  34.301  63.050  1.00  0.00     0.022 C 
HETATM   12  C   UNL     1       3.745  35.982  61.192  1.00  0.00     0.039 C 
HETATM   13  C   UNL     1       4.500  37.060  60.415  1.00  0.00     0.236 C 
ENDROOT
BRANCH   7  14
HETATM   14  C   UNL     1       6.992  32.145  61.423  1.00  0.00     0.188 A 
HETATM   15  C   UNL     1       8.475  32.316  61.589  1.00  0.00     0.035 A 
HETATM   16  C   UNL     1       7.784  31.128  62.193  1.00  0.00     0.035 A 
ENDBRANCH   7  14
BRANCH  10  17
HETATM   17  C   UNL     1       4.970  33.722  65.172  1.00  0.00    -0.052 A 
HETATM   18  C   UNL     1       6.349  33.597  65.408  1.00  0.00     0.007 A 
HETATM   19  C   UNL     1       6.933  34.113  66.570  1.00  0.00     0.001 A 
HETATM   20  C   UNL     1       6.151  34.740  67.533  1.00  0.00     0.000 A 
HETATM   21  C   UNL     1       4.777  34.829  67.348  1.00  0.00     0.001 A 
HETATM   22  C   UNL     1       4.193  34.315  66.187  1.00  0.00     0.007 A 
ENDBRANCH  10  17
BRANCH   1  23
HETATM   23  C   UNL     1       4.451  38.942  62.115  1.00  0.00     0.277 C 
BRANCH  23  24
HETATM   24  C   UNL     1       5.239  40.137  62.492  1.00  0.00     0.011 A 
HETATM   25  C   UNL     1       5.900  40.418  63.682  1.00  0.00     0.035 A 
HETATM   26  C   UNL     1       6.097  39.614  64.918  1.00  0.00     0.070 C 
HETATM   27  N   UNL     1       6.434  41.679  63.524  1.00  0.00    -0.278 N 
HETATM   28  C   UNL     1       7.230  42.449  64.454  1.00  0.00     0.179 C 
HETATM   29  N   UNL     1       6.140  42.220  62.331  1.00  0.00    -0.185 NA
HETATM   30  C   UNL     1       5.471  41.273  61.686  1.00  0.00     0.149 A 
ENDBRANCH  23  24
ENDBRANCH   1  23
TORSDOF 4
ENDMDL
