MODEL 1
REMARK VINA RESULT:     -10.4      0.000      0.000
REMARK  7 active torsions:
REMARK  status: ('A' for Active; 'I' for Inactive)
REMARK    1  A    between atoms: C_4  and  N_5 
REMARK    2  A    between atoms: C_6  and  S_7 
REMARK    3  A    between atoms: S_7  and  C_8 
REMARK    4  A    between atoms: C_8  and  C_9 
REMARK       I    between atoms: C_9  and  N_10 
REMARK    5  A    between atoms: C_12  and  C_13 
REMARK    6  A    between atoms: C_13  and  N_14 
REMARK       I    between atoms: N_14  and  C_15 
REMARK       I    between atoms: C_15  and  N_16 
REMARK    7  A    between atoms: N_16  and  C_17 
ROOT
HETATM    1  C   UNL     1       7.922  25.563  56.421  1.00  0.00     0.229 C 
HETATM    2  N   UNL     1       7.785  24.655  55.359  1.00  0.00    -0.351 N 
HETATM    3  C   UNL     1       6.602  24.599  54.506  1.00  0.00     0.132 C 
HETATM    4  C   UNL     1       6.819  23.910  53.153  1.00  0.00     0.021 C 
HETATM    5  C   UNL     1       7.569  22.583  53.322  1.00  0.00     0.009 C 
HETATM    6  C   UNL     1       8.829  22.747  54.158  1.00  0.00     0.020 C 
HETATM    7  C   UNL     1       8.518  23.396  55.501  1.00  0.00     0.126 C 
HETATM    8  O   UNL     1       8.773  25.373  57.301  1.00  0.00    -0.273 OA
ENDROOT
BRANCH   1   9
HETATM    9  C   UNL     1       7.186  26.897  56.401  1.00  0.00     0.185 C 
BRANCH   9  10
HETATM   10  S   UNL     1       7.234  27.955  57.861  1.00  0.00    -0.082 SA
BRANCH  10  11
HETATM   11  C   UNL     1       8.633  28.950  57.639  1.00  0.00     0.173 A 
HETATM   12  N   UNL     1       8.782  30.223  58.185  1.00  0.00    -0.299 N 
HETATM   13  C   UNL     1       9.970  30.699  57.660  1.00  0.00     0.118 A 
HETATM   14  C   UNL     1      10.459  29.710  56.844  1.00  0.00     0.137 A 
HETATM   15  N   UNL     1       9.618  28.637  56.830  1.00  0.00    -0.235 NA
BRANCH  12  16
HETATM   16  C   UNL     1       7.983  30.908  59.151  1.00  0.00     0.047 A 
HETATM   17  C   UNL     1       8.449  30.984  60.478  1.00  0.00     0.037 A 
HETATM   18  C   UNL     1       7.747  31.692  61.460  1.00  0.00    -0.060 A 
HETATM   19  C   UNL     1       8.245  31.734  62.877  1.00  0.00     0.048 C 
HETATM   20  C   UNL     1       6.554  32.323  61.113  1.00  0.00     0.007 A 
HETATM   21  C   UNL     1       6.079  32.255  59.801  1.00  0.00     0.009 A 
HETATM   22  C   UNL     1       6.770  31.539  58.806  1.00  0.00    -0.035 A 
HETATM   23  C   UNL     1       6.128  31.464  57.446  1.00  0.00     0.050 C 
ENDBRANCH  12  16
ENDBRANCH  10  11
ENDBRANCH   9  10
ENDBRANCH   1   9
BRANCH   4  24
HETATM   24  C   UNL     1       7.507  24.887  52.181  1.00  0.00     0.130 C 
BRANCH  24  25
HETATM   25  N   UNL     1       6.586  25.626  51.336  1.00  0.00    -0.342 N 
HETATM   26  C   UNL     1       6.155  26.873  51.679  1.00  0.00     0.320 C 
HETATM   27  N   UNL     1       5.377  27.537  50.779  1.00  0.00    -0.309 N 
HETATM   28  O   UNL     1       6.479  27.436  52.723  1.00  0.00    -0.247 OA
HETATM   29  H   UNL     1       5.279  28.510  51.044  1.00  0.00     0.170 HD
HETATM   30  H   UNL     1       6.749  25.531  50.345  1.00  0.00     0.164 HD
BRANCH  27  31
HETATM   31  C   UNL     1       4.705  27.131  49.612  1.00  0.00     0.039 A 
HETATM   32  C   UNL     1       4.053  25.906  49.460  1.00  0.00     0.071 A 
HETATM   33  C   UNL     1       3.434  25.597  48.251  1.00  0.00     0.118 A 
HETATM   34  F   UNL     1       2.822  24.414  48.113  1.00  0.00    -0.206 F 
HETATM   35  C   UNL     1       3.431  26.493  47.188  1.00  0.00     0.042 A 
HETATM   36  C   UNL     1       4.046  27.731  47.343  1.00  0.00     0.005 A 
HETATM   37  C   UNL     1       4.671  28.050  48.553  1.00  0.00     0.030 A 
ENDBRANCH  27  31
ENDBRANCH  24  25
ENDBRANCH   4  24
TORSDOF 7
ENDMDL
MODEL 2
REMARK VINA RESULT:     -10.0      1.384      2.052
REMARK  7 active torsions:
REMARK  status: ('A' for Active; 'I' for Inactive)
REMARK    1  A    between atoms: C_4  and  N_5 
REMARK    2  A    between atoms: C_6  and  S_7 
REMARK    3  A    between atoms: S_7  and  C_8 
REMARK    4  A    between atoms: C_8  and  C_9 
REMARK       I    between atoms: C_9  and  N_10 
REMARK    5  A    between atoms: C_12  and  C_13 
REMARK    6  A    between atoms: C_13  and  N_14 
REMARK       I    between atoms: N_14  and  C_15 
REMARK       I    between atoms: C_15  and  N_16 
REMARK    7  A    between atoms: N_16  and  C_17 
ROOT
HETATM    1  C   UNL     1       7.677  26.845  56.273  1.00  0.00     0.229 C 
HETATM    2  N   UNL     1       7.298  25.906  55.301  1.00  0.00    -0.351 N 
HETATM    3  C   UNL     1       6.025  25.963  54.590  1.00  0.00     0.132 C 
HETATM    4  C   UNL     1       5.989  25.176  53.275  1.00  0.00     0.021 C 
HETATM    5  C   UNL     1       6.577  23.770  53.455  1.00  0.00     0.009 C 
HETATM    6  C   UNL     1       7.938  23.808  54.133  1.00  0.00     0.020 C 
HETATM    7  C   UNL     1       7.875  24.568  55.452  1.00  0.00     0.126 C 
HETATM    8  O   UNL     1       8.594  26.592  57.065  1.00  0.00    -0.273 OA
ENDROOT
BRANCH   1   9
HETATM    9  C   UNL     1       7.120  28.264  56.238  1.00  0.00     0.185 C 
BRANCH   9  10
HETATM   10  S   UNL     1       6.975  29.194  57.777  1.00  0.00    -0.082 SA
BRANCH  10  11
HETATM   11  C   UNL     1       8.481  30.034  57.930  1.00  0.00     0.173 A 
HETATM   12  N   UNL     1       8.713  31.063  58.840  1.00  0.00    -0.299 N 
HETATM   13  C   UNL     1       9.982  31.524  58.539  1.00  0.00     0.118 A 
HETATM   14  C   UNL     1      10.432  30.767  57.486  1.00  0.00     0.137 A 
HETATM   15  N   UNL     1       9.491  29.855  57.111  1.00  0.00    -0.235 NA
BRANCH  12  16
HETATM   16  C   UNL     1       7.912  31.525  59.929  1.00  0.00     0.047 A 
HETATM   17  C   UNL     1       6.786  32.321  59.646  1.00  0.00     0.037 A 
HETATM   18  C   UNL     1       5.924  32.756  60.660  1.00  0.00    -0.060 A 
HETATM   19  C   UNL     1       4.747  33.632  60.341  1.00  0.00     0.048 C 
HETATM   20  C   UNL     1       6.200  32.398  61.978  1.00  0.00     0.007 A 
HETATM   21  C   UNL     1       7.314  31.609  62.274  1.00  0.00     0.009 A 
HETATM   22  C   UNL     1       8.195  31.173  61.266  1.00  0.00    -0.035 A 
HETATM   23  C   UNL     1       9.406  30.396  61.704  1.00  0.00     0.050 C 
ENDBRANCH  12  16
ENDBRANCH  10  11
ENDBRANCH   9  10
ENDBRANCH   1   9
BRANCH   4  24
HETATM   24  C   UNL     1       6.677  25.992  52.165  1.00  0.00     0.130 C 
BRANCH  24  25
HETATM   25  N   UNL     1       5.762  26.523  51.170  1.00  0.00    -0.342 N 
HETATM   26  C   UNL     1       5.479  27.855  51.106  1.00  0.00     0.320 C 
HETATM   27  N   UNL     1       4.695  28.280  50.076  1.00  0.00    -0.309 N 
HETATM   28  O   UNL     1       5.939  28.681  51.891  1.00  0.00    -0.247 OA
HETATM   29  H   UNL     1       4.710  29.292  50.012  1.00  0.00     0.170 HD
HETATM   30  H   UNL     1       5.834  26.097  50.257  1.00  0.00     0.164 HD
BRANCH  27  31
HETATM   31  C   UNL     1       3.894  27.602  49.139  1.00  0.00     0.039 A 
HETATM   32  C   UNL     1       2.516  27.777  49.003  1.00  0.00     0.071 A 
HETATM   33  C   UNL     1       1.815  27.038  48.053  1.00  0.00     0.118 A 
HETATM   34  F   UNL     1       0.491  27.205  47.941  1.00  0.00    -0.206 F 
HETATM   35  C   UNL     1       2.461  26.137  47.215  1.00  0.00     0.042 A 
HETATM   36  C   UNL     1       3.839  25.984  47.316  1.00  0.00     0.005 A 
HETATM   37  C   UNL     1       4.552  26.721  48.268  1.00  0.00     0.030 A 
ENDBRANCH  27  31
ENDBRANCH  24  25
ENDBRANCH   4  24
TORSDOF 7
ENDMDL
MODEL 3
REMARK VINA RESULT:      -9.8      3.647      9.404
REMARK  7 active torsions:
REMARK  status: ('A' for Active; 'I' for Inactive)
REMARK    1  A    between atoms: C_4  and  N_5 
REMARK    2  A    between atoms: C_6  and  S_7 
REMARK    3  A    between atoms: S_7  and  C_8 
REMARK    4  A    between atoms: C_8  and  C_9 
REMARK       I    between atoms: C_9  and  N_10 
REMARK    5  A    between atoms: C_12  and  C_13 
REMARK    6  A    between atoms: C_13  and  N_14 
REMARK       I    between atoms: N_14  and  C_15 
REMARK       I    between atoms: C_15  and  N_16 
REMARK    7  A    between atoms: N_16  and  C_17 
ROOT
HETATM    1  C   UNL     1       4.273  29.499  54.167  1.00  0.00     0.229 C 
HETATM    2  N   UNL     1       5.113  28.990  55.170  1.00  0.00    -0.351 N 
HETATM    3  C   UNL     1       5.107  27.588  55.578  1.00  0.00     0.132 C 
HETATM    4  C   UNL     1       6.374  27.129  56.310  1.00  0.00     0.021 C 
HETATM    5  C   UNL     1       6.774  28.129  57.403  1.00  0.00     0.009 C 
HETATM    6  C   UNL     1       6.831  29.554  56.874  1.00  0.00     0.020 C 
HETATM    7  C   UNL     1       5.520  29.944  56.203  1.00  0.00     0.126 C 
HETATM    8  O   UNL     1       4.079  30.719  54.072  1.00  0.00    -0.273 OA
ENDROOT
BRANCH   1   9
HETATM    9  C   UNL     1       3.760  28.596  53.052  1.00  0.00     0.185 C 
BRANCH   9  10
HETATM   10  S   UNL     1       2.800  29.314  51.704  1.00  0.00    -0.082 SA
BRANCH  10  11
HETATM   11  C   UNL     1       3.978  29.802  50.533  1.00  0.00     0.173 A 
HETATM   12  N   UNL     1       4.206  29.138  49.330  1.00  0.00    -0.299 N 
HETATM   13  C   UNL     1       5.297  29.778  48.771  1.00  0.00     0.118 A 
HETATM   14  C   UNL     1       5.661  30.767  49.651  1.00  0.00     0.137 A 
HETATM   15  N   UNL     1       4.844  30.766  50.742  1.00  0.00    -0.235 NA
BRANCH  12  16
HETATM   16  C   UNL     1       3.461  28.093  48.701  1.00  0.00     0.047 A 
HETATM   17  C   UNL     1       2.395  28.444  47.851  1.00  0.00     0.037 A 
HETATM   18  C   UNL     1       1.664  27.473  47.156  1.00  0.00    -0.060 A 
HETATM   19  C   UNL     1       0.510  27.866  46.280  1.00  0.00     0.048 C 
HETATM   20  C   UNL     1       1.999  26.131  47.323  1.00  0.00     0.007 A 
HETATM   21  C   UNL     1       3.053  25.768  48.163  1.00  0.00     0.009 A 
HETATM   22  C   UNL     1       3.790  26.733  48.876  1.00  0.00    -0.035 A 
HETATM   23  C   UNL     1       4.852  26.228  49.815  1.00  0.00     0.050 C 
ENDBRANCH  12  16
ENDBRANCH  10  11
ENDBRANCH   9  10
ENDBRANCH   1   9
BRANCH   4  24
HETATM   24  C   UNL     1       7.492  26.855  55.287  1.00  0.00     0.130 C 
BRANCH  24  25
HETATM   25  N   UNL     1       7.522  25.488  54.798  1.00  0.00    -0.342 N 
HETATM   26  C   UNL     1       7.036  25.167  53.565  1.00  0.00     0.320 C 
HETATM   27  N   UNL     1       7.200  23.882  53.143  1.00  0.00    -0.309 N 
HETATM   28  O   UNL     1       6.515  25.985  52.810  1.00  0.00    -0.247 OA
HETATM   29  H   UNL     1       6.984  23.802  52.156  1.00  0.00     0.170 HD
HETATM   30  H   UNL     1       8.356  24.971  55.033  1.00  0.00     0.164 HD
BRANCH  27  31
HETATM   31  C   UNL     1       7.583  22.699  53.802  1.00  0.00     0.039 A 
HETATM   32  C   UNL     1       7.599  22.536  55.188  1.00  0.00     0.071 A 
HETATM   33  C   UNL     1       8.015  21.325  55.737  1.00  0.00     0.118 A 
HETATM   34  F   UNL     1       8.038  21.185  57.069  1.00  0.00    -0.206 F 
HETATM   35  C   UNL     1       8.400  20.259  54.933  1.00  0.00     0.042 A 
HETATM   36  C   UNL     1       8.351  20.399  53.550  1.00  0.00     0.005 A 
HETATM   37  C   UNL     1       7.935  21.611  52.990  1.00  0.00     0.030 A 
ENDBRANCH  27  31
ENDBRANCH  24  25
ENDBRANCH   4  24
TORSDOF 7
ENDMDL
MODEL 4
REMARK VINA RESULT:      -9.8      3.814      6.652
REMARK  7 active torsions:
REMARK  status: ('A' for Active; 'I' for Inactive)
REMARK    1  A    between atoms: C_4  and  N_5 
REMARK    2  A    between atoms: C_6  and  S_7 
REMARK    3  A    between atoms: S_7  and  C_8 
REMARK    4  A    between atoms: C_8  and  C_9 
REMARK       I    between atoms: C_9  and  N_10 
REMARK    5  A    between atoms: C_12  and  C_13 
REMARK    6  A    between atoms: C_13  and  N_14 
REMARK       I    between atoms: N_14  and  C_15 
REMARK       I    between atoms: C_15  and  N_16 
REMARK    7  A    between atoms: N_16  and  C_17 
ROOT
HETATM    1  C   UNL     1       4.096  30.553  56.765  1.00  0.00     0.229 C 
HETATM    2  N   UNL     1       4.689  29.568  55.960  1.00  0.00    -0.351 N 
HETATM    3  C   UNL     1       6.097  29.198  56.060  1.00  0.00     0.132 C 
HETATM    4  C   UNL     1       6.442  27.825  55.471  1.00  0.00     0.021 C 
HETATM    5  C   UNL     1       5.814  27.644  54.083  1.00  0.00     0.009 C 
HETATM    6  C   UNL     1       4.329  27.976  54.086  1.00  0.00     0.020 C 
HETATM    7  C   UNL     1       4.079  29.372  54.643  1.00  0.00     0.126 C 
HETATM    8  O   UNL     1       3.011  31.056  56.442  1.00  0.00    -0.273 OA
ENDROOT
BRANCH   1   9
HETATM    9  C   UNL     1       4.658  30.868  58.146  1.00  0.00     0.185 C 
BRANCH   9  10
HETATM   10  S   UNL     1       3.532  31.359  59.467  1.00  0.00    -0.082 SA
BRANCH  10  11
HETATM   11  C   UNL     1       3.675  33.082  59.551  1.00  0.00     0.173 A 
HETATM   12  N   UNL     1       4.583  33.753  60.367  1.00  0.00    -0.299 N 
HETATM   13  C   UNL     1       4.273  35.093  60.219  1.00  0.00     0.118 A 
HETATM   14  C   UNL     1       3.216  35.153  59.345  1.00  0.00     0.137 A 
HETATM   15  N   UNL     1       2.848  33.903  58.946  1.00  0.00    -0.235 NA
BRANCH  12  16
HETATM   16  C   UNL     1       5.678  33.247  61.132  1.00  0.00     0.047 A 
HETATM   17  C   UNL     1       6.864  32.896  60.459  1.00  0.00     0.037 A 
HETATM   18  C   UNL     1       7.996  32.453  61.154  1.00  0.00    -0.060 A 
HETATM   19  C   UNL     1       9.240  32.051  60.414  1.00  0.00     0.048 C 
HETATM   20  C   UNL     1       7.936  32.349  62.542  1.00  0.00     0.007 A 
HETATM   21  C   UNL     1       6.767  32.693  63.223  1.00  0.00     0.009 A 
HETATM   22  C   UNL     1       5.618  33.131  62.537  1.00  0.00    -0.035 A 
HETATM   23  C   UNL     1       4.388  33.399  63.361  1.00  0.00     0.050 C 
ENDBRANCH  12  16
ENDBRANCH  10  11
ENDBRANCH   9  10
ENDBRANCH   1   9
BRANCH   4  24
HETATM   24  C   UNL     1       6.052  26.720  56.471  1.00  0.00     0.130 C 
BRANCH  24  25
HETATM   25  N   UNL     1       6.798  25.485  56.307  1.00  0.00    -0.342 N 
HETATM   26  C   UNL     1       7.940  25.249  57.013  1.00  0.00     0.320 C 
HETATM   27  N   UNL     1       8.517  24.022  56.877  1.00  0.00    -0.309 N 
HETATM   28  O   UNL     1       8.431  26.059  57.794  1.00  0.00    -0.247 OA
HETATM   29  H   UNL     1       9.234  23.886  57.581  1.00  0.00     0.170 HD
HETATM   30  H   UNL     1       6.231  24.657  56.198  1.00  0.00     0.164 HD
BRANCH  27  31
HETATM   31  C   UNL     1       8.318  22.965  55.969  1.00  0.00     0.039 A 
HETATM   32  C   UNL     1       8.262  23.114  54.583  1.00  0.00     0.071 A 
HETATM   33  C   UNL     1       8.040  22.000  53.776  1.00  0.00     0.118 A 
HETATM   34  F   UNL     1       7.975  22.158  52.447  1.00  0.00    -0.206 F 
HETATM   35  C   UNL     1       7.893  20.730  54.319  1.00  0.00     0.042 A 
HETATM   36  C   UNL     1       7.986  20.566  55.697  1.00  0.00     0.005 A 
HETATM   37  C   UNL     1       8.207  21.678  56.515  1.00  0.00     0.030 A 
ENDBRANCH  27  31
ENDBRANCH  24  25
ENDBRANCH   4  24
TORSDOF 7
ENDMDL
MODEL 5
REMARK VINA RESULT:      -9.6      3.962      5.803
REMARK  7 active torsions:
REMARK  status: ('A' for Active; 'I' for Inactive)
REMARK    1  A    between atoms: C_4  and  N_5 
REMARK    2  A    between atoms: C_6  and  S_7 
REMARK    3  A    between atoms: S_7  and  C_8 
REMARK    4  A    between atoms: C_8  and  C_9 
REMARK       I    between atoms: C_9  and  N_10 
REMARK    5  A    between atoms: C_12  and  C_13 
REMARK    6  A    between atoms: C_13  and  N_14 
REMARK       I    between atoms: N_14  and  C_15 
REMARK       I    between atoms: C_15  and  N_16 
REMARK    7  A    between atoms: N_16  and  C_17 
ROOT
HETATM    1  C   UNL     1       6.656  29.524  56.712  1.00  0.00     0.229 C 
HETATM    2  N   UNL     1       6.594  28.129  56.852  1.00  0.00    -0.351 N 
HETATM    3  C   UNL     1       5.337  27.391  56.936  1.00  0.00     0.132 C 
HETATM    4  C   UNL     1       5.448  25.897  56.609  1.00  0.00     0.021 C 
HETATM    5  C   UNL     1       6.634  25.257  57.341  1.00  0.00     0.009 C 
HETATM    6  C   UNL     1       7.919  26.046  57.138  1.00  0.00     0.020 C 
HETATM    7  C   UNL     1       7.734  27.507  57.528  1.00  0.00     0.126 C 
HETATM    8  O   UNL     1       7.704  30.133  56.963  1.00  0.00    -0.273 OA
ENDROOT
BRANCH   1   9
HETATM    9  C   UNL     1       5.516  30.288  56.049  1.00  0.00     0.185 C 
BRANCH   9  10
HETATM   10  S   UNL     1       4.135  30.865  57.058  1.00  0.00    -0.082 SA
BRANCH  10  11
HETATM   11  C   UNL     1       4.310  32.587  57.103  1.00  0.00     0.173 A 
HETATM   12  N   UNL     1       4.753  33.299  58.215  1.00  0.00    -0.299 N 
HETATM   13  C   UNL     1       4.622  34.630  57.861  1.00  0.00     0.118 A 
HETATM   14  C   UNL     1       4.115  34.645  56.585  1.00  0.00     0.137 A 
HETATM   15  N   UNL     1       3.917  33.376  56.130  1.00  0.00    -0.235 NA
BRANCH  12  16
HETATM   16  C   UNL     1       5.323  32.831  59.439  1.00  0.00     0.047 A 
HETATM   17  C   UNL     1       6.653  32.368  59.428  1.00  0.00     0.037 A 
HETATM   18  C   UNL     1       7.292  31.954  60.603  1.00  0.00    -0.060 A 
HETATM   19  C   UNL     1       8.700  31.433  60.565  1.00  0.00     0.048 C 
HETATM   20  C   UNL     1       6.586  31.992  61.804  1.00  0.00     0.007 A 
HETATM   21  C   UNL     1       5.266  32.448  61.829  1.00  0.00     0.009 A 
HETATM   22  C   UNL     1       4.608  32.858  60.654  1.00  0.00    -0.035 A 
HETATM   23  C   UNL     1       3.162  33.255  60.782  1.00  0.00     0.050 C 
ENDBRANCH  12  16
ENDBRANCH  10  11
ENDBRANCH   9  10
ENDBRANCH   1   9
BRANCH   4  24
HETATM   24  C   UNL     1       5.492  25.704  55.081  1.00  0.00     0.130 C 
BRANCH  24  25
HETATM   25  N   UNL     1       6.469  24.726  54.638  1.00  0.00    -0.342 N 
HETATM   26  C   UNL     1       7.366  25.017  53.654  1.00  0.00     0.320 C 
HETATM   27  N   UNL     1       8.315  24.080  53.374  1.00  0.00    -0.309 N 
HETATM   28  O   UNL     1       7.389  26.091  53.057  1.00  0.00    -0.247 OA
HETATM   29  H   UNL     1       9.035  24.471  52.777  1.00  0.00     0.170 HD
HETATM   30  H   UNL     1       6.869  24.162  55.373  1.00  0.00     0.164 HD
BRANCH  27  31
HETATM   31  C   UNL     1       8.461  22.728  53.734  1.00  0.00     0.039 A 
HETATM   32  C   UNL     1       8.951  22.286  54.964  1.00  0.00     0.071 A 
HETATM   33  C   UNL     1       9.073  20.921  55.210  1.00  0.00     0.118 A 
HETATM   34  F   UNL     1       9.557  20.509  56.389  1.00  0.00    -0.206 F 
HETATM   35  C   UNL     1       8.698  19.977  54.261  1.00  0.00     0.042 A 
HETATM   36  C   UNL     1       8.173  20.407  53.047  1.00  0.00     0.005 A 
HETATM   37  C   UNL     1       8.047  21.776  52.791  1.00  0.00     0.030 A 
ENDBRANCH  27  31
ENDBRANCH  24  25
ENDBRANCH   4  24
TORSDOF 7
ENDMDL
MODEL 6
REMARK VINA RESULT:      -9.5      3.761      9.430
REMARK  7 active torsions:
REMARK  status: ('A' for Active; 'I' for Inactive)
REMARK    1  A    between atoms: C_4  and  N_5 
REMARK    2  A    between atoms: C_6  and  S_7 
REMARK    3  A    between atoms: S_7  and  C_8 
REMARK    4  A    between atoms: C_8  and  C_9 
REMARK       I    between atoms: C_9  and  N_10 
REMARK    5  A    between atoms: C_12  and  C_13 
REMARK    6  A    between atoms: C_13  and  N_14 
REMARK       I    between atoms: N_14  and  C_15 
REMARK       I    between atoms: C_15  and  N_16 
REMARK    7  A    between atoms: N_16  and  C_17 
ROOT
HETATM    1  C   UNL     1       4.268  29.612  54.398  1.00  0.00     0.229 C 
HETATM    2  N   UNL     1       5.193  28.909  55.186  1.00  0.00    -0.351 N 
HETATM    3  C   UNL     1       5.107  27.471  55.423  1.00  0.00     0.132 C 
HETATM    4  C   UNL     1       6.416  26.818  55.883  1.00  0.00     0.021 C 
HETATM    5  C   UNL     1       7.075  27.630  57.006  1.00  0.00     0.009 C 
HETATM    6  C   UNL     1       7.195  29.103  56.644  1.00  0.00     0.020 C 
HETATM    7  C   UNL     1       5.845  29.683  56.244  1.00  0.00     0.126 C 
HETATM    8  O   UNL     1       4.186  30.845  54.479  1.00  0.00    -0.273 OA
ENDROOT
BRANCH   1   9
HETATM    9  C   UNL     1       3.505  28.907  53.283  1.00  0.00     0.185 C 
BRANCH   9  10
HETATM   10  S   UNL     1       3.726  29.454  51.578  1.00  0.00    -0.082 SA
BRANCH  10  11
HETATM   11  C   UNL     1       4.289  28.052  50.733  1.00  0.00     0.173 A 
HETATM   12  N   UNL     1       4.073  27.817  49.377  1.00  0.00    -0.299 N 
HETATM   13  C   UNL     1       4.571  26.547  49.152  1.00  0.00     0.118 A 
HETATM   14  C   UNL     1       5.045  26.095  50.358  1.00  0.00     0.137 A 
HETATM   15  N   UNL     1       4.856  27.031  51.331  1.00  0.00    -0.235 NA
BRANCH  12  16
HETATM   16  C   UNL     1       3.555  28.683  48.365  1.00  0.00     0.047 A 
HETATM   17  C   UNL     1       4.392  29.689  47.846  1.00  0.00     0.037 A 
HETATM   18  C   UNL     1       3.969  30.531  46.811  1.00  0.00    -0.060 A 
HETATM   19  C   UNL     1       4.866  31.619  46.294  1.00  0.00     0.048 C 
HETATM   20  C   UNL     1       2.684  30.372  46.296  1.00  0.00     0.007 A 
HETATM   21  C   UNL     1       1.842  29.379  46.801  1.00  0.00     0.009 A 
HETATM   22  C   UNL     1       2.251  28.532  47.849  1.00  0.00    -0.035 A 
HETATM   23  C   UNL     1       1.237  27.550  48.371  1.00  0.00     0.050 C 
ENDBRANCH  12  16
ENDBRANCH  10  11
ENDBRANCH   9  10
ENDBRANCH   1   9
BRANCH   4  24
HETATM   24  C   UNL     1       7.335  26.591  54.668  1.00  0.00     0.130 C 
BRANCH  24  25
HETATM   25  N   UNL     1       7.689  25.200  54.449  1.00  0.00    -0.342 N 
HETATM   26  C   UNL     1       7.911  24.715  53.194  1.00  0.00     0.320 C 
HETATM   27  N   UNL     1       8.343  23.427  53.088  1.00  0.00    -0.309 N 
HETATM   28  O   UNL     1       7.795  25.394  52.177  1.00  0.00    -0.247 OA
HETATM   29  H   UNL     1       8.660  23.235  52.144  1.00  0.00     0.170 HD
HETATM   30  H   UNL     1       8.320  24.809  55.133  1.00  0.00     0.164 HD
BRANCH  27  31
HETATM   31  C   UNL     1       8.411  22.361  54.004  1.00  0.00     0.039 A 
HETATM   32  C   UNL     1       8.295  22.499  55.388  1.00  0.00     0.071 A 
HETATM   33  C   UNL     1       8.398  21.377  56.206  1.00  0.00     0.118 A 
HETATM   34  F   UNL     1       8.297  21.524  57.534  1.00  0.00    -0.206 F 
HETATM   35  C   UNL     1       8.594  20.108  55.675  1.00  0.00     0.042 A 
HETATM   36  C   UNL     1       8.673  19.955  54.295  1.00  0.00     0.005 A 
HETATM   37  C   UNL     1       8.572  21.076  53.465  1.00  0.00     0.030 A 
ENDBRANCH  27  31
ENDBRANCH  24  25
ENDBRANCH   4  24
TORSDOF 7
ENDMDL
MODEL 7
REMARK VINA RESULT:      -9.4      5.439     10.260
REMARK  7 active torsions:
REMARK  status: ('A' for Active; 'I' for Inactive)
REMARK    1  A    between atoms: C_4  and  N_5 
REMARK    2  A    between atoms: C_6  and  S_7 
REMARK    3  A    between atoms: S_7  and  C_8 
REMARK    4  A    between atoms: C_8  and  C_9 
REMARK       I    between atoms: C_9  and  N_10 
REMARK    5  A    between atoms: C_12  and  C_13 
REMARK    6  A    between atoms: C_13  and  N_14 
REMARK       I    between atoms: N_14  and  C_15 
REMARK       I    between atoms: C_15  and  N_16 
REMARK    7  A    between atoms: N_16  and  C_17 
ROOT
HETATM    1  C   UNL     1       5.054  28.951  50.155  1.00  0.00     0.229 C 
HETATM    2  N   UNL     1       4.966  27.876  51.053  1.00  0.00    -0.351 N 
HETATM    3  C   UNL     1       4.971  26.480  50.629  1.00  0.00     0.132 C 
HETATM    4  C   UNL     1       5.344  25.478  51.727  1.00  0.00     0.021 C 
HETATM    5  C   UNL     1       4.577  25.766  53.024  1.00  0.00     0.009 C 
HETATM    6  C   UNL     1       4.688  27.226  53.435  1.00  0.00     0.020 C 
HETATM    7  C   UNL     1       4.257  28.151  52.304  1.00  0.00     0.126 C 
HETATM    8  O   UNL     1       4.730  30.093  50.509  1.00  0.00    -0.273 OA
ENDROOT
BRANCH   1   9
HETATM    9  C   UNL     1       5.746  28.781  48.807  1.00  0.00     0.185 C 
BRANCH   9  10
HETATM   10  S   UNL     1       4.804  29.045  47.291  1.00  0.00    -0.082 SA
BRANCH  10  11
HETATM   11  C   UNL     1       3.577  27.825  47.315  1.00  0.00     0.173 A 
HETATM   12  N   UNL     1       2.228  28.076  47.554  1.00  0.00    -0.299 N 
HETATM   13  C   UNL     1       1.636  26.827  47.607  1.00  0.00     0.118 A 
HETATM   14  C   UNL     1       2.639  25.912  47.405  1.00  0.00     0.137 A 
HETATM   15  N   UNL     1       3.837  26.540  47.236  1.00  0.00    -0.235 NA
BRANCH  12  16
HETATM   16  C   UNL     1       1.525  29.318  47.635  1.00  0.00     0.047 A 
HETATM   17  C   UNL     1       1.231  30.004  46.441  1.00  0.00     0.037 A 
HETATM   18  C   UNL     1       0.492  31.193  46.444  1.00  0.00    -0.060 A 
HETATM   19  C   UNL     1       0.217  31.927  45.163  1.00  0.00     0.048 C 
HETATM   20  C   UNL     1       0.051  31.709  47.661  1.00  0.00     0.007 A 
HETATM   21  C   UNL     1       0.336  31.040  48.853  1.00  0.00     0.009 A 
HETATM   22  C   UNL     1       1.086  29.849  48.866  1.00  0.00    -0.035 A 
HETATM   23  C   UNL     1       1.403  29.253  50.211  1.00  0.00     0.050 C 
ENDBRANCH  12  16
ENDBRANCH  10  11
ENDBRANCH   9  10
ENDBRANCH   1   9
BRANCH   4  24
HETATM   24  C   UNL     1       6.874  25.456  51.910  1.00  0.00     0.130 C 
BRANCH  24  25
HETATM   25  N   UNL     1       7.332  24.549  52.947  1.00  0.00    -0.342 N 
HETATM   26  C   UNL     1       7.777  25.015  54.149  1.00  0.00     0.320 C 
HETATM   27  N   UNL     1       8.086  24.092  55.102  1.00  0.00    -0.309 N 
HETATM   28  O   UNL     1       7.856  26.210  54.423  1.00  0.00    -0.247 OA
HETATM   29  H   UNL     1       8.215  24.540  56.002  1.00  0.00     0.170 HD
HETATM   30  H   UNL     1       6.795  23.699  53.036  1.00  0.00     0.164 HD
BRANCH  27  31
HETATM   31  C   UNL     1       8.267  22.697  55.062  1.00  0.00     0.039 A 
HETATM   32  C   UNL     1       8.551  21.970  53.906  1.00  0.00     0.071 A 
HETATM   33  C   UNL     1       8.690  20.586  53.976  1.00  0.00     0.118 A 
HETATM   34  F   UNL     1       8.951  19.897  52.857  1.00  0.00    -0.206 F 
HETATM   35  C   UNL     1       8.573  19.906  55.182  1.00  0.00     0.042 A 
HETATM   36  C   UNL     1       8.328  20.626  56.346  1.00  0.00     0.005 A 
HETATM   37  C   UNL     1       8.185  22.016  56.285  1.00  0.00     0.030 A 
ENDBRANCH  27  31
ENDBRANCH  24  25
ENDBRANCH   4  24
TORSDOF 7
ENDMDL
MODEL 8
REMARK VINA RESULT:      -9.2      3.556      6.375
REMARK  7 active torsions:
REMARK  status: ('A' for Active; 'I' for Inactive)
REMARK    1  A    between atoms: C_4  and  N_5 
REMARK    2  A    between atoms: C_6  and  S_7 
REMARK    3  A    between atoms: S_7  and  C_8 
REMARK    4  A    between atoms: C_8  and  C_9 
REMARK       I    between atoms: C_9  and  N_10 
REMARK    5  A    between atoms: C_12  and  C_13 
REMARK    6  A    between atoms: C_13  and  N_14 
REMARK       I    between atoms: N_14  and  C_15 
REMARK       I    between atoms: C_15  and  N_16 
REMARK    7  A    between atoms: N_16  and  C_17 
ROOT
HETATM    1  C   UNL     1       4.022  31.346  56.782  1.00  0.00     0.229 C 
HETATM    2  N   UNL     1       4.263  30.537  55.660  1.00  0.00    -0.351 N 
HETATM    3  C   UNL     1       5.567  29.951  55.365  1.00  0.00     0.132 C 
HETATM    4  C   UNL     1       5.529  28.752  54.410  1.00  0.00     0.021 C 
HETATM    5  C   UNL     1       4.651  29.045  53.187  1.00  0.00     0.009 C 
HETATM    6  C   UNL     1       3.283  29.579  53.587  1.00  0.00     0.020 C 
HETATM    7  C   UNL     1       3.411  30.794  54.497  1.00  0.00     0.126 C 
HETATM    8  O   UNL     1       3.020  32.070  56.828  1.00  0.00    -0.273 OA
ENDROOT
BRANCH   1   9
HETATM    9  C   UNL     1       4.863  31.191  58.044  1.00  0.00     0.185 C 
BRANCH   9  10
HETATM   10  S   UNL     1       5.964  32.531  58.542  1.00  0.00    -0.082 SA
BRANCH  10  11
HETATM   11  C   UNL     1       6.659  31.999  60.036  1.00  0.00     0.173 A 
HETATM   12  N   UNL     1       7.648  31.023  60.135  1.00  0.00    -0.299 N 
HETATM   13  C   UNL     1       7.816  30.822  61.492  1.00  0.00     0.118 A 
HETATM   14  C   UNL     1       6.936  31.666  62.123  1.00  0.00     0.137 A 
HETATM   15  N   UNL     1       6.218  32.382  61.211  1.00  0.00    -0.235 NA
BRANCH  12  16
HETATM   16  C   UNL     1       8.429  30.400  59.113  1.00  0.00     0.047 A 
HETATM   17  C   UNL     1       7.962  29.198  58.547  1.00  0.00     0.037 A 
HETATM   18  C   UNL     1       8.646  28.568  57.501  1.00  0.00    -0.060 A 
HETATM   19  C   UNL     1       8.148  27.270  56.934  1.00  0.00     0.048 C 
HETATM   20  C   UNL     1       9.821  29.143  57.021  1.00  0.00     0.007 A 
HETATM   21  C   UNL     1      10.297  30.334  57.573  1.00  0.00     0.009 A 
HETATM   22  C   UNL     1       9.625  30.974  58.632  1.00  0.00    -0.035 A 
HETATM   23  C   UNL     1      10.267  32.208  59.205  1.00  0.00     0.050 C 
ENDBRANCH  12  16
ENDBRANCH  10  11
ENDBRANCH   9  10
ENDBRANCH   1   9
BRANCH   4  24
HETATM   24  C   UNL     1       5.106  27.489  55.183  1.00  0.00     0.130 C 
BRANCH  24  25
HETATM   25  N   UNL     1       5.777  26.277  54.746  1.00  0.00    -0.342 N 
HETATM   26  C   UNL     1       5.310  25.550  53.692  1.00  0.00     0.320 C 
HETATM   27  N   UNL     1       6.059  24.488  53.283  1.00  0.00    -0.309 N 
HETATM   28  O   UNL     1       4.290  25.839  53.071  1.00  0.00    -0.247 OA
HETATM   29  H   UNL     1       5.730  24.144  52.388  1.00  0.00     0.170 HD
HETATM   30  H   UNL     1       6.785  26.316  54.775  1.00  0.00     0.164 HD
BRANCH  27  31
HETATM   31  C   UNL     1       7.146  23.805  53.859  1.00  0.00     0.039 A 
HETATM   32  C   UNL     1       7.764  24.169  55.056  1.00  0.00     0.071 A 
HETATM   33  C   UNL     1       8.849  23.432  55.526  1.00  0.00     0.118 A 
HETATM   34  F   UNL     1       9.442  23.799  56.670  1.00  0.00    -0.206 F 
HETATM   35  C   UNL     1       9.324  22.322  54.838  1.00  0.00     0.042 A 
HETATM   36  C   UNL     1       8.690  21.928  53.665  1.00  0.00     0.005 A 
HETATM   37  C   UNL     1       7.601  22.662  53.184  1.00  0.00     0.030 A 
ENDBRANCH  27  31
ENDBRANCH  24  25
ENDBRANCH   4  24
TORSDOF 7
ENDMDL
MODEL 9
REMARK VINA RESULT:      -9.1      3.995     10.376
REMARK  7 active torsions:
REMARK  status: ('A' for Active; 'I' for Inactive)
REMARK    1  A    between atoms: C_4  and  N_5 
REMARK    2  A    between atoms: C_6  and  S_7 
REMARK    3  A    between atoms: S_7  and  C_8 
REMARK    4  A    between atoms: C_8  and  C_9 
REMARK       I    between atoms: C_9  and  N_10 
REMARK    5  A    between atoms: C_12  and  C_13 
REMARK    6  A    between atoms: C_13  and  N_14 
REMARK       I    between atoms: N_14  and  C_15 
REMARK       I    between atoms: C_15  and  N_16 
REMARK    7  A    between atoms: N_16  and  C_17 
ROOT
HETATM    1  C   UNL     1       5.415  26.462  53.583  1.00  0.00     0.229 C 
HETATM    2  N   UNL     1       6.157  26.493  54.774  1.00  0.00    -0.351 N 
HETATM    3  C   UNL     1       7.074  27.577  55.114  1.00  0.00     0.132 C 
HETATM    4  C   UNL     1       7.414  27.684  56.605  1.00  0.00     0.021 C 
HETATM    5  C   UNL     1       7.774  26.313  57.192  1.00  0.00     0.009 C 
HETATM    6  C   UNL     1       6.727  25.261  56.856  1.00  0.00     0.020 C 
HETATM    7  C   UNL     1       6.482  25.188  55.354  1.00  0.00     0.126 C 
HETATM    8  O   UNL     1       4.907  25.404  53.188  1.00  0.00    -0.273 OA
ENDROOT
BRANCH   1   9
HETATM    9  C   UNL     1       5.038  27.756  52.871  1.00  0.00     0.185 C 
BRANCH   9  10
HETATM   10  S   UNL     1       3.317  28.296  52.871  1.00  0.00    -0.082 SA
BRANCH  10  11
HETATM   11  C   UNL     1       3.340  29.845  52.099  1.00  0.00     0.173 A 
HETATM   12  N   UNL     1       3.482  30.033  50.726  1.00  0.00    -0.299 N 
HETATM   13  C   UNL     1       3.574  31.403  50.561  1.00  0.00     0.118 A 
HETATM   14  C   UNL     1       3.488  31.953  51.815  1.00  0.00     0.137 A 
HETATM   15  N   UNL     1       3.354  30.979  52.760  1.00  0.00    -0.235 NA
BRANCH  12  16
HETATM   16  C   UNL     1       3.446  29.081  49.660  1.00  0.00     0.047 A 
HETATM   17  C   UNL     1       2.194  28.613  49.218  1.00  0.00     0.037 A 
HETATM   18  C   UNL     1       2.084  27.728  48.139  1.00  0.00    -0.060 A 
HETATM   19  C   UNL     1       0.742  27.214  47.703  1.00  0.00     0.048 C 
HETATM   20  C   UNL     1       3.245  27.297  47.499  1.00  0.00     0.007 A 
HETATM   21  C   UNL     1       4.494  27.753  47.928  1.00  0.00     0.009 A 
HETATM   22  C   UNL     1       4.620  28.635  49.018  1.00  0.00    -0.035 A 
HETATM   23  C   UNL     1       6.015  29.000  49.446  1.00  0.00     0.050 C 
ENDBRANCH  12  16
ENDBRANCH  10  11
ENDBRANCH   9  10
ENDBRANCH   1   9
BRANCH   4  24
HETATM   24  C   UNL     1       6.263  28.388  57.348  1.00  0.00     0.130 C 
BRANCH  24  25
HETATM   25  N   UNL     1       6.686  29.522  58.151  1.00  0.00    -0.342 N 
HETATM   26  C   UNL     1       6.281  30.790  57.855  1.00  0.00     0.320 C 
HETATM   27  N   UNL     1       6.637  31.779  58.721  1.00  0.00    -0.309 N 
HETATM   28  O   UNL     1       5.575  31.064  56.887  1.00  0.00    -0.247 OA
HETATM   29  H   UNL     1       6.128  32.632  58.515  1.00  0.00     0.170 HD
HETATM   30  H   UNL     1       6.722  29.349  59.145  1.00  0.00     0.164 HD
BRANCH  27  31
HETATM   31  C   UNL     1       7.550  31.834  59.790  1.00  0.00     0.039 A 
HETATM   32  C   UNL     1       7.191  31.812  61.138  1.00  0.00     0.071 A 
HETATM   33  C   UNL     1       8.178  31.892  62.119  1.00  0.00     0.118 A 
HETATM   34  F   UNL     1       7.820  31.883  63.409  1.00  0.00    -0.206 F 
HETATM   35  C   UNL     1       9.524  31.972  61.786  1.00  0.00     0.042 A 
HETATM   36  C   UNL     1       9.895  31.956  60.446  1.00  0.00     0.005 A 
HETATM   37  C   UNL     1       8.911  31.878  59.454  1.00  0.00     0.030 A 
ENDBRANCH  27  31
ENDBRANCH  24  25
ENDBRANCH   4  24
TORSDOF 7
ENDMDL
MODEL 10
REMARK VINA RESULT:      -9.0      1.523      2.336
REMARK  7 active torsions:
REMARK  status: ('A' for Active; 'I' for Inactive)
REMARK    1  A    between atoms: C_4  and  N_5 
REMARK    2  A    between atoms: C_6  and  S_7 
REMARK    3  A    between atoms: S_7  and  C_8 
REMARK    4  A    between atoms: C_8  and  C_9 
REMARK       I    between atoms: C_9  and  N_10 
REMARK    5  A    between atoms: C_12  and  C_13 
REMARK    6  A    between atoms: C_13  and  N_14 
REMARK       I    between atoms: N_14  and  C_15 
REMARK       I    between atoms: C_15  and  N_16 
REMARK    7  A    between atoms: N_16  and  C_17 
ROOT
HETATM    1  C   UNL     1       7.636  26.733  56.151  1.00  0.00     0.229 C 
HETATM    2  N   UNL     1       7.276  25.812  55.154  1.00  0.00    -0.351 N 
HETATM    3  C   UNL     1       5.981  25.833  54.481  1.00  0.00     0.132 C 
HETATM    4  C   UNL     1       5.945  25.094  53.138  1.00  0.00     0.021 C 
HETATM    5  C   UNL     1       6.605  23.714  53.248  1.00  0.00     0.009 C 
HETATM    6  C   UNL     1       7.982  23.794  53.889  1.00  0.00     0.020 C 
HETATM    7  C   UNL     1       7.920  24.500  55.238  1.00  0.00     0.126 C 
HETATM    8  O   UNL     1       8.587  26.496  56.908  1.00  0.00    -0.273 OA
ENDROOT
BRANCH   1   9
HETATM    9  C   UNL     1       7.012  28.122  56.186  1.00  0.00     0.185 C 
BRANCH   9  10
HETATM   10  S   UNL     1       6.384  28.771  57.749  1.00  0.00    -0.082 SA
BRANCH  10  11
HETATM   11  C   UNL     1       5.968  30.416  57.409  1.00  0.00     0.173 A 
HETATM   12  N   UNL     1       6.364  31.500  58.188  1.00  0.00    -0.299 N 
HETATM   13  C   UNL     1       5.716  32.591  57.638  1.00  0.00     0.118 A 
HETATM   14  C   UNL     1       4.978  32.114  56.583  1.00  0.00     0.137 A 
HETATM   15  N   UNL     1       5.133  30.765  56.457  1.00  0.00    -0.235 NA
BRANCH  12  16
HETATM   16  C   UNL     1       7.304  31.564  59.263  1.00  0.00     0.047 A 
HETATM   17  C   UNL     1       6.845  31.957  60.535  1.00  0.00     0.037 A 
HETATM   18  C   UNL     1       7.698  31.981  61.645  1.00  0.00    -0.060 A 
HETATM   19  C   UNL     1       7.197  32.435  62.986  1.00  0.00     0.048 C 
HETATM   20  C   UNL     1       9.033  31.619  61.477  1.00  0.00     0.007 A 
HETATM   21  C   UNL     1       9.502  31.228  60.221  1.00  0.00     0.009 A 
HETATM   22  C   UNL     1       8.658  31.208  59.094  1.00  0.00    -0.035 A 
HETATM   23  C   UNL     1       9.285  30.848  57.775  1.00  0.00     0.050 C 
ENDBRANCH  12  16
ENDBRANCH  10  11
ENDBRANCH   9  10
ENDBRANCH   1   9
BRANCH   4  24
HETATM   24  C   UNL     1       6.561  25.985  52.042  1.00  0.00     0.130 C 
BRANCH  24  25
HETATM   25  N   UNL     1       5.585  26.567  51.138  1.00  0.00    -0.342 N 
HETATM   26  C   UNL     1       5.353  27.910  51.116  1.00  0.00     0.320 C 
HETATM   27  N   UNL     1       4.500  28.383  50.164  1.00  0.00    -0.309 N 
HETATM   28  O   UNL     1       5.913  28.704  51.867  1.00  0.00    -0.247 OA
HETATM   29  H   UNL     1       4.551  29.394  50.112  1.00  0.00     0.170 HD
HETATM   30  H   UNL     1       5.559  26.154  50.217  1.00  0.00     0.164 HD
BRANCH  27  31
HETATM   31  C   UNL     1       3.592  27.752  49.293  1.00  0.00     0.039 A 
HETATM   32  C   UNL     1       3.887  26.624  48.526  1.00  0.00     0.071 A 
HETATM   33  C   UNL     1       2.918  26.091  47.679  1.00  0.00     0.118 A 
HETATM   34  F   UNL     1       3.217  25.015  46.939  1.00  0.00    -0.206 F 
HETATM   35  C   UNL     1       1.647  26.646  47.591  1.00  0.00     0.042 A 
HETATM   36  C   UNL     1       1.332  27.748  48.380  1.00  0.00     0.005 A 
HETATM   37  C   UNL     1       2.299  28.291  49.233  1.00  0.00     0.030 A 
ENDBRANCH  27  31
ENDBRANCH  24  25
ENDBRANCH   4  24
TORSDOF 7
ENDMDL
