MODEL 1
REMARK VINA RESULT:      -8.9      0.000      0.000
REMARK  6 active torsions:
REMARK  status: ('A' for Active; 'I' for Inactive)
REMARK    1  A    between atoms: C_2  and  N_3 
REMARK       I    between atoms: N_3  and  C_4 
REMARK    2  A    between atoms: C_4  and  C_5 
REMARK    3  A    between atoms: C_6  and  N_7 
REMARK       I    between atoms: N_7  and  C_8 
REMARK    4  A    between atoms: C_8  and  C_9 
REMARK    5  A    between atoms: C_11  and  O_12 
REMARK    6  A    between atoms: O_12  and  C_13 
ROOT
HETATM    1  N   UNL     1       7.462  25.801  55.542  1.00  0.00    -0.322 N 
HETATM    2  C   UNL     1       6.574  26.061  56.572  1.00  0.00     0.256 C 
HETATM    3  O   UNL     1       5.800  25.252  57.073  1.00  0.00    -0.267 OA
HETATM    4  H   UNL     1       7.926  26.593  55.108  1.00  0.00     0.169 HD
ENDROOT
BRANCH   1   5
HETATM    5  C   UNL     1       7.784  24.534  54.982  1.00  0.00     0.050 A 
HETATM    6  C   UNL     1       7.183  24.130  53.770  1.00  0.00     0.058 A 
HETATM    7  C   UNL     1       7.554  22.927  53.148  1.00  0.00     0.019 A 
HETATM    8  C   UNL     1       8.501  22.096  53.738  1.00  0.00     0.001 A 
HETATM    9  C   UNL     1       9.084  22.470  54.944  1.00  0.00     0.002 A 
HETATM   10  C   UNL     1       8.733  23.679  55.557  1.00  0.00     0.030 A 
BRANCH   6  11
HETATM   11  C   UNL     1       6.135  24.926  53.083  1.00  0.00     0.253 C 
HETATM   12  N   UNL     1       6.575  25.701  52.025  1.00  0.00    -0.357 N 
HETATM   13  H   UNL     1       7.575  25.871  51.967  1.00  0.00     0.162 HD
HETATM   14  O   UNL     1       4.976  24.902  53.478  1.00  0.00    -0.268 OA
BRANCH  12  15
HETATM   15  C   UNL     1       5.698  26.680  51.410  1.00  0.00     0.118 C 
HETATM   16  C   UNL     1       4.932  26.107  50.231  1.00  0.00     0.026 C 
ENDBRANCH  12  15
ENDBRANCH   6  11
ENDBRANCH   1   5
BRANCH   2  17
HETATM   17  C   UNL     1       6.539  27.463  57.081  1.00  0.00     0.037 A 
HETATM   18  C   UNL     1       7.650  27.925  57.790  1.00  0.00     0.075 A 
HETATM   19  C   UNL     1       7.650  29.234  58.226  1.00  0.00     0.165 A 
HETATM   20  N   UNL     1       6.635  30.096  58.016  1.00  0.00    -0.237 NA
HETATM   21  C   UNL     1       5.578  29.632  57.318  1.00  0.00     0.120 A 
HETATM   22  C   UNL     1       5.482  28.340  56.827  1.00  0.00     0.036 A 
BRANCH  19  23
HETATM   23  O   UNL     1       8.779  29.661  58.897  1.00  0.00    -0.329 OA
BRANCH  23  24
HETATM   24  C   UNL     1       8.584  30.679  59.901  1.00  0.00     0.130 C 
HETATM   25  C   UNL     1       9.250  30.441  61.281  1.00  0.00     0.032 C 
HETATM   26  C   UNL     1       9.608  31.937  61.300  1.00  0.00     0.005 C 
HETATM   27  C   UNL     1       9.523  31.908  59.763  1.00  0.00     0.032 C 
ENDBRANCH  23  24
ENDBRANCH  19  23
ENDBRANCH   2  17
TORSDOF 6
ENDMDL
MODEL 2
REMARK VINA RESULT:      -8.7      2.418      3.193
REMARK  6 active torsions:
REMARK  status: ('A' for Active; 'I' for Inactive)
REMARK    1  A    between atoms: C_2  and  N_3 
REMARK       I    between atoms: N_3  and  C_4 
REMARK    2  A    between atoms: C_4  and  C_5 
REMARK    3  A    between atoms: C_6  and  N_7 
REMARK       I    between atoms: N_7  and  C_8 
REMARK    4  A    between atoms: C_8  and  C_9 
REMARK    5  A    between atoms: C_11  and  O_12 
REMARK    6  A    between atoms: O_12  and  C_13 
ROOT
HETATM    1  N   UNL     1       8.693  27.240  56.901  1.00  0.00    -0.322 N 
HETATM    2  C   UNL     1       7.981  28.253  57.521  1.00  0.00     0.256 C 
HETATM    3  O   UNL     1       6.794  28.212  57.825  1.00  0.00    -0.267 OA
HETATM    4  H   UNL     1       9.622  27.459  56.557  1.00  0.00     0.169 HD
ENDROOT
BRANCH   1   5
HETATM    5  C   UNL     1       8.258  25.909  56.653  1.00  0.00     0.050 A 
HETATM    6  C   UNL     1       7.363  25.651  55.592  1.00  0.00     0.058 A 
HETATM    7  C   UNL     1       6.992  24.337  55.266  1.00  0.00     0.019 A 
HETATM    8  C   UNL     1       7.478  23.266  56.010  1.00  0.00     0.001 A 
HETATM    9  C   UNL     1       8.341  23.507  57.073  1.00  0.00     0.002 A 
HETATM   10  C   UNL     1       8.731  24.815  57.388  1.00  0.00     0.030 A 
BRANCH   6  11
HETATM   11  C   UNL     1       6.758  26.726  54.765  1.00  0.00     0.253 C 
HETATM   12  N   UNL     1       5.438  27.024  55.048  1.00  0.00    -0.357 N 
HETATM   13  H   UNL     1       4.920  26.339  55.591  1.00  0.00     0.162 HD
HETATM   14  O   UNL     1       7.405  27.262  53.874  1.00  0.00    -0.268 OA
BRANCH  12  15
HETATM   15  C   UNL     1       4.674  27.898  54.179  1.00  0.00     0.118 C 
HETATM   16  C   UNL     1       4.315  29.211  54.851  1.00  0.00     0.026 C 
ENDBRANCH  12  15
ENDBRANCH   6  11
ENDBRANCH   1   5
BRANCH   2  17
HETATM   17  C   UNL     1       8.729  29.513  57.805  1.00  0.00     0.037 A 
HETATM   18  C   UNL     1       8.114  30.464  58.621  1.00  0.00     0.075 A 
HETATM   19  C   UNL     1       8.814  31.613  58.930  1.00  0.00     0.165 A 
HETATM   20  N   UNL     1      10.058  31.879  58.480  1.00  0.00    -0.237 NA
HETATM   21  C   UNL     1      10.637  30.939  57.703  1.00  0.00     0.120 A 
HETATM   22  C   UNL     1      10.026  29.749  57.344  1.00  0.00     0.036 A 
BRANCH  19  23
HETATM   23  O   UNL     1       8.184  32.516  59.763  1.00  0.00    -0.329 OA
BRANCH  23  24
HETATM   24  C   UNL     1       7.812  32.032  61.071  1.00  0.00     0.130 C 
HETATM   25  C   UNL     1       8.954  31.863  62.107  1.00  0.00     0.032 C 
HETATM   26  C   UNL     1       7.994  32.427  63.169  1.00  0.00     0.005 C 
HETATM   27  C   UNL     1       7.238  33.118  62.020  1.00  0.00     0.032 C 
ENDBRANCH  23  24
ENDBRANCH  19  23
ENDBRANCH   2  17
TORSDOF 6
ENDMDL
MODEL 3
REMARK VINA RESULT:      -8.4      3.007      7.842
REMARK  6 active torsions:
REMARK  status: ('A' for Active; 'I' for Inactive)
REMARK    1  A    between atoms: C_2  and  N_3 
REMARK       I    between atoms: N_3  and  C_4 
REMARK    2  A    between atoms: C_4  and  C_5 
REMARK    3  A    between atoms: C_6  and  N_7 
REMARK       I    between atoms: N_7  and  C_8 
REMARK    4  A    between atoms: C_8  and  C_9 
REMARK    5  A    between atoms: C_11  and  O_12 
REMARK    6  A    between atoms: O_12  and  C_13 
ROOT
HETATM    1  N   UNL     1       6.979  24.680  52.805  1.00  0.00    -0.322 N 
HETATM    2  C   UNL     1       5.712  25.039  52.376  1.00  0.00     0.256 C 
HETATM    3  O   UNL     1       4.717  24.324  52.404  1.00  0.00    -0.267 OA
HETATM    4  H   UNL     1       7.748  25.301  52.577  1.00  0.00     0.169 HD
ENDROOT
BRANCH   1   5
HETATM    5  C   UNL     1       7.346  23.503  53.514  1.00  0.00     0.050 A 
HETATM    6  C   UNL     1       7.297  23.490  54.925  1.00  0.00     0.058 A 
HETATM    7  C   UNL     1       7.563  22.314  55.645  1.00  0.00     0.019 A 
HETATM    8  C   UNL     1       7.915  21.147  54.974  1.00  0.00     0.001 A 
HETATM    9  C   UNL     1       7.992  21.151  53.586  1.00  0.00     0.002 A 
HETATM   10  C   UNL     1       7.705  22.316  52.863  1.00  0.00     0.030 A 
BRANCH   6  11
HETATM   11  C   UNL     1       6.970  24.692  55.734  1.00  0.00     0.253 C 
HETATM   12  N   UNL     1       7.996  25.171  56.529  1.00  0.00    -0.357 N 
HETATM   13  H   UNL     1       8.775  24.542  56.700  1.00  0.00     0.162 HD
HETATM   14  O   UNL     1       5.846  25.176  55.702  1.00  0.00    -0.268 OA
BRANCH  12  15
HETATM   15  C   UNL     1       7.745  26.202  57.518  1.00  0.00     0.118 C 
HETATM   16  C   UNL     1       8.291  27.553  57.094  1.00  0.00     0.026 C 
ENDBRANCH  12  15
ENDBRANCH   6  11
ENDBRANCH   1   5
BRANCH   2  17
HETATM   17  C   UNL     1       5.571  26.406  51.796  1.00  0.00     0.037 A 
HETATM   18  C   UNL     1       5.005  26.517  50.524  1.00  0.00     0.075 A 
HETATM   19  C   UNL     1       4.825  27.779  49.995  1.00  0.00     0.165 A 
HETATM   20  N   UNL     1       5.174  28.917  50.631  1.00  0.00    -0.237 NA
HETATM   21  C   UNL     1       5.707  28.785  51.863  1.00  0.00     0.120 A 
HETATM   22  C   UNL     1       5.920  27.568  52.488  1.00  0.00     0.036 A 
BRANCH  19  23
HETATM   23  O   UNL     1       4.235  27.848  48.748  1.00  0.00    -0.329 OA
BRANCH  23  24
HETATM   24  C   UNL     1       3.015  27.099  48.572  1.00  0.00     0.130 C 
HETATM   25  C   UNL     1       1.684  27.883  48.714  1.00  0.00     0.032 C 
HETATM   26  C   UNL     1       1.148  27.071  47.521  1.00  0.00     0.005 C 
HETATM   27  C   UNL     1       2.612  26.864  47.092  1.00  0.00     0.032 C 
ENDBRANCH  23  24
ENDBRANCH  19  23
ENDBRANCH   2  17
TORSDOF 6
ENDMDL
MODEL 4
REMARK VINA RESULT:      -8.4      1.911      3.701
REMARK  6 active torsions:
REMARK  status: ('A' for Active; 'I' for Inactive)
REMARK    1  A    between atoms: C_2  and  N_3 
REMARK       I    between atoms: N_3  and  C_4 
REMARK    2  A    between atoms: C_4  and  C_5 
REMARK    3  A    between atoms: C_6  and  N_7 
REMARK       I    between atoms: N_7  and  C_8 
REMARK    4  A    between atoms: C_8  and  C_9 
REMARK    5  A    between atoms: C_11  and  O_12 
REMARK    6  A    between atoms: O_12  and  C_13 
ROOT
HETATM    1  N   UNL     1       7.521  27.554  54.099  1.00  0.00    -0.322 N 
HETATM    2  C   UNL     1       7.089  28.420  55.089  1.00  0.00     0.256 C 
HETATM    3  O   UNL     1       5.928  28.768  55.280  1.00  0.00    -0.267 OA
HETATM    4  H   UNL     1       8.520  27.477  53.943  1.00  0.00     0.169 HD
ENDROOT
BRANCH   1   5
HETATM    5  C   UNL     1       6.714  26.765  53.233  1.00  0.00     0.050 A 
HETATM    6  C   UNL     1       6.529  25.392  53.505  1.00  0.00     0.058 A 
HETATM    7  C   UNL     1       5.664  24.613  52.721  1.00  0.00     0.019 A 
HETATM    8  C   UNL     1       4.998  25.179  51.637  1.00  0.00     0.001 A 
HETATM    9  C   UNL     1       5.191  26.524  51.343  1.00  0.00     0.002 A 
HETATM   10  C   UNL     1       6.036  27.310  52.136  1.00  0.00     0.030 A 
BRANCH   6  11
HETATM   11  C   UNL     1       7.223  24.686  54.612  1.00  0.00     0.253 C 
HETATM   12  N   UNL     1       8.155  23.741  54.224  1.00  0.00    -0.357 N 
HETATM   13  H   UNL     1       8.109  23.421  53.260  1.00  0.00     0.162 HD
HETATM   14  O   UNL     1       6.934  24.924  55.778  1.00  0.00    -0.268 OA
BRANCH  12  15
HETATM   15  C   UNL     1       8.743  22.839  55.196  1.00  0.00     0.118 C 
HETATM   16  C   UNL     1       7.950  21.552  55.342  1.00  0.00     0.026 C 
ENDBRANCH  12  15
ENDBRANCH   6  11
ENDBRANCH   1   5
BRANCH   2  17
HETATM   17  C   UNL     1       8.144  29.005  55.967  1.00  0.00     0.037 A 
HETATM   18  C   UNL     1       7.839  29.186  57.317  1.00  0.00     0.075 A 
HETATM   19  C   UNL     1       8.822  29.682  58.150  1.00  0.00     0.165 A 
HETATM   20  N   UNL     1      10.062  30.013  57.734  1.00  0.00    -0.237 NA
HETATM   21  C   UNL     1      10.337  29.818  56.428  1.00  0.00     0.120 A 
HETATM   22  C   UNL     1       9.427  29.316  55.511  1.00  0.00     0.036 A 
BRANCH  19  23
HETATM   23  O   UNL     1       8.491  29.818  59.484  1.00  0.00    -0.329 OA
BRANCH  23  24
HETATM   24  C   UNL     1       9.213  30.823  60.225  1.00  0.00     0.130 C 
HETATM   25  C   UNL     1       8.441  32.118  60.588  1.00  0.00     0.032 C 
HETATM   26  C   UNL     1       9.129  32.073  61.964  1.00  0.00     0.005 C 
HETATM   27  C   UNL     1       9.300  30.558  61.752  1.00  0.00     0.032 C 
ENDBRANCH  23  24
ENDBRANCH  19  23
ENDBRANCH   2  17
TORSDOF 6
ENDMDL
MODEL 5
REMARK VINA RESULT:      -8.2      3.003      9.064
REMARK  6 active torsions:
REMARK  status: ('A' for Active; 'I' for Inactive)
REMARK    1  A    between atoms: C_2  and  N_3 
REMARK       I    between atoms: N_3  and  C_4 
REMARK    2  A    between atoms: C_4  and  C_5 
REMARK    3  A    between atoms: C_6  and  N_7 
REMARK       I    between atoms: N_7  and  C_8 
REMARK    4  A    between atoms: C_8  and  C_9 
REMARK    5  A    between atoms: C_11  and  O_12 
REMARK    6  A    between atoms: O_12  and  C_13 
ROOT
HETATM    1  N   UNL     1       7.620  31.278  60.675  1.00  0.00    -0.322 N 
HETATM    2  C   UNL     1       8.524  31.543  59.661  1.00  0.00     0.256 C 
HETATM    3  O   UNL     1       9.102  32.608  59.476  1.00  0.00    -0.267 OA
HETATM    4  H   UNL     1       7.089  30.415  60.621  1.00  0.00     0.169 HD
ENDROOT
BRANCH   1   5
HETATM    5  C   UNL     1       7.314  32.103  61.793  1.00  0.00     0.050 A 
HETATM    6  C   UNL     1       6.100  32.823  61.821  1.00  0.00     0.058 A 
HETATM    7  C   UNL     1       5.730  33.569  62.951  1.00  0.00     0.019 A 
HETATM    8  C   UNL     1       6.577  33.637  64.054  1.00  0.00     0.001 A 
HETATM    9  C   UNL     1       7.788  32.952  64.031  1.00  0.00     0.002 A 
HETATM   10  C   UNL     1       8.149  32.189  62.913  1.00  0.00     0.030 A 
BRANCH   6  11
HETATM   11  C   UNL     1       5.148  32.847  60.681  1.00  0.00     0.253 C 
HETATM   12  N   UNL     1       4.337  31.733  60.560  1.00  0.00    -0.357 N 
HETATM   13  H   UNL     1       4.621  30.902  61.071  1.00  0.00     0.162 HD
HETATM   14  O   UNL     1       5.137  33.790  59.901  1.00  0.00    -0.268 OA
BRANCH  12  15
HETATM   15  C   UNL     1       3.520  31.539  59.377  1.00  0.00     0.118 C 
HETATM   16  C   UNL     1       4.286  30.870  58.250  1.00  0.00     0.026 C 
ENDBRANCH  12  15
ENDBRANCH   6  11
ENDBRANCH   1   5
BRANCH   2  17
HETATM   17  C   UNL     1       8.777  30.437  58.691  1.00  0.00     0.037 A 
HETATM   18  C   UNL     1       7.768  29.489  58.509  1.00  0.00     0.075 A 
HETATM   19  C   UNL     1       7.970  28.488  57.581  1.00  0.00     0.165 A 
HETATM   20  N   UNL     1       9.092  28.362  56.843  1.00  0.00    -0.237 NA
HETATM   21  C   UNL     1      10.048  29.297  57.027  1.00  0.00     0.120 A 
HETATM   22  C   UNL     1       9.940  30.348  57.924  1.00  0.00     0.036 A 
BRANCH  19  23
HETATM   23  O   UNL     1       6.937  27.587  57.409  1.00  0.00    -0.329 OA
BRANCH  23  24
HETATM   24  C   UNL     1       7.255  26.373  56.697  1.00  0.00     0.130 C 
HETATM   25  C   UNL     1       6.406  25.119  57.034  1.00  0.00     0.032 C 
HETATM   26  C   UNL     1       6.407  24.788  55.531  1.00  0.00     0.005 C 
HETATM   27  C   UNL     1       6.650  26.286  55.271  1.00  0.00     0.032 C 
ENDBRANCH  23  24
ENDBRANCH  19  23
ENDBRANCH   2  17
TORSDOF 6
ENDMDL
MODEL 6
REMARK VINA RESULT:      -8.1      4.984      7.873
REMARK  6 active torsions:
REMARK  status: ('A' for Active; 'I' for Inactive)
REMARK    1  A    between atoms: C_2  and  N_3 
REMARK       I    between atoms: N_3  and  C_4 
REMARK    2  A    between atoms: C_4  and  C_5 
REMARK    3  A    between atoms: C_6  and  N_7 
REMARK       I    between atoms: N_7  and  C_8 
REMARK    4  A    between atoms: C_8  and  C_9 
REMARK    5  A    between atoms: C_11  and  O_12 
REMARK    6  A    between atoms: O_12  and  C_13 
ROOT
HETATM    1  N   UNL     1       6.179  30.972  59.091  1.00  0.00    -0.322 N 
HETATM    2  C   UNL     1       5.676  32.259  59.009  1.00  0.00     0.256 C 
HETATM    3  O   UNL     1       5.959  33.086  58.149  1.00  0.00    -0.267 OA
HETATM    4  H   UNL     1       5.994  30.446  59.939  1.00  0.00     0.169 HD
ENDROOT
BRANCH   1   5
HETATM    5  C   UNL     1       6.971  30.294  58.124  1.00  0.00     0.050 A 
HETATM    6  C   UNL     1       8.379  30.367  58.196  1.00  0.00     0.058 A 
HETATM    7  C   UNL     1       9.185  29.632  57.312  1.00  0.00     0.019 A 
HETATM    8  C   UNL     1       8.602  28.842  56.325  1.00  0.00     0.001 A 
HETATM    9  C   UNL     1       7.216  28.779  56.227  1.00  0.00     0.002 A 
HETATM   10  C   UNL     1       6.409  29.494  57.122  1.00  0.00     0.030 A 
BRANCH   6  11
HETATM   11  C   UNL     1       9.096  31.211  59.186  1.00  0.00     0.253 C 
HETATM   12  N   UNL     1       9.172  30.692  60.465  1.00  0.00    -0.357 N 
HETATM   13  H   UNL     1       8.534  29.935  60.691  1.00  0.00     0.162 HD
HETATM   14  O   UNL     1       9.542  32.304  58.863  1.00  0.00    -0.268 OA
BRANCH  12  15
HETATM   15  C   UNL     1       9.655  31.504  61.565  1.00  0.00     0.118 C 
HETATM   16  C   UNL     1       8.523  32.079  62.398  1.00  0.00     0.026 C 
ENDBRANCH  12  15
ENDBRANCH   6  11
ENDBRANCH   1   5
BRANCH   2  17
HETATM   17  C   UNL     1       4.735  32.675  60.091  1.00  0.00     0.037 A 
HETATM   18  C   UNL     1       5.099  32.396  61.410  1.00  0.00     0.075 A 
HETATM   19  C   UNL     1       4.261  32.817  62.423  1.00  0.00     0.165 A 
HETATM   20  N   UNL     1       3.103  33.475  62.215  1.00  0.00    -0.237 NA
HETATM   21  C   UNL     1       2.779  33.745  60.933  1.00  0.00     0.120 A 
HETATM   22  C   UNL     1       3.553  33.377  59.845  1.00  0.00     0.036 A 
BRANCH  19  23
HETATM   23  O   UNL     1       4.670  32.548  63.715  1.00  0.00    -0.329 OA
BRANCH  23  24
HETATM   24  C   UNL     1       5.198  33.661  64.466  1.00  0.00     0.130 C 
HETATM   25  C   UNL     1       4.740  33.791  65.943  1.00  0.00     0.032 C 
HETATM   26  C   UNL     1       6.184  34.192  66.293  1.00  0.00     0.005 C 
HETATM   27  C   UNL     1       6.629  33.438  65.026  1.00  0.00     0.032 C 
ENDBRANCH  23  24
ENDBRANCH  19  23
ENDBRANCH   2  17
TORSDOF 6
ENDMDL
MODEL 7
REMARK VINA RESULT:      -8.1      3.682      7.955
REMARK  6 active torsions:
REMARK  status: ('A' for Active; 'I' for Inactive)
REMARK    1  A    between atoms: C_2  and  N_3 
REMARK       I    between atoms: N_3  and  C_4 
REMARK    2  A    between atoms: C_4  and  C_5 
REMARK    3  A    between atoms: C_6  and  N_7 
REMARK       I    between atoms: N_7  and  C_8 
REMARK    4  A    between atoms: C_8  and  C_9 
REMARK    5  A    between atoms: C_11  and  O_12 
REMARK    6  A    between atoms: O_12  and  C_13 
ROOT
HETATM    1  N   UNL     1       7.203  26.174  53.982  1.00  0.00    -0.322 N 
HETATM    2  C   UNL     1       5.924  26.182  53.454  1.00  0.00     0.256 C 
HETATM    3  O   UNL     1       4.976  25.519  53.860  1.00  0.00    -0.267 OA
HETATM    4  H   UNL     1       7.935  26.640  53.455  1.00  0.00     0.169 HD
ENDROOT
BRANCH   1   5
HETATM    5  C   UNL     1       7.634  25.547  55.184  1.00  0.00     0.050 A 
HETATM    6  C   UNL     1       8.073  24.206  55.157  1.00  0.00     0.058 A 
HETATM    7  C   UNL     1       8.592  23.594  56.309  1.00  0.00     0.019 A 
HETATM    8  C   UNL     1       8.649  24.296  57.510  1.00  0.00     0.001 A 
HETATM    9  C   UNL     1       8.197  25.610  57.558  1.00  0.00     0.002 A 
HETATM   10  C   UNL     1       7.699  26.231  56.405  1.00  0.00     0.030 A 
BRANCH   6  11
HETATM   11  C   UNL     1       8.017  23.361  53.937  1.00  0.00     0.253 C 
HETATM   12  N   UNL     1       7.625  22.051  54.138  1.00  0.00    -0.357 N 
HETATM   13  H   UNL     1       7.660  21.703  55.092  1.00  0.00     0.162 HD
HETATM   14  O   UNL     1       8.342  23.819  52.849  1.00  0.00    -0.268 OA
BRANCH  12  15
HETATM   15  C   UNL     1       7.733  21.074  53.072  1.00  0.00     0.118 C 
HETATM   16  C   UNL     1       8.955  20.186  53.223  1.00  0.00     0.026 C 
ENDBRANCH  12  15
ENDBRANCH   6  11
ENDBRANCH   1   5
BRANCH   2  17
HETATM   17  C   UNL     1       5.704  27.052  52.261  1.00  0.00     0.037 A 
HETATM   18  C   UNL     1       5.383  26.429  51.053  1.00  0.00     0.075 A 
HETATM   19  C   UNL     1       5.131  27.225  49.953  1.00  0.00     0.165 A 
HETATM   20  N   UNL     1       5.186  28.573  49.972  1.00  0.00    -0.237 NA
HETATM   21  C   UNL     1       5.485  29.152  51.154  1.00  0.00     0.120 A 
HETATM   22  C   UNL     1       5.745  28.447  52.318  1.00  0.00     0.036 A 
BRANCH  19  23
HETATM   23  O   UNL     1       4.788  26.573  48.785  1.00  0.00    -0.329 OA
BRANCH  23  24
HETATM   24  C   UNL     1       3.381  26.508  48.474  1.00  0.00     0.130 C 
HETATM   25  C   UNL     1       2.839  27.543  47.453  1.00  0.00     0.032 C 
HETATM   26  C   UNL     1       1.977  26.415  46.859  1.00  0.00     0.005 C 
HETATM   27  C   UNL     1       3.001  25.421  47.434  1.00  0.00     0.032 C 
ENDBRANCH  23  24
ENDBRANCH  19  23
ENDBRANCH   2  17
TORSDOF 6
ENDMDL
MODEL 8
REMARK VINA RESULT:      -8.0      2.545      8.531
REMARK  6 active torsions:
REMARK  status: ('A' for Active; 'I' for Inactive)
REMARK    1  A    between atoms: C_2  and  N_3 
REMARK       I    between atoms: N_3  and  C_4 
REMARK    2  A    between atoms: C_4  and  C_5 
REMARK    3  A    between atoms: C_6  and  N_7 
REMARK       I    between atoms: N_7  and  C_8 
REMARK    4  A    between atoms: C_8  and  C_9 
REMARK    5  A    between atoms: C_11  and  O_12 
REMARK    6  A    between atoms: O_12  and  C_13 
ROOT
HETATM    1  N   UNL     1       7.698  30.618  58.173  1.00  0.00    -0.322 N 
HETATM    2  C   UNL     1       7.565  29.292  57.800  1.00  0.00     0.256 C 
HETATM    3  O   UNL     1       7.905  28.322  58.468  1.00  0.00    -0.267 OA
HETATM    4  H   UNL     1       7.532  31.326  57.465  1.00  0.00     0.169 HD
ENDROOT
BRANCH   1   5
HETATM    5  C   UNL     1       8.082  31.120  59.447  1.00  0.00     0.050 A 
HETATM    6  C   UNL     1       7.179  31.913  60.189  1.00  0.00     0.058 A 
HETATM    7  C   UNL     1       7.495  32.341  61.488  1.00  0.00     0.019 A 
HETATM    8  C   UNL     1       8.726  32.017  62.052  1.00  0.00     0.001 A 
HETATM    9  C   UNL     1       9.635  31.259  61.323  1.00  0.00     0.002 A 
HETATM   10  C   UNL     1       9.314  30.810  60.036  1.00  0.00     0.030 A 
BRANCH   6  11
HETATM   11  C   UNL     1       5.859  32.344  59.661  1.00  0.00     0.253 C 
HETATM   12  N   UNL     1       4.767  31.998  60.436  1.00  0.00    -0.357 N 
HETATM   13  H   UNL     1       4.912  31.277  61.137  1.00  0.00     0.162 HD
HETATM   14  O   UNL     1       5.780  32.930  58.589  1.00  0.00    -0.268 OA
BRANCH  12  15
HETATM   15  C   UNL     1       3.418  32.172  59.931  1.00  0.00     0.118 C 
HETATM   16  C   UNL     1       2.792  33.475  60.395  1.00  0.00     0.026 C 
ENDBRANCH  12  15
ENDBRANCH   6  11
ENDBRANCH   1   5
BRANCH   2  17
HETATM   17  C   UNL     1       6.991  29.037  56.446  1.00  0.00     0.037 A 
HETATM   18  C   UNL     1       7.699  28.193  55.588  1.00  0.00     0.075 A 
HETATM   19  C   UNL     1       7.155  27.912  54.351  1.00  0.00     0.165 A 
HETATM   20  N   UNL     1       5.981  28.413  53.914  1.00  0.00    -0.237 NA
HETATM   21  C   UNL     1       5.309  29.215  54.766  1.00  0.00     0.120 A 
HETATM   22  C   UNL     1       5.760  29.552  56.032  1.00  0.00     0.036 A 
BRANCH  19  23
HETATM   23  O   UNL     1       7.871  27.051  53.543  1.00  0.00    -0.329 OA
BRANCH  23  24
HETATM   24  C   UNL     1       7.266  25.770  53.273  1.00  0.00     0.130 C 
HETATM   25  C   UNL     1       7.814  24.976  52.058  1.00  0.00     0.032 C 
HETATM   26  C   UNL     1       7.698  23.702  52.913  1.00  0.00     0.005 C 
HETATM   27  C   UNL     1       7.798  24.608  54.154  1.00  0.00     0.032 C 
ENDBRANCH  23  24
ENDBRANCH  19  23
ENDBRANCH   2  17
TORSDOF 6
ENDMDL
MODEL 9
REMARK VINA RESULT:      -8.0      2.124      7.846
REMARK  6 active torsions:
REMARK  status: ('A' for Active; 'I' for Inactive)
REMARK    1  A    between atoms: C_2  and  N_3 
REMARK       I    between atoms: N_3  and  C_4 
REMARK    2  A    between atoms: C_4  and  C_5 
REMARK    3  A    between atoms: C_6  and  N_7 
REMARK       I    between atoms: N_7  and  C_8 
REMARK    4  A    between atoms: C_8  and  C_9 
REMARK    5  A    between atoms: C_11  and  O_12 
REMARK    6  A    between atoms: O_12  and  C_13 
ROOT
HETATM    1  N   UNL     1       6.101  27.898  55.567  1.00  0.00    -0.322 N 
HETATM    2  C   UNL     1       5.903  26.529  55.598  1.00  0.00     0.256 C 
HETATM    3  O   UNL     1       5.202  25.924  56.403  1.00  0.00    -0.267 OA
HETATM    4  H   UNL     1       6.830  28.256  54.959  1.00  0.00     0.169 HD
ENDROOT
BRANCH   1   5
HETATM    5  C   UNL     1       5.414  28.886  56.326  1.00  0.00     0.050 A 
HETATM    6  C   UNL     1       6.085  29.559  57.371  1.00  0.00     0.058 A 
HETATM    7  C   UNL     1       5.461  30.602  58.073  1.00  0.00     0.019 A 
HETATM    8  C   UNL     1       4.152  30.967  57.770  1.00  0.00     0.001 A 
HETATM    9  C   UNL     1       3.471  30.296  56.760  1.00  0.00     0.002 A 
HETATM   10  C   UNL     1       4.098  29.269  56.042  1.00  0.00     0.030 A 
BRANCH   6  11
HETATM   11  C   UNL     1       7.466  29.218  57.796  1.00  0.00     0.253 C 
HETATM   12  N   UNL     1       8.390  30.242  57.693  1.00  0.00    -0.357 N 
HETATM   13  H   UNL     1       8.132  31.034  57.111  1.00  0.00     0.162 HD
HETATM   14  O   UNL     1       7.739  28.085  58.170  1.00  0.00    -0.268 OA
BRANCH  12  15
HETATM   15  C   UNL     1       9.805  29.982  57.873  1.00  0.00     0.118 C 
HETATM   16  C   UNL     1      10.515  29.713  56.558  1.00  0.00     0.026 C 
ENDBRANCH  12  15
ENDBRANCH   6  11
ENDBRANCH   1   5
BRANCH   2  17
HETATM   17  C   UNL     1       6.644  25.727  54.581  1.00  0.00     0.037 A 
HETATM   18  C   UNL     1       6.745  24.349  54.787  1.00  0.00     0.075 A 
HETATM   19  C   UNL     1       7.388  23.590  53.830  1.00  0.00     0.165 A 
HETATM   20  N   UNL     1       7.934  24.101  52.708  1.00  0.00    -0.237 NA
HETATM   21  C   UNL     1       7.812  25.432  52.524  1.00  0.00     0.120 A 
HETATM   22  C   UNL     1       7.178  26.282  53.416  1.00  0.00     0.036 A 
BRANCH  19  23
HETATM   23  O   UNL     1       7.442  22.229  54.056  1.00  0.00    -0.329 OA
BRANCH  23  24
HETATM   24  C   UNL     1       7.926  21.810  55.348  1.00  0.00     0.130 C 
HETATM   25  C   UNL     1       7.659  20.338  55.755  1.00  0.00     0.032 C 
HETATM   26  C   UNL     1       9.077  20.307  56.352  1.00  0.00     0.005 C 
HETATM   27  C   UNL     1       9.435  21.449  55.384  1.00  0.00     0.032 C 
ENDBRANCH  23  24
ENDBRANCH  19  23
ENDBRANCH   2  17
TORSDOF 6
ENDMDL
MODEL 10
REMARK VINA RESULT:      -7.9      2.882      5.063
REMARK  6 active torsions:
REMARK  status: ('A' for Active; 'I' for Inactive)
REMARK    1  A    between atoms: C_2  and  N_3 
REMARK       I    between atoms: N_3  and  C_4 
REMARK    2  A    between atoms: C_4  and  C_5 
REMARK    3  A    between atoms: C_6  and  N_7 
REMARK       I    between atoms: N_7  and  C_8 
REMARK    4  A    between atoms: C_8  and  C_9 
REMARK    5  A    between atoms: C_11  and  O_12 
REMARK    6  A    between atoms: O_12  and  C_13 
ROOT
HETATM    1  N   UNL     1       6.874  24.919  53.024  1.00  0.00    -0.322 N 
HETATM    2  C   UNL     1       5.594  25.255  52.614  1.00  0.00     0.256 C 
HETATM    3  O   UNL     1       4.649  24.481  52.511  1.00  0.00    -0.267 OA
HETATM    4  H   UNL     1       7.604  25.614  52.908  1.00  0.00     0.169 HD
ENDROOT
BRANCH   1   5
HETATM    5  C   UNL     1       7.306  23.678  53.568  1.00  0.00     0.050 A 
HETATM    6  C   UNL     1       7.261  23.472  54.964  1.00  0.00     0.058 A 
HETATM    7  C   UNL     1       7.592  22.225  55.519  1.00  0.00     0.019 A 
HETATM    8  C   UNL     1       8.005  21.180  54.698  1.00  0.00     0.001 A 
HETATM    9  C   UNL     1       8.077  21.377  53.323  1.00  0.00     0.002 A 
HETATM   10  C   UNL     1       7.726  22.612  52.764  1.00  0.00     0.030 A 
BRANCH   6  11
HETATM   11  C   UNL     1       6.873  24.534  55.927  1.00  0.00     0.253 C 
HETATM   12  N   UNL     1       7.914  25.100  56.639  1.00  0.00    -0.357 N 
HETATM   13  H   UNL     1       8.792  24.590  56.650  1.00  0.00     0.162 HD
HETATM   14  O   UNL     1       5.695  24.833  56.079  1.00  0.00    -0.268 OA
BRANCH  12  15
HETATM   15  C   UNL     1       7.649  25.990  57.754  1.00  0.00     0.118 C 
HETATM   16  C   UNL     1       7.907  27.445  57.404  1.00  0.00     0.026 C 
ENDBRANCH  12  15
ENDBRANCH   6  11
ENDBRANCH   1   5
BRANCH   2  17
HETATM   17  C   UNL     1       5.372  26.680  52.230  1.00  0.00     0.037 A 
HETATM   18  C   UNL     1       5.103  27.593  53.251  1.00  0.00     0.075 A 
HETATM   19  C   UNL     1       4.942  28.922  52.914  1.00  0.00     0.165 A 
HETATM   20  N   UNL     1       5.020  29.393  51.653  1.00  0.00    -0.237 NA
HETATM   21  C   UNL     1       5.294  28.493  50.685  1.00  0.00     0.120 A 
HETATM   22  C   UNL     1       5.483  27.140  50.916  1.00  0.00     0.036 A 
BRANCH  19  23
HETATM   23  O   UNL     1       4.706  29.799  53.955  1.00  0.00    -0.329 OA
BRANCH  23  24
HETATM   24  C   UNL     1       5.060  29.338  55.276  1.00  0.00     0.130 C 
HETATM   25  C   UNL     1       5.812  30.340  56.190  1.00  0.00     0.032 C 
HETATM   26  C   UNL     1       4.950  29.831  57.358  1.00  0.00     0.005 C 
HETATM   27  C   UNL     1       3.905  29.404  56.311  1.00  0.00     0.032 C 
ENDBRANCH  23  24
ENDBRANCH  19  23
ENDBRANCH   2  17
TORSDOF 6
ENDMDL
