MODEL 1
REMARK VINA RESULT:      -9.9      0.000      0.000
REMARK  5 active torsions:
REMARK  status: ('A' for Active; 'I' for Inactive)
REMARK    1  A    between atoms: C_2  and  N_3 
REMARK    2  A    between atoms: C_2  and  C_16 
REMARK    3  A    between atoms: N_3  and  C_6 
REMARK    4  A    between atoms: C_6  and  C_7 
REMARK    5  A    between atoms: C_19  and  C_20 
ROOT
HETATM    1  C   UNL     1       5.062  27.460  56.117  1.00  0.00     0.049 C 
HETATM    2  C   UNL     1       6.513  27.153  55.756  1.00  0.00     0.260 C 
ENDROOT
BRANCH   2   3
HETATM    3  N   UNL     1       7.323  27.235  57.025  1.00  0.00    -0.060 N 
HETATM    4  H   UNL     1       7.051  26.465  57.655  1.00  0.00     0.278 HD
HETATM    5  H   UNL     1       8.322  27.096  56.821  1.00  0.00     0.278 HD
BRANCH   3   6
HETATM    6  C   UNL     1       7.171  28.498  57.809  1.00  0.00     0.274 C 
BRANCH   6   7
HETATM    7  C   UNL     1       8.424  29.314  57.771  1.00  0.00     0.004 A 
HETATM    8  C   UNL     1       8.544  30.482  58.510  1.00  0.00     0.113 A 
HETATM    9  C   UNL     1       9.677  31.260  58.483  1.00  0.00     0.105 A 
HETATM   10  O   UNL     1       7.597  30.977  59.360  1.00  0.00    -0.322 OA
HETATM   11  O   UNL     1       9.580  32.348  59.288  1.00  0.00    -0.323 OA
HETATM   12  C   UNL     1      10.767  30.919  57.716  1.00  0.00     0.040 A 
HETATM   13  C   UNL     1       8.237  32.214  59.782  1.00  0.00     0.352 A 
HETATM   14  C   UNL     1      10.685  29.752  56.951  1.00  0.00     0.003 A 
HETATM   15  C   UNL     1       9.523  28.957  56.974  1.00  0.00     0.012 A 
ENDBRANCH   6   7
ENDBRANCH   3   6
ENDBRANCH   2   3
BRANCH   2  16
HETATM   16  C   UNL     1       6.616  25.848  55.041  1.00  0.00     0.203 A 
HETATM   17  O   UNL     1       5.858  25.701  53.920  1.00  0.00    -0.194 OA
HETATM   18  N   UNL     1       6.076  24.409  53.465  1.00  0.00    -0.106 NA
HETATM   19  C   UNL     1       6.964  23.896  54.334  1.00  0.00     0.189 A 
HETATM   20  N   UNL     1       7.290  24.770  55.357  1.00  0.00    -0.202 NA
BRANCH  19  21
HETATM   21  C   UNL     1       7.536  22.559  54.236  1.00  0.00     0.017 A 
HETATM   22  C   UNL     1       7.802  21.822  55.398  1.00  0.00     0.057 A 
HETATM   23  C   UNL     1       8.361  20.552  55.305  1.00  0.00     0.117 A 
HETATM   24  F   UNL     1       8.615  19.864  56.425  1.00  0.00    -0.206 F 
HETATM   25  C   UNL     1       8.664  19.989  54.071  1.00  0.00     0.042 A 
HETATM   26  C   UNL     1       8.402  20.709  52.908  1.00  0.00     0.004 A 
HETATM   27  C   UNL     1       7.842  21.988  52.990  1.00  0.00     0.016 A 
ENDBRANCH  19  21
ENDBRANCH   2  16
TORSDOF 5
ENDMDL
MODEL 2
REMARK VINA RESULT:      -9.6      3.274      8.470
REMARK  5 active torsions:
REMARK  status: ('A' for Active; 'I' for Inactive)
REMARK    1  A    between atoms: C_2  and  N_3 
REMARK    2  A    between atoms: C_2  and  C_16 
REMARK    3  A    between atoms: N_3  and  C_6 
REMARK    4  A    between atoms: C_6  and  C_7 
REMARK    5  A    between atoms: C_19  and  C_20 
ROOT
HETATM    1  C   UNL     1       6.065  26.827  53.489  1.00  0.00     0.049 C 
HETATM    2  C   UNL     1       5.940  26.132  54.842  1.00  0.00     0.260 C 
ENDROOT
BRANCH   2   3
HETATM    3  N   UNL     1       6.238  24.669  54.630  1.00  0.00    -0.060 N 
HETATM    4  H   UNL     1       6.244  24.186  55.541  1.00  0.00     0.278 HD
HETATM    5  H   UNL     1       5.489  24.228  54.080  1.00  0.00     0.278 HD
BRANCH   3   6
HETATM    6  C   UNL     1       7.547  24.363  53.978  1.00  0.00     0.274 C 
BRANCH   6   7
HETATM    7  C   UNL     1       7.848  22.898  54.027  1.00  0.00     0.004 A 
HETATM    8  C   UNL     1       8.055  22.248  55.235  1.00  0.00     0.113 A 
HETATM    9  C   UNL     1       8.348  20.906  55.309  1.00  0.00     0.105 A 
HETATM   10  O   UNL     1       7.964  22.827  56.467  1.00  0.00    -0.322 OA
HETATM   11  O   UNL     1       8.502  20.479  56.588  1.00  0.00    -0.323 OA
HETATM   12  C   UNL     1       8.450  20.127  54.179  1.00  0.00     0.040 A 
HETATM   13  C   UNL     1       8.338  21.706  57.317  1.00  0.00     0.352 A 
HETATM   14  C   UNL     1       8.254  20.746  52.942  1.00  0.00     0.003 A 
HETATM   15  C   UNL     1       7.958  22.120  52.864  1.00  0.00     0.012 A 
ENDBRANCH   6   7
ENDBRANCH   3   6
ENDBRANCH   2   3
BRANCH   2  16
HETATM   16  C   UNL     1       6.804  26.796  55.860  1.00  0.00     0.203 A 
HETATM   17  O   UNL     1       6.963  26.147  57.047  1.00  0.00    -0.194 OA
HETATM   18  N   UNL     1       7.750  26.967  57.841  1.00  0.00    -0.106 NA
HETATM   19  C   UNL     1       8.019  28.027  57.059  1.00  0.00     0.189 A 
HETATM   20  N   UNL     1       7.403  27.960  55.821  1.00  0.00    -0.202 NA
BRANCH  19  21
HETATM   21  C   UNL     1       8.864  29.148  57.452  1.00  0.00     0.017 A 
HETATM   22  C   UNL     1       8.361  30.143  58.300  1.00  0.00     0.057 A 
HETATM   23  C   UNL     1       9.163  31.220  58.663  1.00  0.00     0.117 A 
HETATM   24  F   UNL     1       8.664  32.166  59.469  1.00  0.00    -0.206 F 
HETATM   25  C   UNL     1      10.469  31.332  58.201  1.00  0.00     0.042 A 
HETATM   26  C   UNL     1      10.983  30.349  57.359  1.00  0.00     0.004 A 
HETATM   27  C   UNL     1      10.184  29.263  56.986  1.00  0.00     0.016 A 
ENDBRANCH  19  21
ENDBRANCH   2  16
TORSDOF 5
ENDMDL
MODEL 3
REMARK VINA RESULT:      -9.5      1.610      1.946
REMARK  5 active torsions:
REMARK  status: ('A' for Active; 'I' for Inactive)
REMARK    1  A    between atoms: C_2  and  N_3 
REMARK    2  A    between atoms: C_2  and  C_16 
REMARK    3  A    between atoms: N_3  and  C_6 
REMARK    4  A    between atoms: C_6  and  C_7 
REMARK    5  A    between atoms: C_19  and  C_20 
ROOT
HETATM    1  C   UNL     1       5.917  28.445  53.012  1.00  0.00     0.049 C 
HETATM    2  C   UNL     1       7.110  27.895  53.787  1.00  0.00     0.260 C 
ENDROOT
BRANCH   2   3
HETATM    3  N   UNL     1       7.353  28.813  54.958  1.00  0.00    -0.060 N 
HETATM    4  H   UNL     1       7.883  29.639  54.641  1.00  0.00     0.278 HD
HETATM    5  H   UNL     1       6.460  29.171  55.323  1.00  0.00     0.278 HD
BRANCH   3   6
HETATM    6  C   UNL     1       8.126  28.224  56.094  1.00  0.00     0.274 C 
BRANCH   6   7
HETATM    7  C   UNL     1       8.867  29.280  56.851  1.00  0.00     0.004 A 
HETATM    8  C   UNL     1       8.196  30.196  57.648  1.00  0.00     0.113 A 
HETATM    9  C   UNL     1       8.850  31.186  58.344  1.00  0.00     0.105 A 
HETATM   10  O   UNL     1       6.849  30.213  57.867  1.00  0.00    -0.322 OA
HETATM   11  O   UNL     1       8.001  31.962  59.064  1.00  0.00    -0.323 OA
HETATM   12  C   UNL     1      10.218  31.323  58.289  1.00  0.00     0.040 A 
HETATM   13  C   UNL     1       6.729  31.399  58.702  1.00  0.00     0.352 A 
HETATM   14  C   UNL     1      10.930  30.422  57.492  1.00  0.00     0.003 A 
HETATM   15  C   UNL     1      10.262  29.411  56.776  1.00  0.00     0.012 A 
ENDBRANCH   6   7
ENDBRANCH   3   6
ENDBRANCH   2   3
BRANCH   2  16
HETATM   16  C   UNL     1       6.889  26.468  54.158  1.00  0.00     0.203 A 
HETATM   17  O   UNL     1       5.757  26.185  54.861  1.00  0.00    -0.194 OA
HETATM   18  N   UNL     1       5.794  24.826  55.134  1.00  0.00    -0.106 NA
HETATM   19  C   UNL     1       6.929  24.401  54.552  1.00  0.00     0.189 A 
HETATM   20  N   UNL     1       7.654  25.422  53.965  1.00  0.00    -0.202 NA
BRANCH  19  21
HETATM   21  C   UNL     1       7.376  23.013  54.533  1.00  0.00     0.017 A 
HETATM   22  C   UNL     1       7.687  22.393  53.316  1.00  0.00     0.057 A 
HETATM   23  C   UNL     1       8.099  21.064  53.297  1.00  0.00     0.117 A 
HETATM   24  F   UNL     1       8.386  20.484  52.125  1.00  0.00    -0.206 F 
HETATM   25  C   UNL     1       8.213  20.330  54.471  1.00  0.00     0.042 A 
HETATM   26  C   UNL     1       7.910  20.935  55.689  1.00  0.00     0.004 A 
HETATM   27  C   UNL     1       7.492  22.270  55.719  1.00  0.00     0.016 A 
ENDBRANCH  19  21
ENDBRANCH   2  16
TORSDOF 5
ENDMDL
MODEL 4
REMARK VINA RESULT:      -9.4      4.650      7.587
REMARK  5 active torsions:
REMARK  status: ('A' for Active; 'I' for Inactive)
REMARK    1  A    between atoms: C_2  and  N_3 
REMARK    2  A    between atoms: C_2  and  C_16 
REMARK    3  A    between atoms: N_3  and  C_6 
REMARK    4  A    between atoms: C_6  and  C_7 
REMARK    5  A    between atoms: C_19  and  C_20 
ROOT
HETATM    1  C   UNL     1       4.840  28.339  53.956  1.00  0.00     0.049 C 
HETATM    2  C   UNL     1       4.510  26.935  53.459  1.00  0.00     0.260 C 
ENDROOT
BRANCH   2   3
HETATM    3  N   UNL     1       4.261  27.026  51.975  1.00  0.00    -0.060 N 
HETATM    4  H   UNL     1       3.892  26.126  51.633  1.00  0.00     0.278 HD
HETATM    5  H   UNL     1       3.533  27.725  51.776  1.00  0.00     0.278 HD
BRANCH   3   6
HETATM    6  C   UNL     1       5.458  27.338  51.136  1.00  0.00     0.274 C 
BRANCH   6   7
HETATM    7  C   UNL     1       5.059  27.897  49.807  1.00  0.00     0.004 A 
HETATM    8  C   UNL     1       4.368  27.126  48.882  1.00  0.00     0.113 A 
HETATM    9  C   UNL     1       4.002  27.608  47.647  1.00  0.00     0.105 A 
HETATM   10  O   UNL     1       3.947  25.844  49.083  1.00  0.00    -0.322 OA
HETATM   11  O   UNL     1       3.329  26.689  46.910  1.00  0.00    -0.323 OA
HETATM   12  C   UNL     1       4.299  28.894  47.258  1.00  0.00     0.040 A 
HETATM   13  C   UNL     1       3.362  25.548  47.784  1.00  0.00     0.352 A 
HETATM   14  C   UNL     1       4.999  29.701  48.159  1.00  0.00     0.003 A 
HETATM   15  C   UNL     1       5.379  29.208  49.422  1.00  0.00     0.012 A 
ENDBRANCH   6   7
ENDBRANCH   3   6
ENDBRANCH   2   3
BRANCH   2  16
HETATM   16  C   UNL     1       5.578  25.970  53.847  1.00  0.00     0.203 A 
HETATM   17  O   UNL     1       6.711  26.495  54.391  1.00  0.00    -0.194 OA
HETATM   18  N   UNL     1       7.568  25.428  54.618  1.00  0.00    -0.106 NA
HETATM   19  C   UNL     1       6.871  24.351  54.217  1.00  0.00     0.189 A 
HETATM   20  N   UNL     1       5.631  24.670  53.693  1.00  0.00    -0.202 NA
BRANCH  19  21
HETATM   21  C   UNL     1       7.352  22.978  54.309  1.00  0.00     0.017 A 
HETATM   22  C   UNL     1       7.677  22.269  53.145  1.00  0.00     0.057 A 
HETATM   23  C   UNL     1       8.122  20.953  53.232  1.00  0.00     0.117 A 
HETATM   24  F   UNL     1       8.422  20.288  52.110  1.00  0.00    -0.206 F 
HETATM   25  C   UNL     1       8.254  20.319  54.461  1.00  0.00     0.042 A 
HETATM   26  C   UNL     1       7.937  21.013  55.626  1.00  0.00     0.004 A 
HETATM   27  C   UNL     1       7.487  22.335  55.551  1.00  0.00     0.016 A 
ENDBRANCH  19  21
ENDBRANCH   2  16
TORSDOF 5
ENDMDL
MODEL 5
REMARK VINA RESULT:      -9.3      1.329      2.002
REMARK  5 active torsions:
REMARK  status: ('A' for Active; 'I' for Inactive)
REMARK    1  A    between atoms: C_2  and  N_3 
REMARK    2  A    between atoms: C_2  and  C_16 
REMARK    3  A    between atoms: N_3  and  C_6 
REMARK    4  A    between atoms: C_6  and  C_7 
REMARK    5  A    between atoms: C_19  and  C_20 
ROOT
HETATM    1  C   UNL     1       4.779  28.486  55.857  1.00  0.00     0.049 C 
HETATM    2  C   UNL     1       6.048  28.197  55.061  1.00  0.00     0.260 C 
ENDROOT
BRANCH   2   3
HETATM    3  N   UNL     1       7.221  28.631  55.903  1.00  0.00    -0.060 N 
HETATM    4  H   UNL     1       7.987  27.948  55.802  1.00  0.00     0.278 HD
HETATM    5  H   UNL     1       7.593  29.528  55.562  1.00  0.00     0.278 HD
BRANCH   3   6
HETATM    6  C   UNL     1       6.954  28.755  57.368  1.00  0.00     0.274 C 
BRANCH   6   7
HETATM    7  C   UNL     1       7.784  29.839  57.980  1.00  0.00     0.004 A 
HETATM    8  C   UNL     1       9.133  29.966  57.681  1.00  0.00     0.113 A 
HETATM    9  C   UNL     1       9.924  30.943  58.240  1.00  0.00     0.105 A 
HETATM   10  O   UNL     1       9.821  29.187  56.797  1.00  0.00    -0.322 OA
HETATM   11  O   UNL     1      11.206  30.887  57.801  1.00  0.00    -0.323 OA
HETATM   12  C   UNL     1       9.415  31.858  59.133  1.00  0.00     0.040 A 
HETATM   13  C   UNL     1      11.163  29.730  56.949  1.00  0.00     0.352 A 
HETATM   14  C   UNL     1       8.062  31.761  59.465  1.00  0.00     0.003 A 
HETATM   15  C   UNL     1       7.252  30.759  58.897  1.00  0.00     0.012 A 
ENDBRANCH   6   7
ENDBRANCH   3   6
ENDBRANCH   2   3
BRANCH   2  16
HETATM   16  C   UNL     1       6.091  26.769  54.633  1.00  0.00     0.203 A 
HETATM   17  O   UNL     1       5.070  26.334  53.844  1.00  0.00    -0.194 OA
HETATM   18  N   UNL     1       5.293  24.983  53.622  1.00  0.00    -0.106 NA
HETATM   19  C   UNL     1       6.441  24.725  54.272  1.00  0.00     0.189 A 
HETATM   20  N   UNL     1       6.942  25.825  54.948  1.00  0.00    -0.202 NA
BRANCH  19  21
HETATM   21  C   UNL     1       7.108  23.429  54.286  1.00  0.00     0.017 A 
HETATM   22  C   UNL     1       7.350  22.777  55.502  1.00  0.00     0.057 A 
HETATM   23  C   UNL     1       7.999  21.546  55.515  1.00  0.00     0.117 A 
HETATM   24  F   UNL     1       8.228  20.939  56.686  1.00  0.00    -0.206 F 
HETATM   25  C   UNL     1       8.416  20.941  54.336  1.00  0.00     0.042 A 
HETATM   26  C   UNL     1       8.180  21.576  53.120  1.00  0.00     0.004 A 
HETATM   27  C   UNL     1       7.530  22.815  53.095  1.00  0.00     0.016 A 
ENDBRANCH  19  21
ENDBRANCH   2  16
TORSDOF 5
ENDMDL
MODEL 6
REMARK VINA RESULT:      -9.3      2.853      5.635
REMARK  5 active torsions:
REMARK  status: ('A' for Active; 'I' for Inactive)
REMARK    1  A    between atoms: C_2  and  N_3 
REMARK    2  A    between atoms: C_2  and  C_16 
REMARK    3  A    between atoms: N_3  and  C_6 
REMARK    4  A    between atoms: C_6  and  C_7 
REMARK    5  A    between atoms: C_19  and  C_20 
ROOT
HETATM    1  C   UNL     1       7.898  28.393  57.419  1.00  0.00     0.049 C 
HETATM    2  C   UNL     1       6.916  27.365  56.864  1.00  0.00     0.260 C 
ENDROOT
BRANCH   2   3
HETATM    3  N   UNL     1       6.450  27.862  55.519  1.00  0.00    -0.060 N 
HETATM    4  H   UNL     1       6.420  28.893  55.527  1.00  0.00     0.278 HD
HETATM    5  H   UNL     1       7.126  27.603  54.789  1.00  0.00     0.278 HD
BRANCH   3   6
HETATM    6  C   UNL     1       5.093  27.403  55.094  1.00  0.00     0.274 C 
BRANCH   6   7
HETATM    7  C   UNL     1       5.127  26.813  53.719  1.00  0.00     0.004 A 
HETATM    8  C   UNL     1       5.284  27.614  52.597  1.00  0.00     0.113 A 
HETATM    9  C   UNL     1       5.303  27.102  51.321  1.00  0.00     0.105 A 
HETATM   10  O   UNL     1       5.468  28.967  52.615  1.00  0.00    -0.322 OA
HETATM   11  O   UNL     1       5.476  28.063  50.379  1.00  0.00    -0.323 OA
HETATM   12  C   UNL     1       5.169  25.753  51.084  1.00  0.00     0.040 A 
HETATM   13  C   UNL     1       5.502  29.251  51.188  1.00  0.00     0.352 A 
HETATM   14  C   UNL     1       5.004  24.912  52.188  1.00  0.00     0.003 A 
HETATM   15  C   UNL     1       4.979  25.435  53.495  1.00  0.00     0.012 A 
ENDBRANCH   6   7
ENDBRANCH   3   6
ENDBRANCH   2   3
BRANCH   2  16
HETATM   16  C   UNL     1       7.528  26.005  56.841  1.00  0.00     0.203 A 
HETATM   17  O   UNL     1       8.459  25.735  57.798  1.00  0.00    -0.194 OA
HETATM   18  N   UNL     1       8.918  24.451  57.547  1.00  0.00    -0.106 NA
HETATM   19  C   UNL     1       8.209  24.047  56.478  1.00  0.00     0.189 A 
HETATM   20  N   UNL     1       7.354  25.022  55.993  1.00  0.00    -0.202 NA
BRANCH  19  21
HETATM   21  C   UNL     1       8.314  22.727  55.871  1.00  0.00     0.017 A 
HETATM   22  C   UNL     1       8.216  22.584  54.480  1.00  0.00     0.057 A 
HETATM   23  C   UNL     1       8.302  21.321  53.902  1.00  0.00     0.117 A 
HETATM   24  F   UNL     1       8.200  21.202  52.572  1.00  0.00    -0.206 F 
HETATM   25  C   UNL     1       8.486  20.185  54.680  1.00  0.00     0.042 A 
HETATM   26  C   UNL     1       8.587  20.312  56.063  1.00  0.00     0.004 A 
HETATM   27  C   UNL     1       8.500  21.577  56.656  1.00  0.00     0.016 A 
ENDBRANCH  19  21
ENDBRANCH   2  16
TORSDOF 5
ENDMDL
MODEL 7
REMARK VINA RESULT:      -9.1      2.101      3.164
REMARK  5 active torsions:
REMARK  status: ('A' for Active; 'I' for Inactive)
REMARK    1  A    between atoms: C_2  and  N_3 
REMARK    2  A    between atoms: C_2  and  C_16 
REMARK    3  A    between atoms: N_3  and  C_6 
REMARK    4  A    between atoms: C_6  and  C_7 
REMARK    5  A    between atoms: C_19  and  C_20 
ROOT
HETATM    1  C   UNL     1       5.221  28.837  56.577  1.00  0.00     0.049 C 
HETATM    2  C   UNL     1       6.690  28.768  56.983  1.00  0.00     0.260 C 
ENDROOT
BRANCH   2   3
HETATM    3  N   UNL     1       6.838  29.516  58.283  1.00  0.00    -0.060 N 
HETATM    4  H   UNL     1       6.019  30.128  58.421  1.00  0.00     0.278 HD
HETATM    5  H   UNL     1       6.838  28.860  59.075  1.00  0.00     0.278 HD
BRANCH   3   6
HETATM    6  C   UNL     1       8.045  30.391  58.393  1.00  0.00     0.274 C 
BRANCH   6   7
HETATM    7  C   UNL     1       8.142  31.013  59.750  1.00  0.00     0.004 A 
HETATM    8  C   UNL     1       7.152  31.861  60.225  1.00  0.00     0.113 A 
HETATM    9  C   UNL     1       7.222  32.459  61.461  1.00  0.00     0.105 A 
HETATM   10  O   UNL     1       6.000  32.176  59.563  1.00  0.00    -0.322 OA
HETATM   11  O   UNL     1       6.144  33.239  61.723  1.00  0.00    -0.323 OA
HETATM   12  C   UNL     1       8.287  32.244  62.306  1.00  0.00     0.040 A 
HETATM   13  C   UNL     1       5.408  33.125  60.493  1.00  0.00     0.352 A 
HETATM   14  C   UNL     1       9.309  31.400  61.863  1.00  0.00     0.003 A 
HETATM   15  C   UNL     1       9.241  30.791  60.595  1.00  0.00     0.012 A 
ENDBRANCH   6   7
ENDBRANCH   3   6
ENDBRANCH   2   3
BRANCH   2  16
HETATM   16  C   UNL     1       7.162  27.354  57.028  1.00  0.00     0.203 A 
HETATM   17  O   UNL     1       7.818  26.962  58.155  1.00  0.00    -0.194 OA
HETATM   18  N   UNL     1       8.201  25.645  57.948  1.00  0.00    -0.106 NA
HETATM   19  C   UNL     1       7.723  25.347  56.727  1.00  0.00     0.189 A 
HETATM   20  N   UNL     1       7.098  26.418  56.113  1.00  0.00    -0.202 NA
BRANCH  19  21
HETATM   21  C   UNL     1       7.841  24.041  56.091  1.00  0.00     0.017 A 
HETATM   22  C   UNL     1       8.374  22.959  56.805  1.00  0.00     0.057 A 
HETATM   23  C   UNL     1       8.500  21.716  56.192  1.00  0.00     0.117 A 
HETATM   24  F   UNL     1       9.018  20.694  56.885  1.00  0.00    -0.206 F 
HETATM   25  C   UNL     1       8.104  21.520  54.875  1.00  0.00     0.042 A 
HETATM   26  C   UNL     1       7.570  22.586  54.155  1.00  0.00     0.004 A 
HETATM   27  C   UNL     1       7.441  23.841  54.760  1.00  0.00     0.016 A 
ENDBRANCH  19  21
ENDBRANCH   2  16
TORSDOF 5
ENDMDL
MODEL 8
REMARK VINA RESULT:      -9.1      2.960      8.531
REMARK  5 active torsions:
REMARK  status: ('A' for Active; 'I' for Inactive)
REMARK    1  A    between atoms: C_2  and  N_3 
REMARK    2  A    between atoms: C_2  and  C_16 
REMARK    3  A    between atoms: N_3  and  C_6 
REMARK    4  A    between atoms: C_6  and  C_7 
REMARK    5  A    between atoms: C_19  and  C_20 
ROOT
HETATM    1  C   UNL     1       6.392  26.671  52.941  1.00  0.00     0.049 C 
HETATM    2  C   UNL     1       5.863  26.166  54.280  1.00  0.00     0.260 C 
ENDROOT
BRANCH   2   3
HETATM    3  N   UNL     1       6.229  24.707  54.390  1.00  0.00    -0.060 N 
HETATM    4  H   UNL     1       5.886  24.335  55.288  1.00  0.00     0.278 HD
HETATM    5  H   UNL     1       5.756  24.163  53.657  1.00  0.00     0.278 HD
BRANCH   3   6
HETATM    6  C   UNL     1       7.692  24.401  54.337  1.00  0.00     0.274 C 
BRANCH   6   7
HETATM    7  C   UNL     1       8.000  23.108  55.022  1.00  0.00     0.004 A 
HETATM    8  C   UNL     1       8.180  21.937  54.299  1.00  0.00     0.113 A 
HETATM    9  C   UNL     1       8.450  20.731  54.903  1.00  0.00     0.105 A 
HETATM   10  O   UNL     1       8.149  21.839  52.938  1.00  0.00    -0.322 OA
HETATM   11  O   UNL     1       8.597  19.723  54.006  1.00  0.00    -0.323 OA
HETATM   12  C   UNL     1       8.560  20.619  56.270  1.00  0.00     0.040 A 
HETATM   13  C   UNL     1       8.329  20.404  52.769  1.00  0.00     0.352 A 
HETATM   14  C   UNL     1       8.380  21.774  57.035  1.00  0.00     0.003 A 
HETATM   15  C   UNL     1       8.099  23.009  56.419  1.00  0.00     0.012 A 
ENDBRANCH   6   7
ENDBRANCH   3   6
ENDBRANCH   2   3
BRANCH   2  16
HETATM   16  C   UNL     1       6.361  27.013  55.401  1.00  0.00     0.203 A 
HETATM   17  O   UNL     1       5.621  27.016  56.543  1.00  0.00    -0.194 OA
HETATM   18  N   UNL     1       6.241  27.903  57.411  1.00  0.00    -0.106 NA
HETATM   19  C   UNL     1       7.314  28.340  56.729  1.00  0.00     0.189 A 
HETATM   20  N   UNL     1       7.390  27.823  55.447  1.00  0.00    -0.202 NA
BRANCH  19  21
HETATM   21  C   UNL     1       8.306  29.266  57.259  1.00  0.00     0.017 A 
HETATM   22  C   UNL     1       9.662  29.099  56.944  1.00  0.00     0.057 A 
HETATM   23  C   UNL     1      10.610  29.974  57.462  1.00  0.00     0.117 A 
HETATM   24  F   UNL     1      11.902  29.796  57.157  1.00  0.00    -0.206 F 
HETATM   25  C   UNL     1      10.241  31.026  58.292  1.00  0.00     0.042 A 
HETATM   26  C   UNL     1       8.897  31.206  58.611  1.00  0.00     0.004 A 
HETATM   27  C   UNL     1       7.935  30.329  58.098  1.00  0.00     0.016 A 
ENDBRANCH  19  21
ENDBRANCH   2  16
TORSDOF 5
ENDMDL
MODEL 9
REMARK VINA RESULT:      -9.1      4.419      6.692
REMARK  5 active torsions:
REMARK  status: ('A' for Active; 'I' for Inactive)
REMARK    1  A    between atoms: C_2  and  N_3 
REMARK    2  A    between atoms: C_2  and  C_16 
REMARK    3  A    between atoms: N_3  and  C_6 
REMARK    4  A    between atoms: C_6  and  C_7 
REMARK    5  A    between atoms: C_19  and  C_20 
ROOT
HETATM    1  C   UNL     1       5.259  28.349  54.045  1.00  0.00     0.049 C 
HETATM    2  C   UNL     1       4.789  26.955  53.641  1.00  0.00     0.260 C 
ENDROOT
BRANCH   2   3
HETATM    3  N   UNL     1       4.321  27.031  52.210  1.00  0.00    -0.060 N 
HETATM    4  H   UNL     1       3.500  26.419  52.084  1.00  0.00     0.278 HD
HETATM    5  H   UNL     1       4.002  27.984  51.988  1.00  0.00     0.278 HD
BRANCH   3   6
HETATM    6  C   UNL     1       5.321  26.614  51.179  1.00  0.00     0.274 C 
BRANCH   6   7
HETATM    7  C   UNL     1       5.120  27.358  49.897  1.00  0.00     0.004 A 
HETATM    8  C   UNL     1       5.340  28.726  49.817  1.00  0.00     0.113 A 
HETATM    9  C   UNL     1       5.149  29.438  48.656  1.00  0.00     0.105 A 
HETATM   10  O   UNL     1       5.794  29.511  50.837  1.00  0.00    -0.322 OA
HETATM   11  O   UNL     1       5.433  30.756  48.803  1.00  0.00    -0.323 OA
HETATM   12  C   UNL     1       4.727  28.827  47.498  1.00  0.00     0.040 A 
HETATM   13  C   UNL     1       5.765  30.820  50.201  1.00  0.00     0.352 A 
HETATM   14  C   UNL     1       4.488  27.451  47.537  1.00  0.00     0.003 A 
HETATM   15  C   UNL     1       4.678  26.721  48.726  1.00  0.00     0.012 A 
ENDBRANCH   6   7
ENDBRANCH   3   6
ENDBRANCH   2   3
BRANCH   2  16
HETATM   16  C   UNL     1       5.856  25.943  53.888  1.00  0.00     0.203 A 
HETATM   17  O   UNL     1       7.114  26.417  54.100  1.00  0.00    -0.194 OA
HETATM   18  N   UNL     1       7.932  25.308  54.251  1.00  0.00    -0.106 NA
HETATM   19  C   UNL     1       7.096  24.261  54.143  1.00  0.00     0.189 A 
HETATM   20  N   UNL     1       5.790  24.634  53.876  1.00  0.00    -0.202 NA
BRANCH  19  21
HETATM   21  C   UNL     1       7.497  22.867  54.282  1.00  0.00     0.017 A 
HETATM   22  C   UNL     1       7.822  22.113  53.145  1.00  0.00     0.057 A 
HETATM   23  C   UNL     1       8.191  20.778  53.278  1.00  0.00     0.117 A 
HETATM   24  F   UNL     1       8.491  20.071  52.181  1.00  0.00    -0.206 F 
HETATM   25  C   UNL     1       8.249  20.168  54.524  1.00  0.00     0.042 A 
HETATM   26  C   UNL     1       7.931  20.906  55.662  1.00  0.00     0.004 A 
HETATM   27  C   UNL     1       7.556  22.248  55.541  1.00  0.00     0.016 A 
ENDBRANCH  19  21
ENDBRANCH   2  16
TORSDOF 5
ENDMDL
MODEL 10
REMARK VINA RESULT:      -9.1      3.199      7.762
REMARK  5 active torsions:
REMARK  status: ('A' for Active; 'I' for Inactive)
REMARK    1  A    between atoms: C_2  and  N_3 
REMARK    2  A    between atoms: C_2  and  C_16 
REMARK    3  A    between atoms: N_3  and  C_6 
REMARK    4  A    between atoms: C_6  and  C_7 
REMARK    5  A    between atoms: C_19  and  C_20 
ROOT
HETATM    1  C   UNL     1       5.569  26.462  51.923  1.00  0.00     0.049 C 
HETATM    2  C   UNL     1       5.056  26.063  53.303  1.00  0.00     0.260 C 
ENDROOT
BRANCH   2   3
HETATM    3  N   UNL     1       5.519  24.653  53.569  1.00  0.00    -0.060 N 
HETATM    4  H   UNL     1       5.675  24.529  54.581  1.00  0.00     0.278 HD
HETATM    5  H   UNL     1       4.785  23.981  53.310  1.00  0.00     0.278 HD
BRANCH   3   6
HETATM    6  C   UNL     1       6.789  24.251  52.892  1.00  0.00     0.274 C 
BRANCH   6   7
HETATM    7  C   UNL     1       7.424  23.083  53.579  1.00  0.00     0.004 A 
HETATM    8  C   UNL     1       7.735  23.127  54.930  1.00  0.00     0.113 A 
HETATM    9  C   UNL     1       8.332  22.075  55.585  1.00  0.00     0.105 A 
HETATM   10  O   UNL     1       7.467  24.172  55.767  1.00  0.00    -0.322 OA
HETATM   11  O   UNL     1       8.537  22.332  56.901  1.00  0.00    -0.323 OA
HETATM   12  C   UNL     1       8.654  20.909  54.930  1.00  0.00     0.040 A 
HETATM   13  C   UNL     1       8.064  23.686  57.002  1.00  0.00     0.352 A 
HETATM   14  C   UNL     1       8.362  20.826  53.566  1.00  0.00     0.003 A 
HETATM   15  C   UNL     1       7.755  21.904  52.893  1.00  0.00     0.012 A 
ENDBRANCH   6   7
ENDBRANCH   3   6
ENDBRANCH   2   3
BRANCH   2  16
HETATM   16  C   UNL     1       5.478  27.056  54.333  1.00  0.00     0.203 A 
HETATM   17  O   UNL     1       4.510  27.873  54.831  1.00  0.00    -0.194 OA
HETATM   18  N   UNL     1       5.139  28.733  55.718  1.00  0.00    -0.106 NA
HETATM   19  C   UNL     1       6.427  28.345  55.699  1.00  0.00     0.189 A 
HETATM   20  N   UNL     1       6.672  27.316  54.807  1.00  0.00    -0.202 NA
BRANCH  19  21
HETATM   21  C   UNL     1       7.477  28.934  56.520  1.00  0.00     0.017 A 
HETATM   22  C   UNL     1       8.764  29.108  55.995  1.00  0.00     0.057 A 
HETATM   23  C   UNL     1       9.770  29.657  56.784  1.00  0.00     0.117 A 
HETATM   24  F   UNL     1      10.997  29.810  56.269  1.00  0.00    -0.206 F 
HETATM   25  C   UNL     1       9.525  30.044  58.095  1.00  0.00     0.042 A 
HETATM   26  C   UNL     1       8.249  29.880  58.630  1.00  0.00     0.004 A 
HETATM   27  C   UNL     1       7.230  29.327  57.846  1.00  0.00     0.016 A 
ENDBRANCH  19  21
ENDBRANCH   2  16
TORSDOF 5
ENDMDL
