MODEL 1
REMARK VINA RESULT:      -9.3      0.000      0.000
REMARK  4 active torsions:
REMARK  status: ('A' for Active; 'I' for Inactive)
REMARK    1  A    between atoms: C_2  and  C_3 
REMARK    2  A    between atoms: C_6  and  C_7 
REMARK    3  A    between atoms: C_10  and  N_11 
REMARK    4  A    between atoms: N_11  and  C_12 
ROOT
HETATM    1  C   UNL     1       7.407  27.372  56.410  1.00  0.00     0.076 C 
HETATM    2  C   UNL     1       6.047  27.726  56.973  1.00  0.00     0.144 C 
HETATM    3  S   UNL     1       5.889  29.471  57.386  1.00  0.00    -0.087 SA
HETATM    4  C   UNL     1       7.412  29.684  58.159  1.00  0.00     0.157 C 
HETATM    5  N   UNL     1       8.440  28.935  57.787  1.00  0.00    -0.257 N 
HETATM    6  H   UNL     1       9.322  29.175  58.230  1.00  0.00     0.191 HD
HETATM    7  N   UNL     1       8.526  27.905  56.814  1.00  0.00    -0.176 NA
ENDROOT
BRANCH   1   8
HETATM    8  C   UNL     1       7.525  26.275  55.442  1.00  0.00     0.019 A 
HETATM    9  C   UNL     1       7.817  24.880  55.678  1.00  0.00     0.005 A 
HETATM   10  C   UNL     1       7.751  24.215  54.450  1.00  0.00     0.049 A 
HETATM   11  C   UNL     1       8.118  24.112  56.826  1.00  0.00     0.014 A 
HETATM   12  C   UNL     1       7.940  22.826  54.300  1.00  0.00    -0.031 A 
HETATM   13  N   UNL     1       7.477  25.166  53.496  1.00  0.00    -0.364 N 
HETATM   14  C   UNL     1       8.242  22.109  55.470  1.00  0.00     0.009 A 
HETATM   15  C   UNL     1       8.332  22.736  56.708  1.00  0.00     0.002 A 
HETATM   16  C   UNL     1       7.331  26.397  54.076  1.00  0.00     0.102 A 
HETATM   17  H   UNL     1       7.385  24.969  52.508  1.00  0.00     0.165 HD
BRANCH  12  18
HETATM   18  C   UNL     1       7.851  22.103  52.979  1.00  0.00     0.036 C 
HETATM   19  C   UNL     1       8.296  20.653  53.093  1.00  0.00     0.010 C 
ENDBRANCH  12  18
ENDBRANCH   1   8
BRANCH   4  20
HETATM   20  N   UNL     1       7.441  30.620  59.088  1.00  0.00    -0.365 N 
HETATM   21  H   UNL     1       6.795  31.381  58.899  1.00  0.00     0.162 HD
BRANCH  20  22
HETATM   22  C   UNL     1       8.290  30.675  60.280  1.00  0.00     0.083 C 
HETATM   23  C   UNL     1       9.443  31.644  60.053  1.00  0.00     0.025 C 
HETATM   24  C   UNL     1       9.851  32.023  61.465  1.00  0.00     0.002 C 
HETATM   25  C   UNL     1       8.524  32.179  62.194  1.00  0.00     0.002 C 
HETATM   26  C   UNL     1       7.540  31.250  61.481  1.00  0.00     0.025 C 
ENDBRANCH  20  22
ENDBRANCH   4  20
TORSDOF 4
ENDMDL
MODEL 2
REMARK VINA RESULT:      -9.1      1.222      1.958
REMARK  4 active torsions:
REMARK  status: ('A' for Active; 'I' for Inactive)
REMARK    1  A    between atoms: C_2  and  C_3 
REMARK    2  A    between atoms: C_6  and  C_7 
REMARK    3  A    between atoms: C_10  and  N_11 
REMARK    4  A    between atoms: N_11  and  C_12 
ROOT
HETATM    1  C   UNL     1       7.538  26.598  56.948  1.00  0.00     0.076 C 
HETATM    2  C   UNL     1       6.091  27.003  57.129  1.00  0.00     0.144 C 
HETATM    3  S   UNL     1       5.836  28.780  56.995  1.00  0.00    -0.087 SA
HETATM    4  C   UNL     1       7.177  29.297  57.940  1.00  0.00     0.157 C 
HETATM    5  N   UNL     1       8.267  28.544  57.991  1.00  0.00    -0.257 N 
HETATM    6  H   UNL     1       9.043  28.955  58.501  1.00  0.00     0.191 HD
HETATM    7  N   UNL     1       8.551  27.294  57.382  1.00  0.00    -0.176 NA
ENDROOT
BRANCH   1   8
HETATM    8  C   UNL     1       7.855  25.286  56.370  1.00  0.00     0.019 A 
HETATM    9  C   UNL     1       7.762  24.850  54.995  1.00  0.00     0.005 A 
HETATM   10  C   UNL     1       8.242  23.539  54.929  1.00  0.00     0.049 A 
HETATM   11  C   UNL     1       7.327  25.453  53.793  1.00  0.00     0.014 A 
HETATM   12  C   UNL     1       8.341  22.802  53.731  1.00  0.00    -0.031 A 
HETATM   13  N   UNL     1       8.572  23.170  56.211  1.00  0.00    -0.364 N 
HETATM   14  C   UNL     1       7.891  23.444  52.565  1.00  0.00     0.009 A 
HETATM   15  C   UNL     1       7.392  24.741  52.592  1.00  0.00     0.002 A 
HETATM   16  C   UNL     1       8.354  24.206  57.079  1.00  0.00     0.102 A 
HETATM   17  H   UNL     1       8.937  22.261  56.464  1.00  0.00     0.165 HD
BRANCH  12  18
HETATM   18  C   UNL     1       8.877  21.393  53.653  1.00  0.00     0.036 C 
HETATM   19  C   UNL     1       7.926  20.463  52.918  1.00  0.00     0.010 C 
ENDBRANCH  12  18
ENDBRANCH   1   8
BRANCH   4  20
HETATM   20  N   UNL     1       7.015  30.453  58.555  1.00  0.00    -0.365 N 
HETATM   21  H   UNL     1       6.384  31.077  58.059  1.00  0.00     0.162 HD
BRANCH  20  22
HETATM   22  C   UNL     1       7.645  30.906  59.797  1.00  0.00     0.083 C 
HETATM   23  C   UNL     1       8.913  31.690  59.480  1.00  0.00     0.025 C 
HETATM   24  C   UNL     1       9.106  32.537  60.725  1.00  0.00     0.002 C 
HETATM   25  C   UNL     1       7.695  32.989  61.076  1.00  0.00     0.002 C 
HETATM   26  C   UNL     1       6.761  31.899  60.550  1.00  0.00     0.025 C 
ENDBRANCH  20  22
ENDBRANCH   4  20
TORSDOF 4
ENDMDL
MODEL 3
REMARK VINA RESULT:      -9.0      1.935      8.738
REMARK  4 active torsions:
REMARK  status: ('A' for Active; 'I' for Inactive)
REMARK    1  A    between atoms: C_2  and  C_3 
REMARK    2  A    between atoms: C_6  and  C_7 
REMARK    3  A    between atoms: C_10  and  N_11 
REMARK    4  A    between atoms: N_11  and  C_12 
ROOT
HETATM    1  C   UNL     1       7.576  27.063  56.373  1.00  0.00     0.076 C 
HETATM    2  C   UNL     1       7.440  27.229  54.875  1.00  0.00     0.144 C 
HETATM    3  S   UNL     1       6.426  25.952  54.115  1.00  0.00    -0.087 SA
HETATM    4  C   UNL     1       7.073  24.591  54.945  1.00  0.00     0.157 C 
HETATM    5  N   UNL     1       7.559  24.747  56.169  1.00  0.00    -0.257 N 
HETATM    6  H   UNL     1       7.846  23.886  56.624  1.00  0.00     0.191 HD
HETATM    7  N   UNL     1       7.671  25.910  56.974  1.00  0.00    -0.176 NA
ENDROOT
BRANCH   1   8
HETATM    8  C   UNL     1       7.746  28.250  57.220  1.00  0.00     0.019 A 
HETATM    9  C   UNL     1       8.915  29.078  57.403  1.00  0.00     0.005 A 
HETATM   10  C   UNL     1       8.565  30.132  58.253  1.00  0.00     0.049 A 
HETATM   11  C   UNL     1      10.241  29.041  56.914  1.00  0.00     0.014 A 
HETATM   12  C   UNL     1       9.448  31.167  58.622  1.00  0.00    -0.031 A 
HETATM   13  N   UNL     1       7.252  29.935  58.612  1.00  0.00    -0.364 N 
HETATM   14  C   UNL     1      10.755  31.081  58.114  1.00  0.00     0.009 A 
HETATM   15  C   UNL     1      11.147  30.041  57.279  1.00  0.00     0.002 A 
HETATM   16  C   UNL     1       6.750  28.820  57.996  1.00  0.00     0.102 A 
HETATM   17  H   UNL     1       6.737  30.543  59.235  1.00  0.00     0.165 HD
BRANCH  12  18
HETATM   18  C   UNL     1       9.067  32.316  59.523  1.00  0.00     0.036 C 
HETATM   19  C   UNL     1       9.555  32.107  60.947  1.00  0.00     0.010 C 
ENDBRANCH  12  18
ENDBRANCH   1   8
BRANCH   4  20
HETATM   20  N   UNL     1       7.021  23.453  54.280  1.00  0.00    -0.365 N 
HETATM   21  H   UNL     1       6.130  23.312  53.812  1.00  0.00     0.162 HD
BRANCH  20  22
HETATM   22  C   UNL     1       8.056  22.422  54.184  1.00  0.00     0.083 C 
HETATM   23  C   UNL     1       7.750  21.287  55.153  1.00  0.00     0.025 C 
HETATM   24  C   UNL     1       8.510  20.117  54.556  1.00  0.00     0.002 C 
HETATM   25  C   UNL     1       8.276  20.262  53.058  1.00  0.00     0.002 C 
HETATM   26  C   UNL     1       8.064  21.756  52.809  1.00  0.00     0.025 C 
ENDBRANCH  20  22
ENDBRANCH   4  20
TORSDOF 4
ENDMDL
MODEL 4
REMARK VINA RESULT:      -9.0      1.554      2.248
REMARK  4 active torsions:
REMARK  status: ('A' for Active; 'I' for Inactive)
REMARK    1  A    between atoms: C_2  and  C_3 
REMARK    2  A    between atoms: C_6  and  C_7 
REMARK    3  A    between atoms: C_10  and  N_11 
REMARK    4  A    between atoms: N_11  and  C_12 
ROOT
HETATM    1  C   UNL     1       8.150  27.161  57.037  1.00  0.00     0.076 C 
HETATM    2  C   UNL     1       8.760  28.208  56.131  1.00  0.00     0.144 C 
HETATM    3  S   UNL     1       9.426  29.616  57.033  1.00  0.00    -0.087 SA
HETATM    4  C   UNL     1       8.129  29.841  58.140  1.00  0.00     0.157 C 
HETATM    5  N   UNL     1       7.401  28.797  58.509  1.00  0.00    -0.257 N 
HETATM    6  H   UNL     1       6.709  28.994  59.225  1.00  0.00     0.191 HD
HETATM    7  N   UNL     1       7.484  27.433  58.123  1.00  0.00    -0.176 NA
ENDROOT
BRANCH   1   8
HETATM    8  C   UNL     1       8.178  25.750  56.632  1.00  0.00     0.019 A 
HETATM    9  C   UNL     1       7.762  25.152  55.384  1.00  0.00     0.005 A 
HETATM   10  C   UNL     1       8.050  23.785  55.447  1.00  0.00     0.049 A 
HETATM   11  C   UNL     1       7.181  25.647  54.195  1.00  0.00     0.014 A 
HETATM   12  C   UNL     1       7.818  22.886  54.386  1.00  0.00    -0.031 A 
HETATM   13  N   UNL     1       8.575  23.546  56.695  1.00  0.00    -0.364 N 
HETATM   14  C   UNL     1       7.234  23.427  53.228  1.00  0.00     0.009 A 
HETATM   15  C   UNL     1       6.919  24.778  53.132  1.00  0.00     0.002 A 
HETATM   16  C   UNL     1       8.665  24.711  57.408  1.00  0.00     0.102 A 
HETATM   17  H   UNL     1       8.864  22.634  57.024  1.00  0.00     0.165 HD
BRANCH  12  18
HETATM   18  C   UNL     1       8.145  21.414  54.445  1.00  0.00     0.036 C 
HETATM   19  C   UNL     1       7.914  20.728  53.108  1.00  0.00     0.010 C 
ENDBRANCH  12  18
ENDBRANCH   1   8
BRANCH   4  20
HETATM   20  N   UNL     1       7.961  31.080  58.561  1.00  0.00    -0.365 N 
HETATM   21  H   UNL     1       7.386  31.634  57.932  1.00  0.00     0.162 HD
BRANCH  20  22
HETATM   22  C   UNL     1       8.518  31.703  59.763  1.00  0.00     0.083 C 
HETATM   23  C   UNL     1       7.394  32.269  60.623  1.00  0.00     0.025 C 
HETATM   24  C   UNL     1       8.024  32.335  62.002  1.00  0.00     0.002 C 
HETATM   25  C   UNL     1       8.821  31.041  62.098  1.00  0.00     0.002 C 
HETATM   26  C   UNL     1       9.208  30.679  60.663  1.00  0.00     0.025 C 
ENDBRANCH  20  22
ENDBRANCH   4  20
TORSDOF 4
ENDMDL
MODEL 5
REMARK VINA RESULT:      -8.8      1.481      1.911
REMARK  4 active torsions:
REMARK  status: ('A' for Active; 'I' for Inactive)
REMARK    1  A    between atoms: C_2  and  C_3 
REMARK    2  A    between atoms: C_6  and  C_7 
REMARK    3  A    between atoms: C_10  and  N_11 
REMARK    4  A    between atoms: N_11  and  C_12 
ROOT
HETATM    1  C   UNL     1       7.780  28.703  56.764  1.00  0.00     0.076 C 
HETATM    2  C   UNL     1       8.994  29.603  56.681  1.00  0.00     0.144 C 
HETATM    3  S   UNL     1       9.492  30.261  58.281  1.00  0.00    -0.087 SA
HETATM    4  C   UNL     1       7.933  30.686  58.873  1.00  0.00     0.157 C 
HETATM    5  N   UNL     1       6.875  29.996  58.472  1.00  0.00    -0.257 N 
HETATM    6  H   UNL     1       6.005  30.251  58.927  1.00  0.00     0.191 HD
HETATM    7  N   UNL     1       6.775  28.905  57.569  1.00  0.00    -0.176 NA
ENDROOT
BRANCH   1   8
HETATM    8  C   UNL     1       7.630  27.602  55.805  1.00  0.00     0.019 A 
HETATM    9  C   UNL     1       7.826  26.184  56.008  1.00  0.00     0.005 A 
HETATM   10  C   UNL     1       7.492  25.532  54.817  1.00  0.00     0.049 A 
HETATM   11  C   UNL     1       8.244  25.390  57.099  1.00  0.00     0.014 A 
HETATM   12  C   UNL     1       7.522  24.131  54.657  1.00  0.00    -0.031 A 
HETATM   13  N   UNL     1       7.151  26.507  53.910  1.00  0.00    -0.364 N 
HETATM   14  C   UNL     1       7.949  23.387  55.770  1.00  0.00     0.009 A 
HETATM   15  C   UNL     1       8.304  23.999  56.966  1.00  0.00     0.002 A 
HETATM   16  C   UNL     1       7.221  27.745  54.490  1.00  0.00     0.102 A 
HETATM   17  H   UNL     1       6.875  26.322  52.954  1.00  0.00     0.165 HD
BRANCH  12  18
HETATM   18  C   UNL     1       7.144  23.423  53.380  1.00  0.00     0.036 C 
HETATM   19  C   UNL     1       7.821  22.067  53.260  1.00  0.00     0.010 C 
ENDBRANCH  12  18
ENDBRANCH   1   8
BRANCH   4  20
HETATM   20  N   UNL     1       7.913  31.695  59.722  1.00  0.00    -0.365 N 
HETATM   21  H   UNL     1       8.263  32.558  59.314  1.00  0.00     0.162 HD
BRANCH  20  22
HETATM   22  C   UNL     1       7.486  31.683  61.122  1.00  0.00     0.083 C 
HETATM   23  C   UNL     1       8.689  31.893  62.033  1.00  0.00     0.025 C 
HETATM   24  C   UNL     1       8.059  32.418  63.310  1.00  0.00     0.002 C 
HETATM   25  C   UNL     1       6.983  33.375  62.815  1.00  0.00     0.002 C 
HETATM   26  C   UNL     1       6.558  32.854  61.441  1.00  0.00     0.025 C 
ENDBRANCH  20  22
ENDBRANCH   4  20
TORSDOF 4
ENDMDL
MODEL 6
REMARK VINA RESULT:      -8.5      1.620      2.337
REMARK  4 active torsions:
REMARK  status: ('A' for Active; 'I' for Inactive)
REMARK    1  A    between atoms: C_2  and  C_3 
REMARK    2  A    between atoms: C_6  and  C_7 
REMARK    3  A    between atoms: C_10  and  N_11 
REMARK    4  A    between atoms: N_11  and  C_12 
ROOT
HETATM    1  C   UNL     1       7.497  26.992  56.737  1.00  0.00     0.076 C 
HETATM    2  C   UNL     1       6.206  27.683  56.354  1.00  0.00     0.144 C 
HETATM    3  S   UNL     1       6.393  29.463  56.161  1.00  0.00    -0.087 SA
HETATM    4  C   UNL     1       7.350  29.768  57.557  1.00  0.00     0.157 C 
HETATM    5  N   UNL     1       8.159  28.820  58.010  1.00  0.00    -0.257 N 
HETATM    6  H   UNL     1       8.750  29.103  58.786  1.00  0.00     0.191 HD
HETATM    7  N   UNL     1       8.389  27.502  57.538  1.00  0.00    -0.176 NA
ENDROOT
BRANCH   1   8
HETATM    8  C   UNL     1       7.732  25.609  56.303  1.00  0.00     0.019 A 
HETATM    9  C   UNL     1       7.744  25.063  54.965  1.00  0.00     0.005 A 
HETATM   10  C   UNL     1       8.084  23.710  55.058  1.00  0.00     0.049 A 
HETATM   11  C   UNL     1       7.512  25.596  53.677  1.00  0.00     0.014 A 
HETATM   12  C   UNL     1       8.235  22.863  53.941  1.00  0.00    -0.031 A 
HETATM   13  N   UNL     1       8.229  23.426  56.396  1.00  0.00    -0.364 N 
HETATM   14  C   UNL     1       7.988  23.439  52.684  1.00  0.00     0.009 A 
HETATM   15  C   UNL     1       7.632  24.776  52.551  1.00  0.00     0.002 A 
HETATM   16  C   UNL     1       8.030  24.552  57.148  1.00  0.00     0.102 A 
HETATM   17  H   UNL     1       8.464  22.512  56.759  1.00  0.00     0.165 HD
BRANCH  12  18
HETATM   18  C   UNL     1       8.621  21.407  54.037  1.00  0.00     0.036 C 
HETATM   19  C   UNL     1       8.082  20.598  52.868  1.00  0.00     0.010 C 
ENDBRANCH  12  18
ENDBRANCH   1   8
BRANCH   4  20
HETATM   20  N   UNL     1       7.209  30.970  58.081  1.00  0.00    -0.365 N 
HETATM   21  H   UNL     1       7.618  31.700  57.504  1.00  0.00     0.162 HD
BRANCH  20  22
HETATM   22  C   UNL     1       6.581  31.326  59.355  1.00  0.00     0.083 C 
HETATM   23  C   UNL     1       7.511  32.227  60.158  1.00  0.00     0.025 C 
HETATM   24  C   UNL     1       6.559  32.944  61.098  1.00  0.00     0.002 C 
HETATM   25  C   UNL     1       5.353  33.255  60.222  1.00  0.00     0.002 C 
HETATM   26  C   UNL     1       5.321  32.166  59.149  1.00  0.00     0.025 C 
ENDBRANCH  20  22
ENDBRANCH   4  20
TORSDOF 4
ENDMDL
MODEL 7
REMARK VINA RESULT:      -8.2      4.871      7.123
REMARK  4 active torsions:
REMARK  status: ('A' for Active; 'I' for Inactive)
REMARK    1  A    between atoms: C_2  and  C_3 
REMARK    2  A    between atoms: C_6  and  C_7 
REMARK    3  A    between atoms: C_10  and  N_11 
REMARK    4  A    between atoms: N_11  and  C_12 
ROOT
HETATM    1  C   UNL     1       6.027  26.687  53.386  1.00  0.00     0.076 C 
HETATM    2  C   UNL     1       4.888  26.482  52.411  1.00  0.00     0.144 C 
HETATM    3  S   UNL     1       5.062  27.461  50.911  1.00  0.00    -0.087 SA
HETATM    4  C   UNL     1       5.543  28.945  51.635  1.00  0.00     0.157 C 
HETATM    5  N   UNL     1       6.211  28.924  52.780  1.00  0.00    -0.257 N 
HETATM    6  H   UNL     1       6.530  29.832  53.102  1.00  0.00     0.191 HD
HETATM    7  N   UNL     1       6.618  27.831  53.589  1.00  0.00    -0.176 NA
ENDROOT
BRANCH   1   8
HETATM    8  C   UNL     1       6.430  25.585  54.270  1.00  0.00     0.019 A 
HETATM    9  C   UNL     1       7.078  24.338  53.933  1.00  0.00     0.005 A 
HETATM   10  C   UNL     1       7.321  23.648  55.124  1.00  0.00     0.049 A 
HETATM   11  C   UNL     1       7.497  23.735  52.726  1.00  0.00     0.014 A 
HETATM   12  C   UNL     1       7.982  22.404  55.187  1.00  0.00    -0.031 A 
HETATM   13  N   UNL     1       6.804  24.414  56.142  1.00  0.00    -0.364 N 
HETATM   14  C   UNL     1       8.374  21.844  53.959  1.00  0.00     0.009 A 
HETATM   15  C   UNL     1       8.136  22.493  52.752  1.00  0.00     0.002 A 
HETATM   16  C   UNL     1       6.278  25.576  55.646  1.00  0.00     0.102 A 
HETATM   17  H   UNL     1       6.828  24.150  57.119  1.00  0.00     0.165 HD
BRANCH  12  18
HETATM   18  C   UNL     1       8.263  21.665  56.472  1.00  0.00     0.036 C 
HETATM   19  C   UNL     1       8.250  20.157  56.275  1.00  0.00     0.010 C 
ENDBRANCH  12  18
ENDBRANCH   1   8
BRANCH   4  20
HETATM   20  N   UNL     1       5.208  30.030  50.964  1.00  0.00    -0.365 N 
HETATM   21  H   UNL     1       4.590  30.642  51.489  1.00  0.00     0.162 HD
BRANCH  20  22
HETATM   22  C   UNL     1       5.598  30.398  49.601  1.00  0.00     0.083 C 
HETATM   23  C   UNL     1       4.367  30.445  48.704  1.00  0.00     0.025 C 
HETATM   24  C   UNL     1       4.808  31.353  47.571  1.00  0.00     0.002 C 
HETATM   25  C   UNL     1       5.593  32.452  48.274  1.00  0.00     0.002 C 
HETATM   26  C   UNL     1       6.168  31.814  49.539  1.00  0.00     0.025 C 
ENDBRANCH  20  22
ENDBRANCH   4  20
TORSDOF 4
ENDMDL
MODEL 8
REMARK VINA RESULT:      -8.2      2.459      2.860
REMARK  4 active torsions:
REMARK  status: ('A' for Active; 'I' for Inactive)
REMARK    1  A    between atoms: C_2  and  C_3 
REMARK    2  A    between atoms: C_6  and  C_7 
REMARK    3  A    between atoms: C_10  and  N_11 
REMARK    4  A    between atoms: N_11  and  C_12 
ROOT
HETATM    1  C   UNL     1       6.190  26.929  55.630  1.00  0.00     0.076 C 
HETATM    2  C   UNL     1       6.989  28.191  55.386  1.00  0.00     0.144 C 
HETATM    3  S   UNL     1       7.174  29.202  56.863  1.00  0.00    -0.087 SA
HETATM    4  C   UNL     1       5.557  29.102  57.440  1.00  0.00     0.157 C 
HETATM    5  N   UNL     1       4.836  28.022  57.171  1.00  0.00    -0.257 N 
HETATM    6  H   UNL     1       3.923  28.001  57.613  1.00  0.00     0.191 HD
HETATM    7  N   UNL     1       5.164  26.857  56.430  1.00  0.00    -0.176 NA
ENDROOT
BRANCH   1   8
HETATM    8  C   UNL     1       6.478  25.727  54.837  1.00  0.00     0.019 A 
HETATM    9  C   UNL     1       7.271  24.572  55.188  1.00  0.00     0.005 A 
HETATM   10  C   UNL     1       7.189  23.659  54.133  1.00  0.00     0.049 A 
HETATM   11  C   UNL     1       8.043  24.207  56.314  1.00  0.00     0.014 A 
HETATM   12  C   UNL     1       7.807  22.391  54.144  1.00  0.00    -0.031 A 
HETATM   13  N   UNL     1       6.417  24.245  53.157  1.00  0.00    -0.364 N 
HETATM   14  C   UNL     1       8.567  22.079  55.284  1.00  0.00     0.009 A 
HETATM   15  C   UNL     1       8.686  22.967  56.348  1.00  0.00     0.002 A 
HETATM   16  C   UNL     1       5.980  25.475  53.569  1.00  0.00     0.102 A 
HETATM   17  H   UNL     1       6.200  23.812  52.269  1.00  0.00     0.165 HD
BRANCH  12  18
HETATM   18  C   UNL     1       7.704  21.396  53.015  1.00  0.00     0.036 C 
HETATM   19  C   UNL     1       8.748  20.297  53.129  1.00  0.00     0.010 C 
ENDBRANCH  12  18
ENDBRANCH   1   8
BRANCH   4  20
HETATM   20  N   UNL     1       5.147  30.141  58.142  1.00  0.00    -0.365 N 
HETATM   21  H   UNL     1       4.468  29.890  58.855  1.00  0.00     0.162 HD
BRANCH  20  22
HETATM   22  C   UNL     1       5.534  31.544  57.979  1.00  0.00     0.083 C 
HETATM   23  C   UNL     1       4.665  32.202  56.915  1.00  0.00     0.025 C 
HETATM   24  C   UNL     1       4.765  33.677  57.261  1.00  0.00     0.002 C 
HETATM   25  C   UNL     1       4.696  33.696  58.782  1.00  0.00     0.002 C 
HETATM   26  C   UNL     1       5.267  32.355  59.245  1.00  0.00     0.025 C 
ENDBRANCH  20  22
ENDBRANCH   4  20
TORSDOF 4
ENDMDL
MODEL 9
REMARK VINA RESULT:      -8.1      5.786      9.380
REMARK  4 active torsions:
REMARK  status: ('A' for Active; 'I' for Inactive)
REMARK    1  A    between atoms: C_2  and  C_3 
REMARK    2  A    between atoms: C_6  and  C_7 
REMARK    3  A    between atoms: C_10  and  N_11 
REMARK    4  A    between atoms: N_11  and  C_12 
ROOT
HETATM    1  C   UNL     1       5.440  26.489  51.632  1.00  0.00     0.076 C 
HETATM    2  C   UNL     1       6.386  27.079  52.656  1.00  0.00     0.144 C 
HETATM    3  S   UNL     1       7.598  25.894  53.260  1.00  0.00    -0.087 SA
HETATM    4  C   UNL     1       6.545  24.552  53.483  1.00  0.00     0.157 C 
HETATM    5  N   UNL     1       5.472  24.431  52.714  1.00  0.00    -0.257 N 
HETATM    6  H   UNL     1       4.947  23.573  52.850  1.00  0.00     0.191 HD
HETATM    7  N   UNL     1       4.983  25.269  51.678  1.00  0.00    -0.176 NA
ENDROOT
BRANCH   1   8
HETATM    8  C   UNL     1       4.880  27.351  50.584  1.00  0.00     0.019 A 
HETATM    9  C   UNL     1       4.150  26.980  49.393  1.00  0.00     0.005 A 
HETATM   10  C   UNL     1       3.763  28.157  48.744  1.00  0.00     0.049 A 
HETATM   11  C   UNL     1       3.768  25.751  48.810  1.00  0.00     0.014 A 
HETATM   12  C   UNL     1       2.993  28.182  47.564  1.00  0.00    -0.031 A 
HETATM   13  N   UNL     1       4.272  29.202  49.478  1.00  0.00    -0.364 N 
HETATM   14  C   UNL     1       2.643  26.934  47.021  1.00  0.00     0.009 A 
HETATM   15  C   UNL     1       3.021  25.742  47.628  1.00  0.00     0.002 A 
HETATM   16  C   UNL     1       4.932  28.735  50.582  1.00  0.00     0.102 A 
HETATM   17  H   UNL     1       4.156  30.177  49.233  1.00  0.00     0.165 HD
BRANCH  12  18
HETATM   18  C   UNL     1       2.557  29.451  46.872  1.00  0.00     0.036 C 
HETATM   19  C   UNL     1       1.092  29.403  46.468  1.00  0.00     0.010 C 
ENDBRANCH  12  18
ENDBRANCH   1   8
BRANCH   4  20
HETATM   20  N   UNL     1       6.908  23.708  54.430  1.00  0.00    -0.365 N 
HETATM   21  H   UNL     1       6.396  23.846  55.297  1.00  0.00     0.162 HD
BRANCH  20  22
HETATM   22  C   UNL     1       7.940  22.671  54.361  1.00  0.00     0.083 C 
HETATM   23  C   UNL     1       7.616  21.551  55.342  1.00  0.00     0.025 C 
HETATM   24  C   UNL     1       8.379  20.369  54.771  1.00  0.00     0.002 C 
HETATM   25  C   UNL     1       8.165  20.494  53.269  1.00  0.00     0.002 C 
HETATM   26  C   UNL     1       7.964  21.986  52.996  1.00  0.00     0.025 C 
ENDBRANCH  20  22
ENDBRANCH   4  20
TORSDOF 4
ENDMDL
MODEL 10
REMARK VINA RESULT:      -8.0      5.134      8.392
REMARK  4 active torsions:
REMARK  status: ('A' for Active; 'I' for Inactive)
REMARK    1  A    between atoms: C_2  and  C_3 
REMARK    2  A    between atoms: C_6  and  C_7 
REMARK    3  A    between atoms: C_10  and  N_11 
REMARK    4  A    between atoms: N_11  and  C_12 
ROOT
HETATM    1  C   UNL     1       5.062  26.413  52.817  1.00  0.00     0.076 C 
HETATM    2  C   UNL     1       5.422  26.166  51.368  1.00  0.00     0.144 C 
HETATM    3  S   UNL     1       5.337  27.654  50.359  1.00  0.00    -0.087 SA
HETATM    4  C   UNL     1       3.850  28.278  50.958  1.00  0.00     0.157 C 
HETATM    5  N   UNL     1       3.489  28.013  52.206  1.00  0.00    -0.257 N 
HETATM    6  H   UNL     1       2.643  28.482  52.511  1.00  0.00     0.191 HD
HETATM    7  N   UNL     1       4.135  27.242  53.208  1.00  0.00    -0.176 NA
ENDROOT
BRANCH   1   8
HETATM    8  C   UNL     1       5.679  25.591  53.866  1.00  0.00     0.019 A 
HETATM    9  C   UNL     1       6.599  24.485  53.734  1.00  0.00     0.005 A 
HETATM   10  C   UNL     1       6.960  24.073  55.020  1.00  0.00     0.049 A 
HETATM   11  C   UNL     1       7.173  23.801  52.638  1.00  0.00     0.014 A 
HETATM   12  C   UNL     1       7.881  23.038  55.280  1.00  0.00    -0.031 A 
HETATM   13  N   UNL     1       6.259  24.860  55.903  1.00  0.00    -0.364 N 
HETATM   14  C   UNL     1       8.420  22.386  54.158  1.00  0.00     0.009 A 
HETATM   15  C   UNL     1       8.074  22.756  52.863  1.00  0.00     0.002 A 
HETATM   16  C   UNL     1       5.497  25.775  55.227  1.00  0.00     0.102 A 
HETATM   17  H   UNL     1       6.316  24.773  56.909  1.00  0.00     0.165 HD
BRANCH  12  18
HETATM   18  C   UNL     1       8.288  22.603  56.667  1.00  0.00     0.036 C 
HETATM   19  C   UNL     1       8.423  21.093  56.772  1.00  0.00     0.010 C 
ENDBRANCH  12  18
ENDBRANCH   1   8
BRANCH   4  20
HETATM   20  N   UNL     1       3.164  29.009  50.101  1.00  0.00    -0.365 N 
HETATM   21  H   UNL     1       3.508  29.963  50.036  1.00  0.00     0.162 HD
BRANCH  20  22
HETATM   22  C   UNL     1       2.004  28.607  49.304  1.00  0.00     0.083 C 
HETATM   23  C   UNL     1       1.764  29.617  48.189  1.00  0.00     0.025 C 
HETATM   24  C   UNL     1       0.975  28.815  47.170  1.00  0.00     0.002 C 
HETATM   25  C   UNL     1       1.656  27.454  47.176  1.00  0.00     0.002 C 
HETATM   26  C   UNL     1       2.248  27.286  48.576  1.00  0.00     0.025 C 
ENDBRANCH  20  22
ENDBRANCH   4  20
TORSDOF 4
ENDMDL
