MODEL 1
REMARK VINA RESULT:      -8.4      0.000      0.000
REMARK  1 active torsions:
REMARK  status: ('A' for Active; 'I' for Inactive)
REMARK    1  A    between atoms: C_5  and  N_6 
ROOT
HETATM    1  N   UNL     1       6.957  27.119  56.504  1.00  0.00    -0.320 N 
HETATM    2  C   UNL     1       5.555  27.427  56.566  1.00  0.00     0.141 C 
HETATM    3  N   UNL     1       4.614  26.586  56.238  1.00  0.00    -0.380 N 
HETATM    4  H   UNL     1       4.859  25.659  55.916  1.00  0.00     0.158 HD
HETATM    5  H   UNL     1       3.647  26.864  56.317  1.00  0.00     0.158 HD
HETATM    6  S   UNL     1       5.241  29.024  57.157  1.00  0.00    -0.086 SA
HETATM    7  C   UNL     1       7.005  29.445  56.995  1.00  0.00     0.093 C 
HETATM    8  C   UNL     1       7.720  28.106  57.279  1.00  0.00     0.121 C 
HETATM    9  C   UNL     1       7.682  30.449  57.894  1.00  0.00     0.158 C 
HETATM   10  S   UNL     1       9.418  29.996  57.689  1.00  0.00     0.147 S 
HETATM   11  O   UNL     1      10.016  30.882  56.716  1.00  0.00    -0.228 OA
HETATM   12  O   UNL     1       9.985  29.778  59.002  1.00  0.00    -0.228 OA
HETATM   13  C   UNL     1       9.160  28.389  56.913  1.00  0.00     0.167 C 
ENDROOT
BRANCH   1  14
HETATM   14  C   UNL     1       7.504  25.837  56.289  1.00  0.00     0.048 A 
HETATM   15  C   UNL     1       7.636  25.316  54.966  1.00  0.00     0.001 A 
HETATM   16  C   UNL     1       8.104  23.989  54.789  1.00  0.00    -0.024 A 
HETATM   17  C   UNL     1       7.344  26.063  53.800  1.00  0.00     0.014 A 
HETATM   18  C   UNL     1       8.220  23.448  53.498  1.00  0.00     0.012 A 
HETATM   19  C   UNL     1       8.458  23.220  55.905  1.00  0.00     0.012 A 
HETATM   20  C   UNL     1       7.896  24.202  52.373  1.00  0.00     0.001 A 
HETATM   21  C   UNL     1       7.465  25.513  52.522  1.00  0.00     0.001 A 
HETATM   22  C   UNL     1       8.355  23.740  57.190  1.00  0.00     0.003 A 
HETATM   23  C   UNL     1       7.878  25.034  57.380  1.00  0.00     0.030 A 
ENDBRANCH   1  14
TORSDOF 1
ENDMDL
MODEL 2
REMARK VINA RESULT:      -7.8      1.593      2.869
REMARK  1 active torsions:
REMARK  status: ('A' for Active; 'I' for Inactive)
REMARK    1  A    between atoms: C_5  and  N_6 
ROOT
HETATM    1  N   UNL     1       6.075  27.151  54.270  1.00  0.00    -0.320 N 
HETATM    2  C   UNL     1       4.687  27.508  54.174  1.00  0.00     0.141 C 
HETATM    3  N   UNL     1       3.840  26.912  53.382  1.00  0.00    -0.380 N 
HETATM    4  H   UNL     1       4.154  26.156  52.788  1.00  0.00     0.158 HD
HETATM    5  H   UNL     1       2.874  27.206  53.373  1.00  0.00     0.158 HD
HETATM    6  S   UNL     1       4.244  28.791  55.250  1.00  0.00    -0.086 SA
HETATM    7  C   UNL     1       5.999  29.122  55.599  1.00  0.00     0.093 C 
HETATM    8  C   UNL     1       6.656  27.729  55.490  1.00  0.00     0.121 C 
HETATM    9  C   UNL     1       6.471  29.675  56.920  1.00  0.00     0.158 C 
HETATM   10  S   UNL     1       8.217  29.215  56.896  1.00  0.00     0.147 S 
HETATM   11  O   UNL     1       8.990  30.356  56.460  1.00  0.00    -0.228 OA
HETATM   12  O   UNL     1       8.508  28.489  58.113  1.00  0.00    -0.228 OA
HETATM   13  C   UNL     1       8.137  28.030  55.539  1.00  0.00     0.167 C 
ENDROOT
BRANCH   1  14
HETATM   14  C   UNL     1       6.668  26.006  53.698  1.00  0.00     0.048 A 
HETATM   15  C   UNL     1       7.014  24.885  54.511  1.00  0.00     0.001 A 
HETATM   16  C   UNL     1       7.692  23.787  53.921  1.00  0.00    -0.024 A 
HETATM   17  C   UNL     1       6.698  24.790  55.887  1.00  0.00     0.014 A 
HETATM   18  C   UNL     1       8.063  22.683  54.707  1.00  0.00     0.012 A 
HETATM   19  C   UNL     1       7.985  23.802  52.552  1.00  0.00     0.012 A 
HETATM   20  C   UNL     1       7.761  22.636  56.066  1.00  0.00     0.001 A 
HETATM   21  C   UNL     1       7.071  23.686  56.655  1.00  0.00     0.001 A 
HETATM   22  C   UNL     1       7.622  24.884  51.758  1.00  0.00     0.003 A 
HETATM   23  C   UNL     1       6.973  25.977  52.327  1.00  0.00     0.030 A 
ENDBRANCH   1  14
TORSDOF 1
ENDMDL
MODEL 3
REMARK VINA RESULT:      -7.6      9.010     10.967
REMARK  1 active torsions:
REMARK  status: ('A' for Active; 'I' for Inactive)
REMARK    1  A    between atoms: C_5  and  N_6 
ROOT
HETATM    1  N   UNL     1       4.218  34.740  62.320  1.00  0.00    -0.320 N 
HETATM    2  C   UNL     1       2.987  34.036  62.086  1.00  0.00     0.141 C 
HETATM    3  N   UNL     1       2.747  32.833  62.530  1.00  0.00    -0.380 N 
HETATM    4  H   UNL     1       3.452  32.346  63.066  1.00  0.00     0.158 HD
HETATM    5  H   UNL     1       1.855  32.400  62.339  1.00  0.00     0.158 HD
HETATM    6  S   UNL     1       1.838  34.965  61.185  1.00  0.00    -0.086 SA
HETATM    7  C   UNL     1       3.122  36.194  60.789  1.00  0.00     0.093 C 
HETATM    8  C   UNL     1       4.037  36.170  62.033  1.00  0.00     0.121 C 
HETATM    9  C   UNL     1       2.805  37.650  60.564  1.00  0.00     0.158 C 
HETATM   10  S   UNL     1       4.421  38.412  60.830  1.00  0.00     0.147 S 
HETATM   11  O   UNL     1       5.044  38.637  59.545  1.00  0.00    -0.228 OA
HETATM   12  O   UNL     1       4.271  39.454  61.821  1.00  0.00    -0.228 OA
HETATM   13  C   UNL     1       5.227  37.002  61.614  1.00  0.00     0.167 C 
ENDROOT
BRANCH   1  14
HETATM   14  C   UNL     1       5.236  34.337  63.208  1.00  0.00     0.048 A 
HETATM   15  C   UNL     1       6.343  33.566  62.742  1.00  0.00     0.001 A 
HETATM   16  C   UNL     1       7.302  33.098  63.678  1.00  0.00    -0.024 A 
HETATM   17  C   UNL     1       6.558  33.252  61.379  1.00  0.00     0.014 A 
HETATM   18  C   UNL     1       8.387  32.319  63.245  1.00  0.00     0.012 A 
HETATM   19  C   UNL     1       7.169  33.422  65.033  1.00  0.00     0.012 A 
HETATM   20  C   UNL     1       8.553  32.004  61.898  1.00  0.00     0.001 A 
HETATM   21  C   UNL     1       7.642  32.477  60.963  1.00  0.00     0.001 A 
HETATM   22  C   UNL     1       6.105  34.196  65.480  1.00  0.00     0.003 A 
HETATM   23  C   UNL     1       5.145  34.646  64.576  1.00  0.00     0.030 A 
ENDBRANCH   1  14
TORSDOF 1
ENDMDL
MODEL 4
REMARK VINA RESULT:      -7.4      7.541      9.623
REMARK  1 active torsions:
REMARK  status: ('A' for Active; 'I' for Inactive)
REMARK    1  A    between atoms: C_5  and  N_6 
ROOT
HETATM    1  N   UNL     1       4.863  33.876  62.235  1.00  0.00    -0.320 N 
HETATM    2  C   UNL     1       3.571  33.263  62.373  1.00  0.00     0.141 C 
HETATM    3  N   UNL     1       3.376  31.975  62.354  1.00  0.00    -0.380 N 
HETATM    4  H   UNL     1       4.161  31.349  62.232  1.00  0.00     0.158 HD
HETATM    5  H   UNL     1       2.441  31.610  62.469  1.00  0.00     0.158 HD
HETATM    6  S   UNL     1       2.300  34.416  62.605  1.00  0.00    -0.086 SA
HETATM    7  C   UNL     1       3.430  35.772  62.162  1.00  0.00     0.093 C 
HETATM    8  C   UNL     1       4.801  35.277  62.672  1.00  0.00     0.121 C 
HETATM    9  C   UNL     1       3.282  37.164  62.723  1.00  0.00     0.158 C 
HETATM   10  S   UNL     1       4.935  37.837  62.445  1.00  0.00     0.147 S 
HETATM   11  O   UNL     1       4.915  38.626  61.234  1.00  0.00    -0.228 OA
HETATM   12  O   UNL     1       5.431  38.347  63.704  1.00  0.00    -0.228 OA
HETATM   13  C   UNL     1       5.776  36.281  62.097  1.00  0.00     0.167 C 
ENDROOT
BRANCH   1  14
HETATM   14  C   UNL     1       6.099  33.197  62.267  1.00  0.00     0.048 A 
HETATM   15  C   UNL     1       6.587  32.521  61.108  1.00  0.00     0.001 A 
HETATM   16  C   UNL     1       7.787  31.770  61.200  1.00  0.00    -0.024 A 
HETATM   17  C   UNL     1       5.947  32.572  59.846  1.00  0.00     0.014 A 
HETATM   18  C   UNL     1       8.273  31.079  60.078  1.00  0.00     0.012 A 
HETATM   19  C   UNL     1       8.491  31.726  62.409  1.00  0.00     0.012 A 
HETATM   20  C   UNL     1       7.602  31.128  58.858  1.00  0.00     0.001 A 
HETATM   21  C   UNL     1       6.443  31.881  58.739  1.00  0.00     0.001 A 
HETATM   22  C   UNL     1       8.028  32.407  63.528  1.00  0.00     0.003 A 
HETATM   23  C   UNL     1       6.841  33.132  63.459  1.00  0.00     0.030 A 
ENDBRANCH   1  14
TORSDOF 1
ENDMDL
MODEL 5
REMARK VINA RESULT:      -7.3     10.651     12.547
REMARK  1 active torsions:
REMARK  status: ('A' for Active; 'I' for Inactive)
REMARK    1  A    between atoms: C_5  and  N_6 
ROOT
HETATM    1  N   UNL     1       4.964  35.898  62.485  1.00  0.00    -0.320 N 
HETATM    2  C   UNL     1       5.356  37.246  62.179  1.00  0.00     0.141 C 
HETATM    3  N   UNL     1       6.287  37.892  62.824  1.00  0.00    -0.380 N 
HETATM    4  H   UNL     1       6.772  37.443  63.589  1.00  0.00     0.158 HD
HETATM    5  H   UNL     1       6.522  38.835  62.548  1.00  0.00     0.158 HD
HETATM    6  S   UNL     1       4.489  37.913  60.837  1.00  0.00    -0.086 SA
HETATM    7  C   UNL     1       3.320  36.518  60.881  1.00  0.00     0.093 C 
HETATM    8  C   UNL     1       4.189  35.338  61.369  1.00  0.00     0.121 C 
HETATM    9  C   UNL     1       2.624  36.007  59.646  1.00  0.00     0.158 C 
HETATM   10  S   UNL     1       2.138  34.348  60.171  1.00  0.00     0.147 S 
HETATM   11  O   UNL     1       0.756  34.384  60.595  1.00  0.00    -0.228 OA
HETATM   12  O   UNL     1       2.634  33.403  59.195  1.00  0.00    -0.228 OA
HETATM   13  C   UNL     1       3.181  34.243  61.638  1.00  0.00     0.167 C 
ENDROOT
BRANCH   1  14
HETATM   14  C   UNL     1       5.643  35.026  63.361  1.00  0.00     0.048 A 
HETATM   15  C   UNL     1       5.396  35.069  64.766  1.00  0.00     0.001 A 
HETATM   16  C   UNL     1       6.163  34.244  65.628  1.00  0.00    -0.024 A 
HETATM   17  C   UNL     1       4.402  35.883  65.360  1.00  0.00     0.014 A 
HETATM   18  C   UNL     1       5.952  34.287  67.016  1.00  0.00     0.012 A 
HETATM   19  C   UNL     1       7.126  33.380  65.093  1.00  0.00     0.012 A 
HETATM   20  C   UNL     1       4.984  35.122  67.570  1.00  0.00     0.001 A 
HETATM   21  C   UNL     1       4.202  35.915  66.741  1.00  0.00     0.001 A 
HETATM   22  C   UNL     1       7.345  33.320  63.721  1.00  0.00     0.003 A 
HETATM   23  C   UNL     1       6.613  34.139  62.864  1.00  0.00     0.030 A 
ENDBRANCH   1  14
TORSDOF 1
ENDMDL
MODEL 6
REMARK VINA RESULT:      -7.2      3.491      6.089
REMARK  1 active torsions:
REMARK  status: ('A' for Active; 'I' for Inactive)
REMARK    1  A    between atoms: C_5  and  N_6 
ROOT
HETATM    1  N   UNL     1       7.239  26.180  56.327  1.00  0.00    -0.320 N 
HETATM    2  C   UNL     1       7.706  25.128  57.187  1.00  0.00     0.141 C 
HETATM    3  N   UNL     1       8.005  25.302  58.444  1.00  0.00    -0.380 N 
HETATM    4  H   UNL     1       7.916  26.219  58.860  1.00  0.00     0.158 HD
HETATM    5  H   UNL     1       8.316  24.515  58.996  1.00  0.00     0.158 HD
HETATM    6  S   UNL     1       7.795  23.594  56.390  1.00  0.00    -0.086 SA
HETATM    7  C   UNL     1       7.549  24.403  54.778  1.00  0.00     0.093 C 
HETATM    8  C   UNL     1       6.640  25.605  55.114  1.00  0.00     0.121 C 
HETATM    9  C   UNL     1       6.871  23.712  53.622  1.00  0.00     0.158 C 
HETATM   10  S   UNL     1       6.384  25.120  52.600  1.00  0.00     0.147 S 
HETATM   11  O   UNL     1       7.367  25.295  51.555  1.00  0.00    -0.228 OA
HETATM   12  O   UNL     1       4.966  25.014  52.333  1.00  0.00    -0.228 OA
HETATM   13  C   UNL     1       6.629  26.411  53.835  1.00  0.00     0.167 C 
ENDROOT
BRANCH   1  14
HETATM   14  C   UNL     1       6.847  27.468  56.747  1.00  0.00     0.048 A 
HETATM   15  C   UNL     1       7.825  28.459  57.063  1.00  0.00     0.001 A 
HETATM   16  C   UNL     1       7.400  29.713  57.570  1.00  0.00    -0.024 A 
HETATM   17  C   UNL     1       9.216  28.270  56.877  1.00  0.00     0.014 A 
HETATM   18  C   UNL     1       8.346  30.694  57.909  1.00  0.00     0.012 A 
HETATM   19  C   UNL     1       6.033  29.975  57.726  1.00  0.00     0.012 A 
HETATM   20  C   UNL     1       9.710  30.464  57.740  1.00  0.00     0.001 A 
HETATM   21  C   UNL     1      10.145  29.255  57.217  1.00  0.00     0.001 A 
HETATM   22  C   UNL     1       5.082  29.018  57.392  1.00  0.00     0.003 A 
HETATM   23  C   UNL     1       5.485  27.775  56.911  1.00  0.00     0.030 A 
ENDBRANCH   1  14
TORSDOF 1
ENDMDL
MODEL 7
REMARK VINA RESULT:      -7.1      2.530      3.985
REMARK  1 active torsions:
REMARK  status: ('A' for Active; 'I' for Inactive)
REMARK    1  A    between atoms: C_5  and  N_6 
ROOT
HETATM    1  N   UNL     1       7.347  25.781  55.685  1.00  0.00    -0.320 N 
HETATM    2  C   UNL     1       8.196  25.700  56.841  1.00  0.00     0.141 C 
HETATM    3  N   UNL     1       9.119  24.793  56.998  1.00  0.00    -0.380 N 
HETATM    4  H   UNL     1       9.262  24.093  56.283  1.00  0.00     0.158 HD
HETATM    5  H   UNL     1       9.690  24.801  57.831  1.00  0.00     0.158 HD
HETATM    6  S   UNL     1       7.893  26.958  57.991  1.00  0.00    -0.086 SA
HETATM    7  C   UNL     1       6.367  27.415  57.109  1.00  0.00     0.093 C 
HETATM    8  C   UNL     1       6.697  27.098  55.634  1.00  0.00     0.121 C 
HETATM    9  C   UNL     1       5.831  28.824  57.097  1.00  0.00     0.158 C 
HETATM   10  S   UNL     1       4.751  28.781  55.650  1.00  0.00     0.147 S 
HETATM   11  O   UNL     1       3.392  28.566  56.093  1.00  0.00    -0.228 OA
HETATM   12  O   UNL     1       5.127  29.870  54.774  1.00  0.00    -0.228 OA
HETATM   13  C   UNL     1       5.365  27.245  54.933  1.00  0.00     0.167 C 
ENDROOT
BRANCH   1  14
HETATM   14  C   UNL     1       7.514  25.047  54.493  1.00  0.00     0.048 A 
HETATM   15  C   UNL     1       7.583  23.621  54.521  1.00  0.00     0.001 A 
HETATM   16  C   UNL     1       7.845  22.917  53.318  1.00  0.00    -0.024 A 
HETATM   17  C   UNL     1       7.382  22.852  55.693  1.00  0.00     0.014 A 
HETATM   18  C   UNL     1       7.939  21.516  53.326  1.00  0.00     0.012 A 
HETATM   19  C   UNL     1       8.000  23.622  52.118  1.00  0.00     0.012 A 
HETATM   20  C   UNL     1       7.764  20.792  54.504  1.00  0.00     0.001 A 
HETATM   21  C   UNL     1       7.478  21.459  55.687  1.00  0.00     0.001 A 
HETATM   22  C   UNL     1       7.906  25.009  52.089  1.00  0.00     0.003 A 
HETATM   23  C   UNL     1       7.669  25.714  53.266  1.00  0.00     0.030 A 
ENDBRANCH   1  14
TORSDOF 1
ENDMDL
MODEL 8
REMARK VINA RESULT:      -7.0      7.568     11.717
REMARK  1 active torsions:
REMARK  status: ('A' for Active; 'I' for Inactive)
REMARK    1  A    between atoms: C_5  and  N_6 
ROOT
HETATM    1  N   UNL     1       4.695  34.279  61.792  1.00  0.00    -0.320 N 
HETATM    2  C   UNL     1       3.476  33.992  61.090  1.00  0.00     0.141 C 
HETATM    3  N   UNL     1       2.354  34.622  61.301  1.00  0.00    -0.380 N 
HETATM    4  H   UNL     1       2.313  35.355  61.996  1.00  0.00     0.158 HD
HETATM    5  H   UNL     1       1.535  34.378  60.762  1.00  0.00     0.158 HD
HETATM    6  S   UNL     1       3.659  32.745  59.903  1.00  0.00    -0.086 SA
HETATM    7  C   UNL     1       5.298  32.328  60.574  1.00  0.00     0.093 C 
HETATM    8  C   UNL     1       5.835  33.685  61.079  1.00  0.00     0.121 C 
HETATM    9  C   UNL     1       6.404  31.766  59.716  1.00  0.00     0.158 C 
HETATM   10  S   UNL     1       7.858  32.137  60.721  1.00  0.00     0.147 S 
HETATM   11  O   UNL     1       8.217  30.954  61.470  1.00  0.00    -0.228 OA
HETATM   12  O   UNL     1       8.803  32.859  59.897  1.00  0.00    -0.228 OA
HETATM   13  C   UNL     1       7.081  33.310  61.848  1.00  0.00     0.167 C 
ENDROOT
BRANCH   1  14
HETATM   14  C   UNL     1       4.911  35.387  62.638  1.00  0.00     0.048 A 
HETATM   15  C   UNL     1       4.729  35.270  64.049  1.00  0.00     0.001 A 
HETATM   16  C   UNL     1       4.864  36.425  64.862  1.00  0.00    -0.024 A 
HETATM   17  C   UNL     1       4.437  34.047  64.701  1.00  0.00     0.014 A 
HETATM   18  C   UNL     1       4.666  36.337  66.250  1.00  0.00     0.012 A 
HETATM   19  C   UNL     1       5.203  37.652  64.279  1.00  0.00     0.012 A 
HETATM   20  C   UNL     1       4.352  35.123  66.855  1.00  0.00     0.001 A 
HETATM   21  C   UNL     1       4.244  33.975  66.081  1.00  0.00     0.001 A 
HETATM   22  C   UNL     1       5.407  37.757  62.908  1.00  0.00     0.003 A 
HETATM   23  C   UNL     1       5.259  36.636  62.095  1.00  0.00     0.030 A 
ENDBRANCH   1  14
TORSDOF 1
ENDMDL
MODEL 9
REMARK VINA RESULT:      -6.9      2.530      4.160
REMARK  1 active torsions:
REMARK  status: ('A' for Active; 'I' for Inactive)
REMARK    1  A    between atoms: C_5  and  N_6 
ROOT
HETATM    1  N   UNL     1       7.551  29.006  56.738  1.00  0.00    -0.320 N 
HETATM    2  C   UNL     1       8.781  29.487  57.302  1.00  0.00     0.141 C 
HETATM    3  N   UNL     1       9.944  28.942  57.075  1.00  0.00    -0.380 N 
HETATM    4  H   UNL     1      10.009  28.131  56.475  1.00  0.00     0.158 HD
HETATM    5  H   UNL     1      10.772  29.339  57.495  1.00  0.00     0.158 HD
HETATM    6  S   UNL     1       8.566  30.894  58.289  1.00  0.00    -0.086 SA
HETATM    7  C   UNL     1       6.762  30.656  58.257  1.00  0.00     0.093 C 
HETATM    8  C   UNL     1       6.507  30.032  56.868  1.00  0.00     0.121 C 
HETATM    9  C   UNL     1       5.793  31.808  58.352  1.00  0.00     0.158 C 
HETATM   10  S   UNL     1       4.292  31.068  57.671  1.00  0.00     0.147 S 
HETATM   11  O   UNL     1       3.452  30.636  58.764  1.00  0.00    -0.228 OA
HETATM   12  O   UNL     1       3.814  31.921  56.604  1.00  0.00    -0.228 OA
HETATM   13  C   UNL     1       5.055  29.613  56.929  1.00  0.00     0.167 C 
ENDROOT
BRANCH   1  14
HETATM   14  C   UNL     1       7.442  28.034  55.721  1.00  0.00     0.048 A 
HETATM   15  C   UNL     1       7.543  26.644  56.032  1.00  0.00     0.001 A 
HETATM   16  C   UNL     1       7.521  25.697  54.976  1.00  0.00    -0.024 A 
HETATM   17  C   UNL     1       7.644  26.144  57.352  1.00  0.00     0.014 A 
HETATM   18  C   UNL     1       7.642  24.326  55.256  1.00  0.00     0.012 A 
HETATM   19  C   UNL     1       7.371  26.131  53.653  1.00  0.00     0.012 A 
HETATM   20  C   UNL     1       7.769  23.870  56.566  1.00  0.00     0.001 A 
HETATM   21  C   UNL     1       7.762  24.778  57.616  1.00  0.00     0.001 A 
HETATM   22  C   UNL     1       7.245  27.483  53.357  1.00  0.00     0.003 A 
HETATM   23  C   UNL     1       7.284  28.426  54.381  1.00  0.00     0.030 A 
ENDBRANCH   1  14
TORSDOF 1
ENDMDL
MODEL 10
REMARK VINA RESULT:      -6.8     10.298     12.239
REMARK  1 active torsions:
REMARK  status: ('A' for Active; 'I' for Inactive)
REMARK    1  A    between atoms: C_5  and  N_6 
ROOT
HETATM    1  N   UNL     1       4.412  36.515  62.714  1.00  0.00    -0.320 N 
HETATM    2  C   UNL     1       5.018  37.655  62.084  1.00  0.00     0.141 C 
HETATM    3  N   UNL     1       5.991  38.341  62.615  1.00  0.00    -0.380 N 
HETATM    4  H   UNL     1       6.355  38.079  63.521  1.00  0.00     0.158 HD
HETATM    5  H   UNL     1       6.380  39.126  62.112  1.00  0.00     0.158 HD
HETATM    6  S   UNL     1       4.346  38.003  60.527  1.00  0.00    -0.086 SA
HETATM    7  C   UNL     1       2.983  36.837  60.840  1.00  0.00     0.093 C 
HETATM    8  C   UNL     1       3.635  35.753  61.726  1.00  0.00     0.121 C 
HETATM    9  C   UNL     1       2.299  36.078  59.732  1.00  0.00     0.158 C 
HETATM   10  S   UNL     1       1.540  34.718  60.647  1.00  0.00     0.147 S 
HETATM   11  O   UNL     1       0.155  35.046  60.900  1.00  0.00    -0.228 OA
HETATM   12  O   UNL     1       1.952  33.476  60.032  1.00  0.00    -0.228 OA
HETATM   13  C   UNL     1       2.461  34.917  62.184  1.00  0.00     0.167 C 
ENDROOT
BRANCH   1  14
HETATM   14  C   UNL     1       4.898  35.859  63.863  1.00  0.00     0.048 A 
HETATM   15  C   UNL     1       5.851  34.802  63.748  1.00  0.00     0.001 A 
HETATM   16  C   UNL     1       6.251  34.101  64.915  1.00  0.00    -0.024 A 
HETATM   17  C   UNL     1       6.447  34.417  62.523  1.00  0.00     0.014 A 
HETATM   18  C   UNL     1       7.169  33.043  64.823  1.00  0.00     0.012 A 
HETATM   19  C   UNL     1       5.733  34.472  66.163  1.00  0.00     0.012 A 
HETATM   20  C   UNL     1       7.715  32.672  63.596  1.00  0.00     0.001 A 
HETATM   21  C   UNL     1       7.361  33.364  62.446  1.00  0.00     0.001 A 
HETATM   22  C   UNL     1       4.827  35.520  66.275  1.00  0.00     0.003 A 
HETATM   23  C   UNL     1       4.410  36.204  65.135  1.00  0.00     0.030 A 
ENDBRANCH   1  14
TORSDOF 1
ENDMDL
