MODEL 1
REMARK VINA RESULT:      -9.9      0.000      0.000
REMARK  4 active torsions:
REMARK  status: ('A' for Active; 'I' for Inactive)
REMARK    1  A    between atoms: O_2  and  C_3 
REMARK    2  A    between atoms: C_7  and  C_8 
REMARK       I    between atoms: C_8  and  N_9 
REMARK    3  A    between atoms: N_9  and  C_10 
REMARK    4  A    between atoms: C_12  and  C_13 
ROOT
HETATM    1  C   UNL     1       6.566  27.321  55.740  1.00  0.00     0.254 C 
HETATM    2  N   UNL     1       7.671  26.632  55.286  1.00  0.00    -0.323 N 
HETATM    3  O   UNL     1       5.399  27.098  55.438  1.00  0.00    -0.268 OA
HETATM    4  H   UNL     1       8.569  26.890  55.670  1.00  0.00     0.169 HD
ENDROOT
BRANCH   1   5
HETATM    5  C   UNL     1       6.864  28.385  56.753  1.00  0.00     0.035 C 
HETATM    6  C   UNL     1       5.996  29.346  57.103  1.00  0.00     0.029 C 
HETATM    7  C   UNL     1       6.445  30.344  58.068  1.00  0.00     0.001 A 
HETATM    8  C   UNL     1       7.635  30.149  58.779  1.00  0.00     0.112 A 
HETATM    9  C   UNL     1       5.679  31.490  58.307  1.00  0.00     0.014 A 
HETATM   10  C   UNL     1       8.049  31.079  59.748  1.00  0.00     0.102 A 
HETATM   11  O   UNL     1       8.410  29.032  58.603  1.00  0.00    -0.343 OA
HETATM   12  C   UNL     1       7.283  32.228  59.963  1.00  0.00     0.040 A 
HETATM   13  C   UNL     1       6.103  32.433  59.243  1.00  0.00     0.004 A 
HETATM   14  C   UNL     1       8.222  28.281  57.394  1.00  0.00     0.220 C 
BRANCH  10  15
HETATM   15  O   UNL     1       9.219  30.793  60.406  1.00  0.00    -0.353 OA
HETATM   16  C   UNL     1       9.132  30.566  61.806  1.00  0.00     0.210 C 
ENDBRANCH  10  15
ENDBRANCH   1   5
BRANCH   2  17
HETATM   17  C   UNL     1       7.702  25.556  54.370  1.00  0.00     0.035 A 
HETATM   18  C   UNL     1       7.992  24.233  54.719  1.00  0.00     0.042 A 
HETATM   19  C   UNL     1       8.037  23.213  53.751  1.00  0.00    -0.021 A 
HETATM   20  C   UNL     1       7.756  23.542  52.419  1.00  0.00     0.012 A 
HETATM   21  C   UNL     1       7.453  24.856  52.060  1.00  0.00     0.003 A 
HETATM   22  C   UNL     1       7.433  25.857  53.030  1.00  0.00     0.029 A 
BRANCH  19  23
HETATM   23  C   UNL     1       8.380  21.841  54.108  1.00  0.00     0.010 A 
HETATM   24  C   UNL     1       8.531  20.682  53.306  1.00  0.00     0.152 A 
HETATM   25  N   UNL     1       8.879  19.600  54.008  1.00  0.00    -0.187 NA
HETATM   26  N   UNL     1       8.951  20.058  55.268  1.00  0.00    -0.289 N 
HETATM   27  H   UNL     1       9.205  19.408  56.004  1.00  0.00     0.188 HD
HETATM   28  C   UNL     1       8.667  21.389  55.380  1.00  0.00     0.123 A 
ENDBRANCH  19  23
ENDBRANCH   2  17
TORSDOF 4
ENDMDL
MODEL 2
REMARK VINA RESULT:      -9.7      1.225      1.856
REMARK  4 active torsions:
REMARK  status: ('A' for Active; 'I' for Inactive)
REMARK    1  A    between atoms: O_2  and  C_3 
REMARK    2  A    between atoms: C_7  and  C_8 
REMARK       I    between atoms: C_8  and  N_9 
REMARK    3  A    between atoms: N_9  and  C_10 
REMARK    4  A    between atoms: C_12  and  C_13 
ROOT
HETATM    1  C   UNL     1       6.510  27.147  55.992  1.00  0.00     0.254 C 
HETATM    2  N   UNL     1       7.594  26.714  55.258  1.00  0.00    -0.323 N 
HETATM    3  O   UNL     1       5.404  26.619  56.031  1.00  0.00    -0.268 OA
HETATM    4  H   UNL     1       8.463  27.217  55.373  1.00  0.00     0.169 HD
ENDROOT
BRANCH   1   5
HETATM    5  C   UNL     1       6.780  28.335  56.867  1.00  0.00     0.035 C 
HETATM    6  C   UNL     1       8.010  28.773  57.170  1.00  0.00     0.029 C 
HETATM    7  C   UNL     1       8.118  29.914  58.075  1.00  0.00     0.001 A 
HETATM    8  C   UNL     1       6.981  30.663  58.399  1.00  0.00     0.112 A 
HETATM    9  C   UNL     1       9.360  30.278  58.606  1.00  0.00     0.014 A 
HETATM   10  C   UNL     1       7.084  31.794  59.227  1.00  0.00     0.102 A 
HETATM   11  O   UNL     1       5.746  30.365  57.886  1.00  0.00    -0.343 OA
HETATM   12  C   UNL     1       8.328  32.136  59.764  1.00  0.00     0.040 A 
HETATM   13  C   UNL     1       9.461  31.380  59.456  1.00  0.00     0.004 A 
HETATM   14  C   UNL     1       5.548  29.042  57.364  1.00  0.00     0.220 C 
BRANCH  10  15
HETATM   15  O   UNL     1       5.919  32.477  59.473  1.00  0.00    -0.353 OA
HETATM   16  C   UNL     1       5.516  32.598  60.830  1.00  0.00     0.210 C 
ENDBRANCH  10  15
ENDBRANCH   1   5
BRANCH   2  17
HETATM   17  C   UNL     1       7.658  25.604  54.385  1.00  0.00     0.035 A 
HETATM   18  C   UNL     1       7.953  24.299  54.792  1.00  0.00     0.042 A 
HETATM   19  C   UNL     1       8.033  23.243  53.866  1.00  0.00    -0.021 A 
HETATM   20  C   UNL     1       7.782  23.518  52.515  1.00  0.00     0.012 A 
HETATM   21  C   UNL     1       7.474  24.813  52.099  1.00  0.00     0.003 A 
HETATM   22  C   UNL     1       7.420  25.851  53.028  1.00  0.00     0.029 A 
BRANCH  19  23
HETATM   23  C   UNL     1       8.380  21.889  54.284  1.00  0.00     0.010 A 
HETATM   24  C   UNL     1       8.480  20.685  53.544  1.00  0.00     0.152 A 
HETATM   25  N   UNL     1       8.852  19.641  54.289  1.00  0.00    -0.187 NA
HETATM   26  N   UNL     1       8.992  20.169  55.515  1.00  0.00    -0.289 N 
HETATM   27  H   UNL     1       9.275  19.559  56.274  1.00  0.00     0.188 HD
HETATM   28  C   UNL     1       8.726  21.507  55.564  1.00  0.00     0.123 A 
ENDBRANCH  19  23
ENDBRANCH   2  17
TORSDOF 4
ENDMDL
MODEL 3
REMARK VINA RESULT:      -9.5      3.951      6.975
REMARK  4 active torsions:
REMARK  status: ('A' for Active; 'I' for Inactive)
REMARK    1  A    between atoms: O_2  and  C_3 
REMARK    2  A    between atoms: C_7  and  C_8 
REMARK       I    between atoms: C_8  and  N_9 
REMARK    3  A    between atoms: N_9  and  C_10 
REMARK    4  A    between atoms: C_12  and  C_13 
ROOT
HETATM    1  C   UNL     1       8.333  31.073  61.499  1.00  0.00     0.254 C 
HETATM    2  N   UNL     1       7.795  30.888  60.242  1.00  0.00    -0.323 N 
HETATM    3  O   UNL     1       9.467  30.773  61.853  1.00  0.00    -0.268 OA
HETATM    4  H   UNL     1       6.863  31.242  60.080  1.00  0.00     0.169 HD
ENDROOT
BRANCH   1   5
HETATM    5  C   UNL     1       7.433  31.782  62.467  1.00  0.00     0.035 C 
HETATM    6  C   UNL     1       7.877  32.511  63.501  1.00  0.00     0.029 C 
HETATM    7  C   UNL     1       6.880  33.102  64.389  1.00  0.00     0.001 A 
HETATM    8  C   UNL     1       5.530  33.112  64.021  1.00  0.00     0.112 A 
HETATM    9  C   UNL     1       7.270  33.681  65.601  1.00  0.00     0.014 A 
HETATM   10  C   UNL     1       4.570  33.726  64.845  1.00  0.00     0.102 A 
HETATM   11  O   UNL     1       5.098  32.582  62.833  1.00  0.00    -0.343 OA
HETATM   12  C   UNL     1       4.972  34.285  66.061  1.00  0.00     0.040 A 
HETATM   13  C   UNL     1       6.316  34.261  66.438  1.00  0.00     0.004 A 
HETATM   14  C   UNL     1       5.963  31.646  62.173  1.00  0.00     0.220 C 
BRANCH  10  15
HETATM   15  O   UNL     1       3.275  33.703  64.392  1.00  0.00    -0.353 OA
HETATM   16  C   UNL     1       2.835  34.824  63.638  1.00  0.00     0.210 C 
ENDBRANCH  10  15
ENDBRANCH   1   5
BRANCH   2  17
HETATM   17  C   UNL     1       8.414  30.296  59.117  1.00  0.00     0.035 A 
HETATM   18  C   UNL     1       7.954  29.135  58.486  1.00  0.00     0.042 A 
HETATM   19  C   UNL     1       8.637  28.580  57.388  1.00  0.00    -0.021 A 
HETATM   20  C   UNL     1       9.783  29.231  56.914  1.00  0.00     0.012 A 
HETATM   21  C   UNL     1      10.243  30.397  57.526  1.00  0.00     0.003 A 
HETATM   22  C   UNL     1       9.566  30.921  58.627  1.00  0.00     0.029 A 
BRANCH  19  23
HETATM   23  C   UNL     1       8.182  27.347  56.755  1.00  0.00     0.010 A 
HETATM   24  C   UNL     1       8.268  25.998  57.179  1.00  0.00     0.152 A 
HETATM   25  N   UNL     1       7.706  25.142  56.322  1.00  0.00    -0.187 NA
HETATM   26  N   UNL     1       7.256  25.937  55.339  1.00  0.00    -0.289 N 
HETATM   27  H   UNL     1       6.780  25.510  54.552  1.00  0.00     0.188 HD
HETATM   28  C   UNL     1       7.511  27.262  55.552  1.00  0.00     0.123 A 
ENDBRANCH  19  23
ENDBRANCH   2  17
TORSDOF 4
ENDMDL
MODEL 4
REMARK VINA RESULT:      -9.0      4.723      8.253
REMARK  4 active torsions:
REMARK  status: ('A' for Active; 'I' for Inactive)
REMARK    1  A    between atoms: O_2  and  C_3 
REMARK    2  A    between atoms: C_7  and  C_8 
REMARK       I    between atoms: C_8  and  N_9 
REMARK    3  A    between atoms: N_9  and  C_10 
REMARK    4  A    between atoms: C_12  and  C_13 
ROOT
HETATM    1  C   UNL     1       5.923  26.546  52.273  1.00  0.00     0.254 C 
HETATM    2  N   UNL     1       5.637  25.320  52.837  1.00  0.00    -0.323 N 
HETATM    3  O   UNL     1       6.811  27.315  52.623  1.00  0.00    -0.268 OA
HETATM    4  H   UNL     1       4.912  24.767  52.402  1.00  0.00     0.169 HD
ENDROOT
BRANCH   1   5
HETATM    5  C   UNL     1       5.090  26.894  51.075  1.00  0.00     0.035 C 
HETATM    6  C   UNL     1       4.562  25.983  50.244  1.00  0.00     0.029 C 
HETATM    7  C   UNL     1       3.815  26.474  49.091  1.00  0.00     0.001 A 
HETATM    8  C   UNL     1       3.457  27.825  49.008  1.00  0.00     0.112 A 
HETATM    9  C   UNL     1       3.432  25.595  48.072  1.00  0.00     0.014 A 
HETATM   10  C   UNL     1       2.691  28.295  47.927  1.00  0.00     0.102 A 
HETATM   11  O   UNL     1       3.783  28.723  49.991  1.00  0.00    -0.343 OA
HETATM   12  C   UNL     1       2.331  27.410  46.908  1.00  0.00     0.040 A 
HETATM   13  C   UNL     1       2.702  26.065  46.980  1.00  0.00     0.004 A 
HETATM   14  C   UNL     1       4.850  28.367  50.883  1.00  0.00     0.220 C 
BRANCH  10  15
HETATM   15  O   UNL     1       2.372  29.630  47.943  1.00  0.00    -0.353 OA
HETATM   16  C   UNL     1       2.376  30.309  46.695  1.00  0.00     0.210 C 
ENDBRANCH  10  15
ENDBRANCH   1   5
BRANCH   2  17
HETATM   17  C   UNL     1       6.276  24.706  53.938  1.00  0.00     0.035 A 
HETATM   18  C   UNL     1       6.891  23.450  53.891  1.00  0.00     0.042 A 
HETATM   19  C   UNL     1       7.483  22.881  55.034  1.00  0.00    -0.021 A 
HETATM   20  C   UNL     1       7.470  23.613  56.228  1.00  0.00     0.012 A 
HETATM   21  C   UNL     1       6.871  24.872  56.284  1.00  0.00     0.003 A 
HETATM   22  C   UNL     1       6.272  25.411  55.146  1.00  0.00     0.029 A 
BRANCH  19  23
HETATM   23  C   UNL     1       8.088  21.555  54.996  1.00  0.00     0.010 A 
HETATM   24  C   UNL     1       8.404  20.708  53.905  1.00  0.00     0.152 A 
HETATM   25  N   UNL     1       8.981  19.563  54.279  1.00  0.00    -0.187 NA
HETATM   26  N   UNL     1       9.036  19.666  55.616  1.00  0.00    -0.289 N 
HETATM   27  H   UNL     1       9.443  18.901  56.143  1.00  0.00     0.188 HD
HETATM   28  C   UNL     1       8.521  20.837  56.093  1.00  0.00     0.123 A 
ENDBRANCH  19  23
ENDBRANCH   2  17
TORSDOF 4
ENDMDL
MODEL 5
REMARK VINA RESULT:      -8.9      8.865     13.387
REMARK  4 active torsions:
REMARK  status: ('A' for Active; 'I' for Inactive)
REMARK    1  A    between atoms: O_2  and  C_3 
REMARK    2  A    between atoms: C_7  and  C_8 
REMARK       I    between atoms: C_8  and  N_9 
REMARK    3  A    between atoms: N_9  and  C_10 
REMARK    4  A    between atoms: C_12  and  C_13 
ROOT
HETATM    1  C   UNL     1       5.723  34.189  67.046  1.00  0.00     0.254 C 
HETATM    2  N   UNL     1       6.770  34.347  66.162  1.00  0.00    -0.323 N 
HETATM    3  O   UNL     1       4.598  33.787  66.772  1.00  0.00    -0.268 OA
HETATM    4  H   UNL     1       7.661  34.630  66.544  1.00  0.00     0.169 HD
ENDROOT
BRANCH   1   5
HETATM    5  C   UNL     1       6.063  34.478  68.478  1.00  0.00     0.035 C 
HETATM    6  C   UNL     1       6.777  35.541  68.874  1.00  0.00     0.029 C 
HETATM    7  C   UNL     1       7.072  35.665  70.298  1.00  0.00     0.001 A 
HETATM    8  C   UNL     1       6.417  34.845  71.225  1.00  0.00     0.112 A 
HETATM    9  C   UNL     1       7.992  36.618  70.749  1.00  0.00     0.014 A 
HETATM   10  C   UNL     1       6.655  34.993  72.602  1.00  0.00     0.102 A 
HETATM   11  O   UNL     1       5.488  33.914  70.839  1.00  0.00    -0.343 OA
HETATM   12  C   UNL     1       7.590  35.936  73.036  1.00  0.00     0.040 A 
HETATM   13  C   UNL     1       8.257  36.744  72.112  1.00  0.00     0.004 A 
HETATM   14  C   UNL     1       5.504  33.492  69.468  1.00  0.00     0.220 C 
BRANCH  10  15
HETATM   15  O   UNL     1       5.953  34.158  73.434  1.00  0.00    -0.353 OA
HETATM   16  C   UNL     1       4.692  34.620  73.899  1.00  0.00     0.210 C 
ENDBRANCH  10  15
ENDBRANCH   1   5
BRANCH   2  17
HETATM   17  C   UNL     1       6.767  34.109  64.769  1.00  0.00     0.035 A 
HETATM   18  C   UNL     1       7.510  33.105  64.140  1.00  0.00     0.042 A 
HETATM   19  C   UNL     1       7.486  32.943  62.742  1.00  0.00    -0.021 A 
HETATM   20  C   UNL     1       6.676  33.797  61.983  1.00  0.00     0.012 A 
HETATM   21  C   UNL     1       5.920  34.794  62.600  1.00  0.00     0.003 A 
HETATM   22  C   UNL     1       5.972  34.953  63.985  1.00  0.00     0.029 A 
BRANCH  19  23
HETATM   23  C   UNL     1       8.292  31.922  62.082  1.00  0.00     0.010 A 
HETATM   24  C   UNL     1       8.760  30.666  62.542  1.00  0.00     0.152 A 
HETATM   25  N   UNL     1       9.459  29.997  61.621  1.00  0.00    -0.187 NA
HETATM   26  N   UNL     1       9.446  30.822  60.562  1.00  0.00    -0.289 N 
HETATM   27  H   UNL     1       9.923  30.530  59.716  1.00  0.00     0.188 HD
HETATM   28  C   UNL     1       8.759  31.981  60.784  1.00  0.00     0.123 A 
ENDBRANCH  19  23
ENDBRANCH   2  17
TORSDOF 4
ENDMDL
MODEL 6
REMARK VINA RESULT:      -8.8      9.993     16.167
REMARK  4 active torsions:
REMARK  status: ('A' for Active; 'I' for Inactive)
REMARK    1  A    between atoms: O_2  and  C_3 
REMARK    2  A    between atoms: C_7  and  C_8 
REMARK       I    between atoms: C_8  and  N_9 
REMARK    3  A    between atoms: N_9  and  C_10 
REMARK    4  A    between atoms: C_12  and  C_13 
ROOT
HETATM    1  C   UNL     1       5.629  34.443  67.243  1.00  0.00     0.254 C 
HETATM    2  N   UNL     1       6.581  34.019  68.147  1.00  0.00    -0.323 N 
HETATM    3  O   UNL     1       4.731  35.248  67.461  1.00  0.00    -0.268 OA
HETATM    4  H   UNL     1       7.299  33.396  67.806  1.00  0.00     0.169 HD
ENDROOT
BRANCH   1   5
HETATM    5  C   UNL     1       5.796  33.898  65.856  1.00  0.00     0.035 C 
HETATM    6  C   UNL     1       6.959  33.439  65.370  1.00  0.00     0.029 C 
HETATM    7  C   UNL     1       6.980  32.984  63.984  1.00  0.00     0.001 A 
HETATM    8  C   UNL     1       5.780  32.801  63.286  1.00  0.00     0.112 A 
HETATM    9  C   UNL     1       8.196  32.706  63.350  1.00  0.00     0.014 A 
HETATM   10  C   UNL     1       5.788  32.313  61.968  1.00  0.00     0.102 A 
HETATM   11  O   UNL     1       4.561  33.033  63.868  1.00  0.00    -0.343 OA
HETATM   12  C   UNL     1       7.011  32.056  61.342  1.00  0.00     0.040 A 
HETATM   13  C   UNL     1       8.210  32.254  62.031  1.00  0.00     0.004 A 
HETATM   14  C   UNL     1       4.533  33.865  65.037  1.00  0.00     0.220 C 
BRANCH  10  15
HETATM   15  O   UNL     1       4.563  32.148  61.373  1.00  0.00    -0.353 OA
HETATM   16  C   UNL     1       4.320  32.881  60.180  1.00  0.00     0.210 C 
ENDBRANCH  10  15
ENDBRANCH   1   5
BRANCH   2  17
HETATM   17  C   UNL     1       6.709  34.392  69.504  1.00  0.00     0.035 A 
HETATM   18  C   UNL     1       7.161  35.643  69.938  1.00  0.00     0.042 A 
HETATM   19  C   UNL     1       7.296  35.939  71.306  1.00  0.00    -0.021 A 
HETATM   20  C   UNL     1       6.939  34.959  72.241  1.00  0.00     0.012 A 
HETATM   21  C   UNL     1       6.474  33.712  71.822  1.00  0.00     0.003 A 
HETATM   22  C   UNL     1       6.367  33.429  70.460  1.00  0.00     0.029 A 
BRANCH  19  23
HETATM   23  C   UNL     1       7.806  37.229  71.759  1.00  0.00     0.010 A 
HETATM   24  C   UNL     1       8.236  38.365  71.030  1.00  0.00     0.152 A 
HETATM   25  N   UNL     1       8.617  39.378  71.813  1.00  0.00    -0.187 NA
HETATM   26  N   UNL     1       8.436  38.896  73.053  1.00  0.00    -0.289 N 
HETATM   27  H   UNL     1       8.661  39.493  73.841  1.00  0.00     0.188 HD
HETATM   28  C   UNL     1       7.949  37.620  73.074  1.00  0.00     0.123 A 
ENDBRANCH  19  23
ENDBRANCH   2  17
TORSDOF 4
ENDMDL
MODEL 7
REMARK VINA RESULT:      -8.7      3.791     10.134
REMARK  4 active torsions:
REMARK  status: ('A' for Active; 'I' for Inactive)
REMARK    1  A    between atoms: O_2  and  C_3 
REMARK    2  A    between atoms: C_7  and  C_8 
REMARK       I    between atoms: C_8  and  N_9 
REMARK    3  A    between atoms: N_9  and  C_10 
REMARK    4  A    between atoms: C_12  and  C_13 
ROOT
HETATM    1  C   UNL     1       8.571  29.728  58.024  1.00  0.00     0.254 C 
HETATM    2  N   UNL     1       7.856  29.804  59.201  1.00  0.00    -0.323 N 
HETATM    3  O   UNL     1       9.489  30.466  57.685  1.00  0.00    -0.268 OA
HETATM    4  H   UNL     1       7.165  29.087  59.371  1.00  0.00     0.169 HD
ENDROOT
BRANCH   1   5
HETATM    5  C   UNL     1       8.206  28.571  57.143  1.00  0.00     0.035 C 
HETATM    6  C   UNL     1       7.706  27.414  57.601  1.00  0.00     0.029 C 
HETATM    7  C   UNL     1       7.443  26.358  56.628  1.00  0.00     0.001 A 
HETATM    8  C   UNL     1       7.476  26.642  55.257  1.00  0.00     0.112 A 
HETATM    9  C   UNL     1       7.137  25.062  57.057  1.00  0.00     0.014 A 
HETATM   10  C   UNL     1       7.173  25.645  54.314  1.00  0.00     0.102 A 
HETATM   11  O   UNL     1       7.745  27.900  54.784  1.00  0.00    -0.343 OA
HETATM   12  C   UNL     1       6.885  24.351  54.757  1.00  0.00     0.040 A 
HETATM   13  C   UNL     1       6.869  24.061  56.123  1.00  0.00     0.004 A 
HETATM   14  C   UNL     1       8.408  28.813  55.671  1.00  0.00     0.220 C 
BRANCH  10  15
HETATM   15  O   UNL     1       7.211  26.022  52.995  1.00  0.00    -0.353 OA
HETATM   16  C   UNL     1       7.835  25.127  52.085  1.00  0.00     0.210 C 
ENDBRANCH  10  15
ENDBRANCH   1   5
BRANCH   2  17
HETATM   17  C   UNL     1       8.003  30.750  60.241  1.00  0.00     0.035 A 
HETATM   18  C   UNL     1       7.044  31.713  60.571  1.00  0.00     0.042 A 
HETATM   19  C   UNL     1       7.268  32.647  61.599  1.00  0.00    -0.021 A 
HETATM   20  C   UNL     1       8.471  32.579  62.315  1.00  0.00     0.012 A 
HETATM   21  C   UNL     1       9.429  31.614  62.004  1.00  0.00     0.003 A 
HETATM   22  C   UNL     1       9.199  30.710  60.967  1.00  0.00     0.029 A 
BRANCH  19  23
HETATM   23  C   UNL     1       6.286  33.678  61.917  1.00  0.00     0.010 A 
HETATM   24  C   UNL     1       5.196  34.186  61.167  1.00  0.00     0.152 A 
HETATM   25  N   UNL     1       4.504  35.124  61.818  1.00  0.00    -0.187 NA
HETATM   26  N   UNL     1       5.147  35.226  62.991  1.00  0.00    -0.289 N 
HETATM   27  H   UNL     1       4.802  35.891  63.675  1.00  0.00     0.188 HD
HETATM   28  C   UNL     1       6.214  34.382  63.101  1.00  0.00     0.123 A 
ENDBRANCH  19  23
ENDBRANCH   2  17
TORSDOF 4
ENDMDL
MODEL 8
REMARK VINA RESULT:      -8.7      5.224      9.017
REMARK  4 active torsions:
REMARK  status: ('A' for Active; 'I' for Inactive)
REMARK    1  A    between atoms: O_2  and  C_3 
REMARK    2  A    between atoms: C_7  and  C_8 
REMARK       I    between atoms: C_8  and  N_9 
REMARK    3  A    between atoms: N_9  and  C_10 
REMARK    4  A    between atoms: C_12  and  C_13 
ROOT
HETATM    1  C   UNL     1       5.200  26.366  51.850  1.00  0.00     0.254 C 
HETATM    2  N   UNL     1       5.350  26.101  50.505  1.00  0.00    -0.323 N 
HETATM    3  O   UNL     1       4.465  27.215  52.343  1.00  0.00    -0.268 OA
HETATM    4  H   UNL     1       5.948  25.328  50.249  1.00  0.00     0.169 HD
ENDROOT
BRANCH   1   5
HETATM    5  C   UNL     1       5.970  25.455  52.758  1.00  0.00     0.035 C 
HETATM    6  C   UNL     1       6.852  24.543  52.326  1.00  0.00     0.029 C 
HETATM    7  C   UNL     1       7.490  23.692  53.325  1.00  0.00     0.001 A 
HETATM    8  C   UNL     1       7.371  23.996  54.686  1.00  0.00     0.112 A 
HETATM    9  C   UNL     1       8.243  22.581  52.929  1.00  0.00     0.014 A 
HETATM   10  C   UNL     1       8.025  23.212  55.653  1.00  0.00     0.102 A 
HETATM   11  O   UNL     1       6.667  25.087  55.126  1.00  0.00    -0.343 OA
HETATM   12  C   UNL     1       8.759  22.096  55.244  1.00  0.00     0.040 A 
HETATM   13  C   UNL     1       8.866  21.781  53.887  1.00  0.00     0.004 A 
HETATM   14  C   UNL     1       5.708  25.662  54.226  1.00  0.00     0.220 C 
BRANCH  10  15
HETATM   15  O   UNL     1       7.865  23.599  56.960  1.00  0.00    -0.353 OA
HETATM   16  C   UNL     1       8.892  24.402  57.525  1.00  0.00     0.210 C 
ENDBRANCH  10  15
ENDBRANCH   1   5
BRANCH   2  17
HETATM   17  C   UNL     1       4.724  26.756  49.420  1.00  0.00     0.035 A 
HETATM   18  C   UNL     1       4.972  28.082  49.052  1.00  0.00     0.042 A 
HETATM   19  C   UNL     1       4.289  28.684  47.979  1.00  0.00    -0.021 A 
HETATM   20  C   UNL     1       3.364  27.917  47.260  1.00  0.00     0.012 A 
HETATM   21  C   UNL     1       3.117  26.589  47.610  1.00  0.00     0.003 A 
HETATM   22  C   UNL     1       3.788  26.015  48.689  1.00  0.00     0.029 A 
BRANCH  19  23
HETATM   23  C   UNL     1       4.517  30.079  47.620  1.00  0.00     0.010 A 
HETATM   24  C   UNL     1       4.614  31.242  48.423  1.00  0.00     0.152 A 
HETATM   25  N   UNL     1       4.856  32.349  47.717  1.00  0.00    -0.187 NA
HETATM   26  N   UNL     1       4.915  31.904  46.452  1.00  0.00    -0.289 N 
HETATM   27  H   UNL     1       5.093  32.574  45.712  1.00  0.00     0.188 HD
HETATM   28  C   UNL     1       4.724  30.556  46.341  1.00  0.00     0.123 A 
ENDBRANCH  19  23
ENDBRANCH   2  17
TORSDOF 4
ENDMDL
MODEL 9
REMARK VINA RESULT:      -8.5      5.336      8.915
REMARK  4 active torsions:
REMARK  status: ('A' for Active; 'I' for Inactive)
REMARK    1  A    between atoms: O_2  and  C_3 
REMARK    2  A    between atoms: C_7  and  C_8 
REMARK       I    between atoms: C_8  and  N_9 
REMARK    3  A    between atoms: N_9  and  C_10 
REMARK    4  A    between atoms: C_12  and  C_13 
ROOT
HETATM    1  C   UNL     1       5.728  26.384  52.857  1.00  0.00     0.254 C 
HETATM    2  N   UNL     1       5.804  26.486  51.483  1.00  0.00    -0.323 N 
HETATM    3  O   UNL     1       5.116  27.136  53.607  1.00  0.00    -0.268 OA
HETATM    4  H   UNL     1       6.297  25.755  50.991  1.00  0.00     0.169 HD
ENDROOT
BRANCH   1   5
HETATM    5  C   UNL     1       6.413  25.181  53.435  1.00  0.00     0.035 C 
HETATM    6  C   UNL     1       6.909  24.178  52.695  1.00  0.00     0.029 C 
HETATM    7  C   UNL     1       7.505  23.048  53.400  1.00  0.00     0.001 A 
HETATM    8  C   UNL     1       7.771  23.137  54.772  1.00  0.00     0.112 A 
HETATM    9  C   UNL     1       7.836  21.879  52.707  1.00  0.00     0.014 A 
HETATM   10  C   UNL     1       8.393  22.074  55.449  1.00  0.00     0.102 A 
HETATM   11  O   UNL     1       7.491  24.269  55.492  1.00  0.00    -0.343 OA
HETATM   12  C   UNL     1       8.702  20.905  54.747  1.00  0.00     0.040 A 
HETATM   13  C   UNL     1       8.422  20.808  53.382  1.00  0.00     0.004 A 
HETATM   14  C   UNL     1       6.543  25.191  54.934  1.00  0.00     0.220 C 
BRANCH  10  15
HETATM   15  O   UNL     1       8.631  22.261  56.787  1.00  0.00    -0.353 OA
HETATM   16  C   UNL     1       8.297  21.189  57.658  1.00  0.00     0.210 C 
ENDBRANCH  10  15
ENDBRANCH   1   5
BRANCH   2  17
HETATM   17  C   UNL     1       5.226  27.477  50.658  1.00  0.00     0.035 A 
HETATM   18  C   UNL     1       4.188  27.238  49.751  1.00  0.00     0.042 A 
HETATM   19  C   UNL     1       3.679  28.265  48.935  1.00  0.00    -0.021 A 
HETATM   20  C   UNL     1       4.215  29.552  49.066  1.00  0.00     0.012 A 
HETATM   21  C   UNL     1       5.241  29.805  49.976  1.00  0.00     0.003 A 
HETATM   22  C   UNL     1       5.748  28.771  50.762  1.00  0.00     0.029 A 
BRANCH  19  23
HETATM   23  C   UNL     1       2.625  28.008  47.960  1.00  0.00     0.010 A 
HETATM   24  C   UNL     1       1.675  26.960  47.872  1.00  0.00     0.152 A 
HETATM   25  N   UNL     1       0.847  27.088  46.832  1.00  0.00    -0.187 NA
HETATM   26  N   UNL     1       1.262  28.221  46.243  1.00  0.00    -0.289 N 
HETATM   27  H   UNL     1       0.777  28.538  45.410  1.00  0.00     0.188 HD
HETATM   28  C   UNL     1       2.316  28.810  46.880  1.00  0.00     0.123 A 
ENDBRANCH  19  23
ENDBRANCH   2  17
TORSDOF 4
ENDMDL
MODEL 10
REMARK VINA RESULT:      -8.5      3.850      6.399
REMARK  4 active torsions:
REMARK  status: ('A' for Active; 'I' for Inactive)
REMARK    1  A    between atoms: O_2  and  C_3 
REMARK    2  A    between atoms: C_7  and  C_8 
REMARK       I    between atoms: C_8  and  N_9 
REMARK    3  A    between atoms: N_9  and  C_10 
REMARK    4  A    between atoms: C_12  and  C_13 
ROOT
HETATM    1  C   UNL     1       6.713  32.113  59.612  1.00  0.00     0.254 C 
HETATM    2  N   UNL     1       7.541  31.030  59.823  1.00  0.00    -0.323 N 
HETATM    3  O   UNL     1       6.423  32.603  58.527  1.00  0.00    -0.268 OA
HETATM    4  H   UNL     1       7.639  30.699  60.772  1.00  0.00     0.169 HD
ENDROOT
BRANCH   1   5
HETATM    5  C   UNL     1       6.072  32.661  60.852  1.00  0.00     0.035 C 
HETATM    6  C   UNL     1       4.746  32.720  61.042  1.00  0.00     0.029 C 
HETATM    7  C   UNL     1       4.266  33.326  62.280  1.00  0.00     0.001 A 
HETATM    8  C   UNL     1       5.161  33.596  63.323  1.00  0.00     0.112 A 
HETATM    9  C   UNL     1       2.908  33.621  62.442  1.00  0.00     0.014 A 
HETATM   10  C   UNL     1       4.699  34.130  64.538  1.00  0.00     0.102 A 
HETATM   11  O   UNL     1       6.496  33.302  63.226  1.00  0.00    -0.343 OA
HETATM   12  C   UNL     1       3.343  34.436  64.679  1.00  0.00     0.040 A 
HETATM   13  C   UNL     1       2.452  34.183  63.634  1.00  0.00     0.004 A 
HETATM   14  C   UNL     1       7.040  33.119  61.911  1.00  0.00     0.220 C 
BRANCH  10  15
HETATM   15  O   UNL     1       5.647  34.342  65.508  1.00  0.00    -0.353 OA
HETATM   16  C   UNL     1       5.233  34.189  66.859  1.00  0.00     0.210 C 
ENDBRANCH  10  15
ENDBRANCH   1   5
BRANCH   2  17
HETATM   17  C   UNL     1       8.245  30.280  58.853  1.00  0.00     0.035 A 
HETATM   18  C   UNL     1       7.771  29.096  58.277  1.00  0.00     0.042 A 
HETATM   19  C   UNL     1       8.537  28.380  57.339  1.00  0.00    -0.021 A 
HETATM   20  C   UNL     1       9.787  28.892  56.966  1.00  0.00     0.012 A 
HETATM   21  C   UNL     1      10.265  30.078  57.523  1.00  0.00     0.003 A 
HETATM   22  C   UNL     1       9.500  30.763  58.467  1.00  0.00     0.029 A 
BRANCH  19  23
HETATM   23  C   UNL     1       8.062  27.125  56.769  1.00  0.00     0.010 A 
HETATM   24  C   UNL     1       7.369  26.856  55.562  1.00  0.00     0.152 A 
HETATM   25  N   UNL     1       7.125  25.556  55.376  1.00  0.00    -0.187 NA
HETATM   26  N   UNL     1       7.659  24.981  56.465  1.00  0.00    -0.289 N 
HETATM   27  H   UNL     1       7.599  23.973  56.557  1.00  0.00     0.188 HD
HETATM   28  C   UNL     1       8.234  25.874  57.324  1.00  0.00     0.123 A 
ENDBRANCH  19  23
ENDBRANCH   2  17
TORSDOF 4
ENDMDL
