MODEL 1
REMARK VINA RESULT:     -10.5      0.000      0.000
REMARK  5 active torsions:
REMARK  status: ('A' for Active; 'I' for Inactive)
REMARK    1  A    between atoms: C_2  and  O_3 
REMARK    2  A    between atoms: O_3  and  C_4 
REMARK       I    between atoms: N_10  and  C_11 
REMARK    3  A    between atoms: C_11  and  C_13 
REMARK    4  A    between atoms: C_13  and  C_14 
REMARK    5  A    between atoms: C_17  and  C_20 
ROOT
HETATM    1  C   UNL     1       6.327  29.736  56.731  1.00  0.00    -0.049 A 
HETATM    2  C   UNL     1       7.601  29.407  56.241  1.00  0.00     0.008 A 
HETATM    3  C   UNL     1       7.999  28.073  56.144  1.00  0.00     0.014 A 
HETATM    4  C   UNL     1       7.113  27.059  56.518  1.00  0.00    -0.005 A 
HETATM    5  C   UNL     1       5.856  27.371  57.035  1.00  0.00     0.014 A 
HETATM    6  C   UNL     1       5.462  28.706  57.135  1.00  0.00     0.008 A 
ENDROOT
BRANCH   1   7
HETATM    7  C   UNL     1       5.881  31.182  56.804  1.00  0.00     0.141 C 
BRANCH   7   8
HETATM    8  C   UNL     1       5.032  31.513  58.021  1.00  0.00     0.228 C 
HETATM    9  N   UNL     1       5.656  31.791  59.226  1.00  0.00    -0.317 N 
HETATM   10  C   UNL     1       4.814  32.080  60.397  1.00  0.00     0.137 A 
HETATM   11  C   UNL     1       7.008  31.898  59.606  1.00  0.00     0.046 A 
HETATM   12  C   UNL     1       5.733  32.319  61.593  1.00  0.00     0.061 A 
HETATM   13  C   UNL     1       7.085  32.214  60.965  1.00  0.00    -0.029 A 
HETATM   14  C   UNL     1       8.301  32.388  61.611  1.00  0.00     0.012 A 
HETATM   15  C   UNL     1       9.475  32.248  60.873  1.00  0.00     0.037 A 
HETATM   16  C   UNL     1       9.418  31.935  59.509  1.00  0.00     0.070 A 
HETATM   17  C   UNL     1       8.176  31.756  58.876  1.00  0.00     0.067 A 
HETATM   18  O   UNL     1       3.797  31.533  57.950  1.00  0.00    -0.273 OA
BRANCH  16  19
HETATM   19  O   UNL     1      10.499  31.775  58.681  1.00  0.00    -0.351 OA
BRANCH  19  20
HETATM   20  C   UNL     1      10.291  31.051  57.470  1.00  0.00     0.171 C 
HETATM   21  C   UNL     1      11.324  29.941  57.405  1.00  0.00     0.034 C 
ENDBRANCH  19  20
ENDBRANCH  16  19
ENDBRANCH   7   8
ENDBRANCH   1   7
BRANCH   4  22
HETATM   22  C   UNL     1       7.510  25.636  56.398  1.00  0.00     0.098 A 
HETATM   23  N   UNL     1       7.756  24.998  57.505  1.00  0.00    -0.170 NA
HETATM   24  N   UNL     1       8.163  23.703  57.430  1.00  0.00    -0.242 N 
HETATM   25  C   UNL     1       8.386  22.990  56.277  1.00  0.00     0.272 A 
HETATM   26  H   UNL     1       8.369  23.242  58.310  1.00  0.00     0.192 HD
HETATM   27  O   UNL     1       8.805  21.838  56.287  1.00  0.00    -0.266 OA
HETATM   28  C   UNL     1       8.075  23.683  55.017  1.00  0.00     0.046 A 
HETATM   29  C   UNL     1       8.216  23.015  53.793  1.00  0.00     0.018 A 
HETATM   30  C   UNL     1       7.612  24.996  55.061  1.00  0.00     0.011 A 
HETATM   31  C   UNL     1       7.873  23.662  52.607  1.00  0.00     0.001 A 
HETATM   32  C   UNL     1       7.380  24.966  52.645  1.00  0.00     0.001 A 
HETATM   33  C   UNL     1       7.241  25.631  53.867  1.00  0.00     0.015 A 
ENDBRANCH   4  22
TORSDOF 5
ENDMDL
MODEL 2
REMARK VINA RESULT:      -9.9      6.437      8.757
REMARK  5 active torsions:
REMARK  status: ('A' for Active; 'I' for Inactive)
REMARK    1  A    between atoms: C_2  and  O_3 
REMARK    2  A    between atoms: O_3  and  C_4 
REMARK       I    between atoms: N_10  and  C_11 
REMARK    3  A    between atoms: C_11  and  C_13 
REMARK    4  A    between atoms: C_13  and  C_14 
REMARK    5  A    between atoms: C_17  and  C_20 
ROOT
HETATM    1  C   UNL     1       5.854  26.404  51.834  1.00  0.00    -0.049 A 
HETATM    2  C   UNL     1       7.211  26.373  52.191  1.00  0.00     0.008 A 
HETATM    3  C   UNL     1       7.665  25.489  53.171  1.00  0.00     0.014 A 
HETATM    4  C   UNL     1       6.762  24.614  53.783  1.00  0.00    -0.005 A 
HETATM    5  C   UNL     1       5.406  24.654  53.460  1.00  0.00     0.014 A 
HETATM    6  C   UNL     1       4.955  25.543  52.484  1.00  0.00     0.008 A 
ENDROOT
BRANCH   1   7
HETATM    7  C   UNL     1       5.367  27.340  50.746  1.00  0.00     0.141 C 
BRANCH   7   8
HETATM    8  C   UNL     1       4.852  28.676  51.257  1.00  0.00     0.228 C 
HETATM    9  N   UNL     1       3.769  29.268  50.629  1.00  0.00    -0.317 N 
HETATM   10  C   UNL     1       3.305  30.575  51.121  1.00  0.00     0.137 A 
HETATM   11  C   UNL     1       2.931  28.863  49.571  1.00  0.00     0.046 A 
HETATM   12  C   UNL     1       2.133  31.021  50.250  1.00  0.00     0.061 A 
HETATM   13  C   UNL     1       1.969  29.849  49.336  1.00  0.00    -0.029 A 
HETATM   14  C   UNL     1       1.002  29.712  48.350  1.00  0.00     0.012 A 
HETATM   15  C   UNL     1       0.994  28.550  47.580  1.00  0.00     0.037 A 
HETATM   16  C   UNL     1       1.948  27.549  47.803  1.00  0.00     0.070 A 
HETATM   17  C   UNL     1       2.924  27.711  48.802  1.00  0.00     0.067 A 
HETATM   18  O   UNL     1       5.387  29.240  52.219  1.00  0.00    -0.273 OA
BRANCH  16  19
HETATM   19  O   UNL     1       2.040  26.367  47.115  1.00  0.00    -0.351 OA
BRANCH  19  20
HETATM   20  C   UNL     1       3.247  25.619  47.262  1.00  0.00     0.171 C 
HETATM   21  C   UNL     1       2.913  24.331  47.993  1.00  0.00     0.034 C 
ENDBRANCH  19  20
ENDBRANCH  16  19
ENDBRANCH   7   8
ENDBRANCH   1   7
BRANCH   4  22
HETATM   22  C   UNL     1       7.230  23.650  54.807  1.00  0.00     0.098 A 
HETATM   23  N   UNL     1       7.152  24.028  56.050  1.00  0.00    -0.170 NA
HETATM   24  N   UNL     1       7.612  23.185  57.013  1.00  0.00    -0.242 N 
HETATM   25  C   UNL     1       8.202  21.963  56.804  1.00  0.00     0.272 A 
HETATM   26  H   UNL     1       7.557  23.519  57.969  1.00  0.00     0.192 HD
HETATM   27  O   UNL     1       8.641  21.279  57.723  1.00  0.00    -0.266 OA
HETATM   28  C   UNL     1       8.263  21.503  55.409  1.00  0.00     0.046 A 
HETATM   29  C   UNL     1       8.795  20.242  55.105  1.00  0.00     0.018 A 
HETATM   30  C   UNL     1       7.759  22.323  54.401  1.00  0.00     0.011 A 
HETATM   31  C   UNL     1       8.806  19.794  53.786  1.00  0.00     0.001 A 
HETATM   32  C   UNL     1       8.275  20.596  52.776  1.00  0.00     0.001 A 
HETATM   33  C   UNL     1       7.746  21.854  53.080  1.00  0.00     0.015 A 
ENDBRANCH   4  22
TORSDOF 5
ENDMDL
MODEL 3
REMARK VINA RESULT:      -9.7      2.365      3.282
REMARK  5 active torsions:
REMARK  status: ('A' for Active; 'I' for Inactive)
REMARK    1  A    between atoms: C_2  and  O_3 
REMARK    2  A    between atoms: O_3  and  C_4 
REMARK       I    between atoms: N_10  and  C_11 
REMARK    3  A    between atoms: C_11  and  C_13 
REMARK    4  A    between atoms: C_13  and  C_14 
REMARK    5  A    between atoms: C_17  and  C_20 
ROOT
HETATM    1  C   UNL     1       4.509  31.707  57.592  1.00  0.00    -0.049 A 
HETATM    2  C   UNL     1       3.614  30.644  57.783  1.00  0.00     0.008 A 
HETATM    3  C   UNL     1       3.765  29.454  57.069  1.00  0.00     0.014 A 
HETATM    4  C   UNL     1       4.829  29.317  56.173  1.00  0.00    -0.005 A 
HETATM    5  C   UNL     1       5.709  30.376  55.950  1.00  0.00     0.014 A 
HETATM    6  C   UNL     1       5.553  31.566  56.662  1.00  0.00     0.008 A 
ENDROOT
BRANCH   1   7
HETATM    7  C   UNL     1       4.366  32.987  58.392  1.00  0.00     0.141 C 
BRANCH   7   8
HETATM    8  C   UNL     1       3.856  32.783  59.809  1.00  0.00     0.228 C 
HETATM    9  N   UNL     1       4.755  32.467  60.813  1.00  0.00    -0.317 N 
HETATM   10  C   UNL     1       4.235  32.246  62.171  1.00  0.00     0.137 A 
HETATM   11  C   UNL     1       6.157  32.328  60.839  1.00  0.00     0.046 A 
HETATM   12  C   UNL     1       5.411  31.884  63.076  1.00  0.00     0.061 A 
HETATM   13  C   UNL     1       6.567  32.003  62.136  1.00  0.00    -0.029 A 
HETATM   14  C   UNL     1       7.904  31.813  62.457  1.00  0.00     0.012 A 
HETATM   15  C   UNL     1       8.859  31.958  61.452  1.00  0.00     0.037 A 
HETATM   16  C   UNL     1       8.467  32.287  60.148  1.00  0.00     0.070 A 
HETATM   17  C   UNL     1       7.108  32.468  59.842  1.00  0.00     0.067 A 
HETATM   18  O   UNL     1       2.652  32.893  60.074  1.00  0.00    -0.273 OA
BRANCH  16  19
HETATM   19  O   UNL     1       9.310  32.459  59.081  1.00  0.00    -0.351 OA
BRANCH  19  20
HETATM   20  C   UNL     1      10.175  31.373  58.751  1.00  0.00     0.171 C 
HETATM   21  C   UNL     1       9.381  30.376  57.927  1.00  0.00     0.034 C 
ENDBRANCH  19  20
ENDBRANCH  16  19
ENDBRANCH   7   8
ENDBRANCH   1   7
BRANCH   4  22
HETATM   22  C   UNL     1       5.020  28.052  55.425  1.00  0.00     0.098 A 
HETATM   23  N   UNL     1       4.405  27.945  54.284  1.00  0.00    -0.170 NA
HETATM   24  N   UNL     1       4.524  26.781  53.590  1.00  0.00    -0.242 N 
HETATM   25  C   UNL     1       5.211  25.663  53.997  1.00  0.00     0.272 A 
HETATM   26  H   UNL     1       4.013  26.722  52.716  1.00  0.00     0.192 HD
HETATM   27  O   UNL     1       5.231  24.628  53.340  1.00  0.00    -0.266 OA
HETATM   28  C   UNL     1       5.945  25.781  55.266  1.00  0.00     0.046 A 
HETATM   29  C   UNL     1       6.722  24.711  55.731  1.00  0.00     0.018 A 
HETATM   30  C   UNL     1       5.882  26.976  55.980  1.00  0.00     0.011 A 
HETATM   31  C   UNL     1       7.454  24.847  56.910  1.00  0.00     0.001 A 
HETATM   32  C   UNL     1       7.419  26.050  57.613  1.00  0.00     0.001 A 
HETATM   33  C   UNL     1       6.642  27.117  57.148  1.00  0.00     0.015 A 
ENDBRANCH   4  22
TORSDOF 5
ENDMDL
MODEL 4
REMARK VINA RESULT:      -9.6      1.412      2.102
REMARK  5 active torsions:
REMARK  status: ('A' for Active; 'I' for Inactive)
REMARK    1  A    between atoms: C_2  and  O_3 
REMARK    2  A    between atoms: O_3  and  C_4 
REMARK       I    between atoms: N_10  and  C_11 
REMARK    3  A    between atoms: C_11  and  C_13 
REMARK    4  A    between atoms: C_13  and  C_14 
REMARK    5  A    between atoms: C_17  and  C_20 
ROOT
HETATM    1  C   UNL     1       6.797  30.095  57.791  1.00  0.00    -0.049 A 
HETATM    2  C   UNL     1       8.116  29.616  57.756  1.00  0.00     0.008 A 
HETATM    3  C   UNL     1       8.377  28.283  57.436  1.00  0.00     0.014 A 
HETATM    4  C   UNL     1       7.316  27.426  57.129  1.00  0.00    -0.005 A 
HETATM    5  C   UNL     1       5.998  27.879  57.190  1.00  0.00     0.014 A 
HETATM    6  C   UNL     1       5.740  29.212  57.514  1.00  0.00     0.008 A 
ENDROOT
BRANCH   1   7
HETATM    7  C   UNL     1       6.515  31.550  58.104  1.00  0.00     0.141 C 
BRANCH   7   8
HETATM    8  C   UNL     1       5.074  31.838  58.490  1.00  0.00     0.228 C 
HETATM    9  N   UNL     1       4.775  32.155  59.805  1.00  0.00    -0.317 N 
HETATM   10  C   UNL     1       3.370  32.401  60.162  1.00  0.00     0.137 A 
HETATM   11  C   UNL     1       5.571  32.337  60.954  1.00  0.00     0.046 A 
HETATM   12  C   UNL     1       3.306  32.695  61.659  1.00  0.00     0.061 A 
HETATM   13  C   UNL     1       4.751  32.662  62.039  1.00  0.00    -0.029 A 
HETATM   14  C   UNL     1       5.269  32.905  63.303  1.00  0.00     0.012 A 
HETATM   15  C   UNL     1       6.649  32.827  63.486  1.00  0.00     0.037 A 
HETATM   16  C   UNL     1       7.486  32.507  62.410  1.00  0.00     0.070 A 
HETATM   17  C   UNL     1       6.940  32.257  61.139  1.00  0.00     0.067 A 
HETATM   18  O   UNL     1       4.167  31.790  57.649  1.00  0.00    -0.273 OA
BRANCH  16  19
HETATM   19  O   UNL     1       8.852  32.403  62.464  1.00  0.00    -0.351 OA
BRANCH  19  20
HETATM   20  C   UNL     1       9.486  31.605  61.466  1.00  0.00     0.171 C 
HETATM   21  C   UNL     1       9.575  30.183  61.991  1.00  0.00     0.034 C 
ENDBRANCH  19  20
ENDBRANCH  16  19
ENDBRANCH   7   8
ENDBRANCH   1   7
BRANCH   4  22
HETATM   22  C   UNL     1       7.575  26.013  56.763  1.00  0.00     0.098 A 
HETATM   23  N   UNL     1       7.759  25.176  57.742  1.00  0.00    -0.170 NA
HETATM   24  N   UNL     1       8.041  23.880  57.442  1.00  0.00    -0.242 N 
HETATM   25  C   UNL     1       8.196  23.357  56.181  1.00  0.00     0.272 A 
HETATM   26  H   UNL     1       8.201  23.259  58.227  1.00  0.00     0.192 HD
HETATM   27  O   UNL     1       8.503  22.185  55.989  1.00  0.00    -0.266 OA
HETATM   28  C   UNL     1       7.953  24.281  55.063  1.00  0.00     0.046 A 
HETATM   29  C   UNL     1       8.030  23.821  53.741  1.00  0.00     0.018 A 
HETATM   30  C   UNL     1       7.617  25.605  55.336  1.00  0.00     0.011 A 
HETATM   31  C   UNL     1       7.752  24.690  52.687  1.00  0.00     0.001 A 
HETATM   32  C   UNL     1       7.385  26.008  52.954  1.00  0.00     0.001 A 
HETATM   33  C   UNL     1       7.309  26.466  54.273  1.00  0.00     0.015 A 
ENDBRANCH   4  22
TORSDOF 5
ENDMDL
MODEL 5
REMARK VINA RESULT:      -9.6      1.675      3.543
REMARK  5 active torsions:
REMARK  status: ('A' for Active; 'I' for Inactive)
REMARK    1  A    between atoms: C_2  and  O_3 
REMARK    2  A    between atoms: O_3  and  C_4 
REMARK       I    between atoms: N_10  and  C_11 
REMARK    3  A    between atoms: C_11  and  C_13 
REMARK    4  A    between atoms: C_13  and  C_14 
REMARK    5  A    between atoms: C_17  and  C_20 
ROOT
HETATM    1  C   UNL     1       7.462  29.265  57.768  1.00  0.00    -0.049 A 
HETATM    2  C   UNL     1       6.265  28.586  57.494  1.00  0.00     0.008 A 
HETATM    3  C   UNL     1       6.289  27.300  56.952  1.00  0.00     0.014 A 
HETATM    4  C   UNL     1       7.516  26.679  56.703  1.00  0.00    -0.005 A 
HETATM    5  C   UNL     1       8.714  27.353  56.941  1.00  0.00     0.014 A 
HETATM    6  C   UNL     1       8.686  28.640  57.479  1.00  0.00     0.008 A 
ENDROOT
BRANCH   1   7
HETATM    7  C   UNL     1       7.437  30.648  58.388  1.00  0.00     0.141 C 
BRANCH   7   8
HETATM    8  C   UNL     1       8.081  30.728  59.763  1.00  0.00     0.228 C 
HETATM    9  N   UNL     1       7.581  31.623  60.694  1.00  0.00    -0.317 N 
HETATM   10  C   UNL     1       8.237  31.704  62.007  1.00  0.00     0.137 A 
HETATM   11  C   UNL     1       6.491  32.517  60.678  1.00  0.00     0.046 A 
HETATM   12  C   UNL     1       7.524  32.776  62.828  1.00  0.00     0.061 A 
HETATM   13  C   UNL     1       6.425  33.189  61.902  1.00  0.00    -0.029 A 
HETATM   14  C   UNL     1       5.440  34.129  62.172  1.00  0.00     0.012 A 
HETATM   15  C   UNL     1       4.489  34.399  61.189  1.00  0.00     0.037 A 
HETATM   16  C   UNL     1       4.537  33.733  59.958  1.00  0.00     0.070 A 
HETATM   17  C   UNL     1       5.547  32.790  59.703  1.00  0.00     0.067 A 
HETATM   18  O   UNL     1       9.043  30.008  60.059  1.00  0.00    -0.273 OA
BRANCH  16  19
HETATM   19  O   UNL     1       3.660  33.911  58.920  1.00  0.00    -0.351 OA
BRANCH  19  20
HETATM   20  C   UNL     1       3.932  34.978  58.012  1.00  0.00     0.171 C 
HETATM   21  C   UNL     1       2.976  34.851  56.841  1.00  0.00     0.034 C 
ENDBRANCH  19  20
ENDBRANCH  16  19
ENDBRANCH   7   8
ENDBRANCH   1   7
BRANCH   4  22
HETATM   22  C   UNL     1       7.562  25.304  56.151  1.00  0.00     0.098 A 
HETATM   23  N   UNL     1       7.580  24.326  57.008  1.00  0.00    -0.170 NA
HETATM   24  N   UNL     1       7.664  23.053  56.537  1.00  0.00    -0.242 N 
HETATM   25  C   UNL     1       7.775  22.684  55.219  1.00  0.00     0.272 A 
HETATM   26  H   UNL     1       7.700  22.315  57.233  1.00  0.00     0.192 HD
HETATM   27  O   UNL     1       7.900  21.514  54.872  1.00  0.00    -0.266 OA
HETATM   28  C   UNL     1       7.716  23.774  54.234  1.00  0.00     0.046 A 
HETATM   29  C   UNL     1       7.762  23.487  52.863  1.00  0.00     0.018 A 
HETATM   30  C   UNL     1       7.584  25.087  54.681  1.00  0.00     0.011 A 
HETATM   31  C   UNL     1       7.657  24.522  51.934  1.00  0.00     0.001 A 
HETATM   32  C   UNL     1       7.495  25.835  52.374  1.00  0.00     0.001 A 
HETATM   33  C   UNL     1       7.450  26.120  53.743  1.00  0.00     0.015 A 
ENDBRANCH   4  22
TORSDOF 5
ENDMDL
MODEL 6
REMARK VINA RESULT:      -9.5      5.507      8.142
REMARK  5 active torsions:
REMARK  status: ('A' for Active; 'I' for Inactive)
REMARK    1  A    between atoms: C_2  and  O_3 
REMARK    2  A    between atoms: O_3  and  C_4 
REMARK       I    between atoms: N_10  and  C_11 
REMARK    3  A    between atoms: C_11  and  C_13 
REMARK    4  A    between atoms: C_13  and  C_14 
REMARK    5  A    between atoms: C_17  and  C_20 
ROOT
HETATM    1  C   UNL     1       5.757  26.713  52.306  1.00  0.00    -0.049 A 
HETATM    2  C   UNL     1       7.135  26.590  52.537  1.00  0.00     0.008 A 
HETATM    3  C   UNL     1       7.622  25.630  53.425  1.00  0.00     0.014 A 
HETATM    4  C   UNL     1       6.727  24.771  54.071  1.00  0.00    -0.005 A 
HETATM    5  C   UNL     1       5.352  24.902  53.875  1.00  0.00     0.014 A 
HETATM    6  C   UNL     1       4.869  25.866  52.990  1.00  0.00     0.008 A 
ENDROOT
BRANCH   1   7
HETATM    7  C   UNL     1       5.231  27.733  51.317  1.00  0.00     0.141 C 
BRANCH   7   8
HETATM    8  C   UNL     1       4.562  27.129  50.093  1.00  0.00     0.228 C 
HETATM    9  N   UNL     1       3.463  27.763  49.539  1.00  0.00    -0.317 N 
HETATM   10  C   UNL     1       2.814  27.145  48.373  1.00  0.00     0.137 A 
HETATM   11  C   UNL     1       2.795  28.966  49.841  1.00  0.00     0.046 A 
HETATM   12  C   UNL     1       1.622  28.013  47.978  1.00  0.00     0.061 A 
HETATM   13  C   UNL     1       1.733  29.145  48.949  1.00  0.00    -0.029 A 
HETATM   14  C   UNL     1       0.903  30.255  49.007  1.00  0.00     0.012 A 
HETATM   15  C   UNL     1       1.147  31.220  49.984  1.00  0.00     0.037 A 
HETATM   16  C   UNL     1       2.207  31.060  50.885  1.00  0.00     0.070 A 
HETATM   17  C   UNL     1       3.032  29.924  50.813  1.00  0.00     0.067 A 
HETATM   18  O   UNL     1       4.984  26.080  49.589  1.00  0.00    -0.273 OA
BRANCH  16  19
HETATM   19  O   UNL     1       2.546  31.937  51.882  1.00  0.00    -0.351 OA
BRANCH  19  20
HETATM   20  C   UNL     1       3.669  31.599  52.694  1.00  0.00     0.171 C 
HETATM   21  C   UNL     1       3.227  31.641  54.146  1.00  0.00     0.034 C 
ENDBRANCH  19  20
ENDBRANCH  16  19
ENDBRANCH   7   8
ENDBRANCH   1   7
BRANCH   4  22
HETATM   22  C   UNL     1       7.227  23.729  54.999  1.00  0.00     0.098 A 
HETATM   23  N   UNL     1       7.202  24.010  56.269  1.00  0.00    -0.170 NA
HETATM   24  N   UNL     1       7.692  23.092  57.145  1.00  0.00    -0.242 N 
HETATM   25  C   UNL     1       8.262  21.886  56.819  1.00  0.00     0.272 A 
HETATM   26  H   UNL     1       7.680  23.352  58.125  1.00  0.00     0.192 HD
HETATM   27  O   UNL     1       8.731  21.131  57.663  1.00  0.00    -0.266 OA
HETATM   28  C   UNL     1       8.262  21.535  55.390  1.00  0.00     0.046 A 
HETATM   29  C   UNL     1       8.769  20.298  54.970  1.00  0.00     0.018 A 
HETATM   30  C   UNL     1       7.726  22.433  54.470  1.00  0.00     0.011 A 
HETATM   31  C   UNL     1       8.723  19.952  53.620  1.00  0.00     0.001 A 
HETATM   32  C   UNL     1       8.160  20.833  52.698  1.00  0.00     0.001 A 
HETATM   33  C   UNL     1       7.655  22.067  53.119  1.00  0.00     0.015 A 
ENDBRANCH   4  22
TORSDOF 5
ENDMDL
MODEL 7
REMARK VINA RESULT:      -9.4      1.859      3.353
REMARK  5 active torsions:
REMARK  status: ('A' for Active; 'I' for Inactive)
REMARK    1  A    between atoms: C_2  and  O_3 
REMARK    2  A    between atoms: O_3  and  C_4 
REMARK       I    between atoms: N_10  and  C_11 
REMARK    3  A    between atoms: C_11  and  C_13 
REMARK    4  A    between atoms: C_13  and  C_14 
REMARK    5  A    between atoms: C_17  and  C_20 
ROOT
HETATM    1  C   UNL     1       6.932  29.227  57.767  1.00  0.00    -0.049 A 
HETATM    2  C   UNL     1       5.851  28.402  57.423  1.00  0.00     0.008 A 
HETATM    3  C   UNL     1       6.071  27.121  56.915  1.00  0.00     0.014 A 
HETATM    4  C   UNL     1       7.380  26.652  56.770  1.00  0.00    -0.005 A 
HETATM    5  C   UNL     1       8.466  27.472  57.079  1.00  0.00     0.014 A 
HETATM    6  C   UNL     1       8.241  28.753  57.583  1.00  0.00     0.008 A 
ENDROOT
BRANCH   1   7
HETATM    7  C   UNL     1       6.693  30.605  58.351  1.00  0.00     0.141 C 
BRANCH   7   8
HETATM    8  C   UNL     1       5.783  31.489  57.513  1.00  0.00     0.228 C 
HETATM    9  N   UNL     1       4.964  32.409  58.145  1.00  0.00    -0.317 N 
HETATM   10  C   UNL     1       4.070  33.233  57.317  1.00  0.00     0.137 A 
HETATM   11  C   UNL     1       4.799  32.782  59.494  1.00  0.00     0.046 A 
HETATM   12  C   UNL     1       3.258  34.133  58.246  1.00  0.00     0.061 A 
HETATM   13  C   UNL     1       3.829  33.785  59.583  1.00  0.00    -0.029 A 
HETATM   14  C   UNL     1       3.467  34.350  60.798  1.00  0.00     0.012 A 
HETATM   15  C   UNL     1       4.099  33.903  61.957  1.00  0.00     0.037 A 
HETATM   16  C   UNL     1       5.076  32.902  61.887  1.00  0.00     0.070 A 
HETATM   17  C   UNL     1       5.422  32.337  60.648  1.00  0.00     0.067 A 
HETATM   18  O   UNL     1       5.764  31.396  56.280  1.00  0.00    -0.273 OA
BRANCH  16  19
HETATM   19  O   UNL     1       5.766  32.385  62.952  1.00  0.00    -0.351 OA
BRANCH  19  20
HETATM   20  C   UNL     1       6.454  33.308  63.795  1.00  0.00     0.171 C 
HETATM   21  C   UNL     1       7.914  32.897  63.846  1.00  0.00     0.034 C 
ENDBRANCH  19  20
ENDBRANCH  16  19
ENDBRANCH   7   8
ENDBRANCH   1   7
BRANCH   4  22
HETATM   22  C   UNL     1       7.634  25.285  56.255  1.00  0.00     0.098 A 
HETATM   23  N   UNL     1       7.820  24.349  57.139  1.00  0.00    -0.170 NA
HETATM   24  N   UNL     1       8.097  23.091  56.702  1.00  0.00    -0.242 N 
HETATM   25  C   UNL     1       8.244  22.704  55.393  1.00  0.00     0.272 A 
HETATM   26  H   UNL     1       8.260  22.390  57.417  1.00  0.00     0.192 HD
HETATM   27  O   UNL     1       8.547  21.559  55.075  1.00  0.00    -0.266 OA
HETATM   28  C   UNL     1       7.998  23.741  54.379  1.00  0.00     0.046 A 
HETATM   29  C   UNL     1       8.067  23.423  53.016  1.00  0.00     0.018 A 
HETATM   30  C   UNL     1       7.667  25.030  54.792  1.00  0.00     0.011 A 
HETATM   31  C   UNL     1       7.785  24.399  52.061  1.00  0.00     0.001 A 
HETATM   32  C   UNL     1       7.424  25.683  52.468  1.00  0.00     0.001 A 
HETATM   33  C   UNL     1       7.356  25.999  53.828  1.00  0.00     0.015 A 
ENDBRANCH   4  22
TORSDOF 5
ENDMDL
MODEL 8
REMARK VINA RESULT:      -9.4      2.267      4.231
REMARK  5 active torsions:
REMARK  status: ('A' for Active; 'I' for Inactive)
REMARK    1  A    between atoms: C_2  and  O_3 
REMARK    2  A    between atoms: O_3  and  C_4 
REMARK       I    between atoms: N_10  and  C_11 
REMARK    3  A    between atoms: C_11  and  C_13 
REMARK    4  A    between atoms: C_13  and  C_14 
REMARK    5  A    between atoms: C_17  and  C_20 
ROOT
HETATM    1  C   UNL     1       7.258  29.863  57.812  1.00  0.00    -0.049 A 
HETATM    2  C   UNL     1       8.418  29.539  57.091  1.00  0.00     0.008 A 
HETATM    3  C   UNL     1       8.433  28.441  56.230  1.00  0.00     0.014 A 
HETATM    4  C   UNL     1       7.276  27.673  56.070  1.00  0.00    -0.005 A 
HETATM    5  C   UNL     1       6.125  27.964  56.802  1.00  0.00     0.014 A 
HETATM    6  C   UNL     1       6.115  29.060  57.666  1.00  0.00     0.008 A 
ENDROOT
BRANCH   1   7
HETATM    7  C   UNL     1       7.230  31.074  58.721  1.00  0.00     0.141 C 
BRANCH   7   8
HETATM    8  C   UNL     1       8.009  30.902  60.015  1.00  0.00     0.228 C 
HETATM    9  N   UNL     1       7.697  31.699  61.104  1.00  0.00    -0.317 N 
HETATM   10  C   UNL     1       8.483  31.536  62.336  1.00  0.00     0.137 A 
HETATM   11  C   UNL     1       6.710  32.680  61.326  1.00  0.00     0.046 A 
HETATM   12  C   UNL     1       7.968  32.542  63.364  1.00  0.00     0.061 A 
HETATM   13  C   UNL     1       6.833  33.177  62.627  1.00  0.00    -0.029 A 
HETATM   14  C   UNL     1       5.981  34.154  63.123  1.00  0.00     0.012 A 
HETATM   15  C   UNL     1       4.972  34.643  62.295  1.00  0.00     0.037 A 
HETATM   16  C   UNL     1       4.831  34.155  60.990  1.00  0.00     0.070 A 
HETATM   17  C   UNL     1       5.709  33.171  60.504  1.00  0.00     0.067 A 
HETATM   18  O   UNL     1       8.916  30.066  60.107  1.00  0.00    -0.273 OA
BRANCH  16  19
HETATM   19  O   UNL     1       3.881  34.555  60.087  1.00  0.00    -0.351 OA
BRANCH  19  20
HETATM   20  C   UNL     1       2.961  35.561  60.510  1.00  0.00     0.171 C 
HETATM   21  C   UNL     1       1.607  34.904  60.708  1.00  0.00     0.034 C 
ENDBRANCH  19  20
ENDBRANCH  16  19
ENDBRANCH   7   8
ENDBRANCH   1   7
BRANCH   4  22
HETATM   22  C   UNL     1       7.266  26.519  55.140  1.00  0.00     0.098 A 
HETATM   23  N   UNL     1       6.889  26.751  53.917  1.00  0.00    -0.170 NA
HETATM   24  N   UNL     1       6.828  25.706  53.049  1.00  0.00    -0.242 N 
HETATM   25  C   UNL     1       7.090  24.391  53.345  1.00  0.00     0.272 A 
HETATM   26  H   UNL     1       6.508  25.918  52.109  1.00  0.00     0.192 HD
HETATM   27  O   UNL     1       6.962  23.493  52.520  1.00  0.00    -0.266 OA
HETATM   28  C   UNL     1       7.555  24.116  54.713  1.00  0.00     0.046 A 
HETATM   29  C   UNL     1       7.903  22.811  55.090  1.00  0.00     0.018 A 
HETATM   30  C   UNL     1       7.673  25.171  55.615  1.00  0.00     0.011 A 
HETATM   31  C   UNL     1       8.389  22.566  56.373  1.00  0.00     0.001 A 
HETATM   32  C   UNL     1       8.538  23.622  57.271  1.00  0.00     0.001 A 
HETATM   33  C   UNL     1       8.190  24.923  56.895  1.00  0.00     0.015 A 
ENDBRANCH   4  22
TORSDOF 5
ENDMDL
MODEL 9
REMARK VINA RESULT:      -9.2      3.655      9.521
REMARK  5 active torsions:
REMARK  status: ('A' for Active; 'I' for Inactive)
REMARK    1  A    between atoms: C_2  and  O_3 
REMARK    2  A    between atoms: O_3  and  C_4 
REMARK       I    between atoms: N_10  and  C_11 
REMARK    3  A    between atoms: C_11  and  C_13 
REMARK    4  A    between atoms: C_13  and  C_14 
REMARK    5  A    between atoms: C_17  and  C_20 
ROOT
HETATM    1  C   UNL     1       4.568  33.060  58.855  1.00  0.00    -0.049 A 
HETATM    2  C   UNL     1       4.326  32.010  59.753  1.00  0.00     0.008 A 
HETATM    3  C   UNL     1       4.129  32.270  61.110  1.00  0.00     0.014 A 
HETATM    4  C   UNL     1       4.151  33.590  61.570  1.00  0.00    -0.005 A 
HETATM    5  C   UNL     1       4.421  34.642  60.694  1.00  0.00     0.014 A 
HETATM    6  C   UNL     1       4.622  34.378  59.339  1.00  0.00     0.008 A 
ENDROOT
BRANCH   1   7
HETATM    7  C   UNL     1       4.748  32.782  57.376  1.00  0.00     0.141 C 
BRANCH   7   8
HETATM    8  C   UNL     1       3.953  31.592  56.863  1.00  0.00     0.228 C 
HETATM    9  N   UNL     1       4.558  30.348  56.802  1.00  0.00    -0.317 N 
HETATM   10  C   UNL     1       3.780  29.218  56.275  1.00  0.00     0.137 A 
HETATM   11  C   UNL     1       5.831  29.879  57.185  1.00  0.00     0.046 A 
HETATM   12  C   UNL     1       4.675  27.981  56.284  1.00  0.00     0.061 A 
HETATM   13  C   UNL     1       5.924  28.512  56.909  1.00  0.00    -0.029 A 
HETATM   14  C   UNL     1       7.070  27.782  57.192  1.00  0.00     0.012 A 
HETATM   15  C   UNL     1       8.153  28.439  57.775  1.00  0.00     0.037 A 
HETATM   16  C   UNL     1       8.077  29.808  58.062  1.00  0.00     0.070 A 
HETATM   17  C   UNL     1       6.910  30.530  57.760  1.00  0.00     0.067 A 
HETATM   18  O   UNL     1       2.778  31.721  56.497  1.00  0.00    -0.273 OA
BRANCH  16  19
HETATM   19  O   UNL     1       9.070  30.560  58.634  1.00  0.00    -0.351 OA
BRANCH  19  20
HETATM   20  C   UNL     1       9.038  30.713  60.052  1.00  0.00     0.171 C 
HETATM   21  C   UNL     1       8.889  32.191  60.360  1.00  0.00     0.034 C 
ENDBRANCH  19  20
ENDBRANCH  16  19
ENDBRANCH   7   8
ENDBRANCH   1   7
BRANCH   4  22
HETATM   22  C   UNL     1       3.919  33.888  63.003  1.00  0.00     0.098 A 
HETATM   23  N   UNL     1       2.699  34.174  63.355  1.00  0.00    -0.170 NA
HETATM   24  N   UNL     1       2.458  34.493  64.655  1.00  0.00    -0.242 N 
HETATM   25  C   UNL     1       3.397  34.587  65.653  1.00  0.00     0.272 A 
HETATM   26  H   UNL     1       1.501  34.733  64.891  1.00  0.00     0.192 HD
HETATM   27  O   UNL     1       3.111  34.933  66.794  1.00  0.00    -0.266 OA
HETATM   28  C   UNL     1       4.774  34.229  65.281  1.00  0.00     0.046 A 
HETATM   29  C   UNL     1       5.789  34.239  66.248  1.00  0.00     0.018 A 
HETATM   30  C   UNL     1       5.048  33.853  63.968  1.00  0.00     0.011 A 
HETATM   31  C   UNL     1       7.082  33.852  65.900  1.00  0.00     0.001 A 
HETATM   32  C   UNL     1       7.357  33.445  64.595  1.00  0.00     0.001 A 
HETATM   33  C   UNL     1       6.344  33.436  63.631  1.00  0.00     0.015 A 
ENDBRANCH   4  22
TORSDOF 5
ENDMDL
MODEL 10
REMARK VINA RESULT:      -9.1      2.722      9.472
REMARK  5 active torsions:
REMARK  status: ('A' for Active; 'I' for Inactive)
REMARK    1  A    between atoms: C_2  and  O_3 
REMARK    2  A    between atoms: O_3  and  C_4 
REMARK       I    between atoms: N_10  and  C_11 
REMARK    3  A    between atoms: C_11  and  C_13 
REMARK    4  A    between atoms: C_13  and  C_14 
REMARK    5  A    between atoms: C_17  and  C_20 
ROOT
HETATM    1  C   UNL     1       7.331  29.700  56.962  1.00  0.00    -0.049 A 
HETATM    2  C   UNL     1       5.961  29.926  57.163  1.00  0.00     0.008 A 
HETATM    3  C   UNL     1       5.528  30.838  58.127  1.00  0.00     0.014 A 
HETATM    4  C   UNL     1       6.469  31.545  58.881  1.00  0.00    -0.005 A 
HETATM    5  C   UNL     1       7.834  31.308  58.714  1.00  0.00     0.014 A 
HETATM    6  C   UNL     1       8.263  30.392  57.753  1.00  0.00     0.008 A 
ENDROOT
BRANCH   1   7
HETATM    7  C   UNL     1       7.803  28.735  55.893  1.00  0.00     0.141 C 
BRANCH   7   8
HETATM    8  C   UNL     1       7.982  27.305  56.376  1.00  0.00     0.228 C 
HETATM    9  N   UNL     1       7.466  26.266  55.620  1.00  0.00    -0.317 N 
HETATM   10  C   UNL     1       7.625  24.892  56.121  1.00  0.00     0.137 A 
HETATM   11  C   UNL     1       6.802  26.218  54.378  1.00  0.00     0.046 A 
HETATM   12  C   UNL     1       6.949  23.946  55.132  1.00  0.00     0.061 A 
HETATM   13  C   UNL     1       6.501  24.890  54.063  1.00  0.00    -0.029 A 
HETATM   14  C   UNL     1       5.851  24.543  52.887  1.00  0.00     0.012 A 
HETATM   15  C   UNL     1       5.497  25.555  51.996  1.00  0.00     0.037 A 
HETATM   16  C   UNL     1       5.794  26.892  52.293  1.00  0.00     0.070 A 
HETATM   17  C   UNL     1       6.446  27.222  53.493  1.00  0.00     0.067 A 
HETATM   18  O   UNL     1       8.576  27.059  57.432  1.00  0.00    -0.273 OA
BRANCH  16  19
HETATM   19  O   UNL     1       5.500  27.969  51.499  1.00  0.00    -0.351 OA
BRANCH  19  20
HETATM   20  C   UNL     1       5.224  27.710  50.123  1.00  0.00     0.171 C 
HETATM   21  C   UNL     1       5.671  28.918  49.320  1.00  0.00     0.034 C 
ENDBRANCH  19  20
ENDBRANCH  16  19
ENDBRANCH   7   8
ENDBRANCH   1   7
BRANCH   4  22
HETATM   22  C   UNL     1       6.028  32.535  59.892  1.00  0.00     0.098 A 
HETATM   23  N   UNL     1       5.068  33.342  59.546  1.00  0.00    -0.170 NA
HETATM   24  N   UNL     1       4.668  34.291  60.434  1.00  0.00    -0.242 N 
HETATM   25  C   UNL     1       5.212  34.519  61.674  1.00  0.00     0.272 A 
HETATM   26  H   UNL     1       3.933  34.918  60.124  1.00  0.00     0.192 HD
HETATM   27  O   UNL     1       4.832  35.431  62.401  1.00  0.00    -0.266 OA
HETATM   28  C   UNL     1       6.272  33.592  62.097  1.00  0.00     0.046 A 
HETATM   29  C   UNL     1       6.845  33.711  63.370  1.00  0.00     0.018 A 
HETATM   30  C   UNL     1       6.674  32.579  61.229  1.00  0.00     0.011 A 
HETATM   31  C   UNL     1       7.815  32.799  63.783  1.00  0.00     0.001 A 
HETATM   32  C   UNL     1       8.201  31.765  62.931  1.00  0.00     0.001 A 
HETATM   33  C   UNL     1       7.629  31.647  61.660  1.00  0.00     0.015 A 
ENDBRANCH   4  22
TORSDOF 5
ENDMDL
