MODEL 1
REMARK VINA RESULT:      -9.0      0.000      0.000
REMARK  5 active torsions:
REMARK  status: ('A' for Active; 'I' for Inactive)
REMARK    1  A    between atoms: O_2  and  C_3 
REMARK    2  A    between atoms: C_5  and  C_6 
REMARK    3  A    between atoms: C_10  and  C_11 
REMARK       I    between atoms: C_11  and  N_12 
REMARK    4  A    between atoms: N_12  and  C_13 
REMARK    5  A    between atoms: C_15  and  O_16 
ROOT
HETATM    1  C   UNL     1       6.519  32.972  63.570  1.00  0.00     0.063 A 
HETATM    2  N   UNL     1       5.219  32.582  63.779  1.00  0.00    -0.277 N 
HETATM    3  H   UNL     1       4.660  31.969  63.197  1.00  0.00     0.189 HD
HETATM    4  N   UNL     1       4.660  33.069  64.902  1.00  0.00    -0.169 NA
HETATM    5  C   UNL     1       5.649  33.791  65.467  1.00  0.00     0.147 A 
HETATM    6  C   UNL     1       6.817  33.761  64.664  1.00  0.00     0.071 A 
ENDROOT
BRANCH   5   7
HETATM    7  C   UNL     1       5.475  34.483  66.758  1.00  0.00     0.276 C 
HETATM    8  N   UNL     1       6.395  34.053  67.695  1.00  0.00    -0.322 N 
HETATM    9  H   UNL     1       7.010  33.321  67.344  1.00  0.00     0.169 HD
HETATM   10  O   UNL     1       4.603  35.330  66.917  1.00  0.00    -0.266 OA
BRANCH   8  11
HETATM   11  C   UNL     1       6.582  34.498  69.014  1.00  0.00     0.037 A 
HETATM   12  C   UNL     1       5.715  34.194  70.069  1.00  0.00     0.066 A 
HETATM   13  C   UNL     1       5.958  34.690  71.354  1.00  0.00     0.070 A 
HETATM   14  C   UNL     1       7.084  35.483  71.583  1.00  0.00     0.037 A 
HETATM   15  C   UNL     1       7.955  35.791  70.541  1.00  0.00     0.005 A 
HETATM   16  C   UNL     1       7.702  35.301  69.260  1.00  0.00     0.029 A 
BRANCH  13  17
HETATM   17  O   UNL     1       5.181  34.473  72.460  1.00  0.00    -0.356 OA
HETATM   18  C   UNL     1       5.218  35.469  73.476  1.00  0.00     0.210 C 
ENDBRANCH  13  17
ENDBRANCH   8  11
ENDBRANCH   5   7
BRANCH   1  19
HETATM   19  C   UNL     1       7.330  32.552  62.424  1.00  0.00    -0.005 A 
HETATM   20  C   UNL     1       6.781  32.572  61.129  1.00  0.00     0.050 A 
HETATM   21  C   UNL     1       7.538  32.183  60.020  1.00  0.00     0.069 A 
HETATM   22  C   UNL     1       8.858  31.773  60.203  1.00  0.00     0.037 A 
HETATM   23  C   UNL     1       9.418  31.740  61.479  1.00  0.00     0.004 A 
HETATM   24  C   UNL     1       8.656  32.125  62.584  1.00  0.00     0.014 A 
BRANCH  21  25
HETATM   25  O   UNL     1       7.110  32.162  58.720  1.00  0.00    -0.356 OA
HETATM   26  C   UNL     1       6.938  30.886  58.118  1.00  0.00     0.210 C 
ENDBRANCH  21  25
ENDBRANCH   1  19
TORSDOF 5
ENDMDL
MODEL 2
REMARK VINA RESULT:      -8.9      4.812      8.401
REMARK  5 active torsions:
REMARK  status: ('A' for Active; 'I' for Inactive)
REMARK    1  A    between atoms: O_2  and  C_3 
REMARK    2  A    between atoms: C_5  and  C_6 
REMARK    3  A    between atoms: C_10  and  C_11 
REMARK       I    between atoms: C_11  and  N_12 
REMARK    4  A    between atoms: N_12  and  C_13 
REMARK    5  A    between atoms: C_15  and  O_16 
ROOT
HETATM    1  C   UNL     1       8.399  28.292  57.371  1.00  0.00     0.063 A 
HETATM    2  N   UNL     1       9.538  29.001  57.080  1.00  0.00    -0.277 N 
HETATM    3  H   UNL     1      10.245  28.773  56.391  1.00  0.00     0.189 HD
HETATM    4  N   UNL     1       9.693  30.132  57.793  1.00  0.00    -0.169 NA
HETATM    5  C   UNL     1       8.591  30.178  58.568  1.00  0.00     0.147 A 
HETATM    6  C   UNL     1       7.767  29.047  58.340  1.00  0.00     0.071 A 
ENDROOT
BRANCH   5   7
HETATM    7  C   UNL     1       8.333  31.293  59.499  1.00  0.00     0.276 C 
HETATM    8  N   UNL     1       7.722  30.856  60.659  1.00  0.00    -0.322 N 
HETATM    9  H   UNL     1       7.534  29.856  60.659  1.00  0.00     0.169 HD
HETATM   10  O   UNL     1       8.649  32.444  59.221  1.00  0.00    -0.266 OA
BRANCH   8  11
HETATM   11  C   UNL     1       7.359  31.599  61.795  1.00  0.00     0.037 A 
HETATM   12  C   UNL     1       6.036  31.883  62.149  1.00  0.00     0.066 A 
HETATM   13  C   UNL     1       5.753  32.646  63.287  1.00  0.00     0.070 A 
HETATM   14  C   UNL     1       6.803  33.112  64.080  1.00  0.00     0.037 A 
HETATM   15  C   UNL     1       8.124  32.833  63.738  1.00  0.00     0.005 A 
HETATM   16  C   UNL     1       8.400  32.080  62.598  1.00  0.00     0.029 A 
BRANCH  13  17
HETATM   17  O   UNL     1       4.506  32.999  63.729  1.00  0.00    -0.356 OA
HETATM   18  C   UNL     1       4.440  33.709  64.961  1.00  0.00     0.210 C 
ENDBRANCH  13  17
ENDBRANCH   8  11
ENDBRANCH   5   7
BRANCH   1  19
HETATM   19  C   UNL     1       8.016  27.042  56.709  1.00  0.00    -0.005 A 
HETATM   20  C   UNL     1       8.352  25.806  57.292  1.00  0.00     0.050 A 
HETATM   21  C   UNL     1       7.992  24.601  56.683  1.00  0.00     0.069 A 
HETATM   22  C   UNL     1       7.284  24.627  55.481  1.00  0.00     0.037 A 
HETATM   23  C   UNL     1       6.947  25.840  54.885  1.00  0.00     0.004 A 
HETATM   24  C   UNL     1       7.315  27.042  55.495  1.00  0.00     0.014 A 
BRANCH  21  25
HETATM   25  O   UNL     1       8.264  23.347  57.156  1.00  0.00    -0.356 OA
HETATM   26  C   UNL     1       8.462  22.321  56.191  1.00  0.00     0.210 C 
ENDBRANCH  21  25
ENDBRANCH   1  19
TORSDOF 5
ENDMDL
MODEL 3
REMARK VINA RESULT:      -8.8      4.918      8.232
REMARK  5 active torsions:
REMARK  status: ('A' for Active; 'I' for Inactive)
REMARK    1  A    between atoms: O_2  and  C_3 
REMARK    2  A    between atoms: C_5  and  C_6 
REMARK    3  A    between atoms: C_10  and  C_11 
REMARK       I    between atoms: C_11  and  N_12 
REMARK    4  A    between atoms: N_12  and  C_13 
REMARK    5  A    between atoms: C_15  and  O_16 
ROOT
HETATM    1  C   UNL     1       8.402  28.325  57.422  1.00  0.00     0.063 A 
HETATM    2  N   UNL     1       9.541  29.042  57.150  1.00  0.00    -0.277 N 
HETATM    3  H   UNL     1      10.256  28.825  56.466  1.00  0.00     0.189 HD
HETATM    4  N   UNL     1       9.683  30.166  57.878  1.00  0.00    -0.169 NA
HETATM    5  C   UNL     1       8.574  30.198  58.642  1.00  0.00     0.147 A 
HETATM    6  C   UNL     1       7.757  29.066  58.393  1.00  0.00     0.071 A 
ENDROOT
BRANCH   5   7
HETATM    7  C   UNL     1       8.301  31.301  59.583  1.00  0.00     0.276 C 
HETATM    8  N   UNL     1       7.706  30.845  60.744  1.00  0.00    -0.322 N 
HETATM    9  H   UNL     1       7.535  29.842  60.737  1.00  0.00     0.169 HD
HETATM   10  O   UNL     1       8.594  32.460  59.312  1.00  0.00    -0.266 OA
BRANCH   8  11
HETATM   11  C   UNL     1       7.336  31.572  61.887  1.00  0.00     0.037 A 
HETATM   12  C   UNL     1       6.011  31.779  62.284  1.00  0.00     0.066 A 
HETATM   13  C   UNL     1       5.721  32.531  63.427  1.00  0.00     0.070 A 
HETATM   14  C   UNL     1       6.767  33.066  64.182  1.00  0.00     0.037 A 
HETATM   15  C   UNL     1       8.090  32.865  63.797  1.00  0.00     0.005 A 
HETATM   16  C   UNL     1       8.372  32.122  62.652  1.00  0.00     0.029 A 
BRANCH  13  17
HETATM   17  O   UNL     1       4.470  32.812  63.909  1.00  0.00    -0.356 OA
HETATM   18  C   UNL     1       4.132  34.187  64.056  1.00  0.00     0.210 C 
ENDBRANCH  13  17
ENDBRANCH   8  11
ENDBRANCH   5   7
BRANCH   1  19
HETATM   19  C   UNL     1       8.031  27.081  56.743  1.00  0.00    -0.005 A 
HETATM   20  C   UNL     1       7.432  27.125  55.470  1.00  0.00     0.050 A 
HETATM   21  C   UNL     1       7.076  25.952  54.800  1.00  0.00     0.069 A 
HETATM   22  C   UNL     1       7.324  24.718  55.402  1.00  0.00     0.037 A 
HETATM   23  C   UNL     1       7.910  24.653  56.664  1.00  0.00     0.004 A 
HETATM   24  C   UNL     1       8.259  25.829  57.332  1.00  0.00     0.014 A 
BRANCH  21  25
HETATM   25  O   UNL     1       6.490  25.875  53.566  1.00  0.00    -0.356 OA
HETATM   26  C   UNL     1       5.228  25.226  53.489  1.00  0.00     0.210 C 
ENDBRANCH  21  25
ENDBRANCH   1  19
TORSDOF 5
ENDMDL
MODEL 4
REMARK VINA RESULT:      -8.6      7.676     12.400
REMARK  5 active torsions:
REMARK  status: ('A' for Active; 'I' for Inactive)
REMARK    1  A    between atoms: O_2  and  C_3 
REMARK    2  A    between atoms: C_5  and  C_6 
REMARK    3  A    between atoms: C_10  and  C_11 
REMARK       I    between atoms: C_11  and  N_12 
REMARK    4  A    between atoms: N_12  and  C_13 
REMARK    5  A    between atoms: C_15  and  O_16 
ROOT
HETATM    1  C   UNL     1       7.567  25.277  54.318  1.00  0.00     0.063 A 
HETATM    2  N   UNL     1       7.309  26.166  53.303  1.00  0.00    -0.277 N 
HETATM    3  H   UNL     1       7.156  25.954  52.324  1.00  0.00     0.189 HD
HETATM    4  N   UNL     1       7.235  27.453  53.690  1.00  0.00    -0.169 NA
HETATM    5  C   UNL     1       7.430  27.401  55.023  1.00  0.00     0.147 A 
HETATM    6  C   UNL     1       7.648  26.067  55.449  1.00  0.00     0.071 A 
ENDROOT
BRANCH   5   7
HETATM    7  C   UNL     1       7.394  28.610  55.868  1.00  0.00     0.276 C 
HETATM    8  N   UNL     1       8.431  28.624  56.781  1.00  0.00    -0.322 N 
HETATM    9  H   UNL     1       9.018  27.793  56.731  1.00  0.00     0.169 HD
HETATM   10  O   UNL     1       6.526  29.464  55.726  1.00  0.00    -0.266 OA
BRANCH   8  11
HETATM   11  C   UNL     1       8.763  29.613  57.720  1.00  0.00     0.037 A 
HETATM   12  C   UNL     1       8.038  29.848  58.893  1.00  0.00     0.066 A 
HETATM   13  C   UNL     1       8.420  30.866  59.773  1.00  0.00     0.070 A 
HETATM   14  C   UNL     1       9.544  31.642  59.480  1.00  0.00     0.037 A 
HETATM   15  C   UNL     1      10.274  31.415  58.317  1.00  0.00     0.005 A 
HETATM   16  C   UNL     1       9.883  30.405  57.439  1.00  0.00     0.029 A 
BRANCH  13  17
HETATM   17  O   UNL     1       7.788  31.199  60.941  1.00  0.00    -0.356 OA
HETATM   18  C   UNL     1       6.871  32.287  60.887  1.00  0.00     0.210 C 
ENDBRANCH  13  17
ENDBRANCH   8  11
ENDBRANCH   5   7
BRANCH   1  19
HETATM   19  C   UNL     1       7.674  23.828  54.135  1.00  0.00    -0.005 A 
HETATM   20  C   UNL     1       7.574  22.969  55.245  1.00  0.00     0.050 A 
HETATM   21  C   UNL     1       7.666  21.583  55.094  1.00  0.00     0.069 A 
HETATM   22  C   UNL     1       7.856  21.045  53.822  1.00  0.00     0.037 A 
HETATM   23  C   UNL     1       7.965  21.878  52.711  1.00  0.00     0.004 A 
HETATM   24  C   UNL     1       7.878  23.263  52.868  1.00  0.00     0.014 A 
BRANCH  21  25
HETATM   25  O   UNL     1       7.582  20.656  56.098  1.00  0.00    -0.356 OA
HETATM   26  C   UNL     1       8.603  20.683  57.087  1.00  0.00     0.210 C 
ENDBRANCH  21  25
ENDBRANCH   1  19
TORSDOF 5
ENDMDL
MODEL 5
REMARK VINA RESULT:      -8.4      6.928     11.097
REMARK  5 active torsions:
REMARK  status: ('A' for Active; 'I' for Inactive)
REMARK    1  A    between atoms: O_2  and  C_3 
REMARK    2  A    between atoms: C_5  and  C_6 
REMARK    3  A    between atoms: C_10  and  C_11 
REMARK       I    between atoms: C_11  and  N_12 
REMARK    4  A    between atoms: N_12  and  C_13 
REMARK    5  A    between atoms: C_15  and  O_16 
ROOT
HETATM    1  C   UNL     1       7.695  25.646  55.937  1.00  0.00     0.063 A 
HETATM    2  N   UNL     1       7.757  25.471  57.298  1.00  0.00    -0.277 N 
HETATM    3  H   UNL     1       7.841  24.596  57.802  1.00  0.00     0.189 HD
HETATM    4  N   UNL     1       7.722  26.611  58.013  1.00  0.00    -0.169 NA
HETATM    5  C   UNL     1       7.660  27.577  57.075  1.00  0.00     0.147 A 
HETATM    6  C   UNL     1       7.633  27.017  55.774  1.00  0.00     0.071 A 
ENDROOT
BRANCH   5   7
HETATM    7  C   UNL     1       7.639  29.010  57.427  1.00  0.00     0.276 C 
HETATM    8  N   UNL     1       7.908  29.210  58.767  1.00  0.00    -0.322 N 
HETATM    9  H   UNL     1       8.045  28.341  59.280  1.00  0.00     0.169 HD
HETATM   10  O   UNL     1       7.409  29.871  56.585  1.00  0.00    -0.266 OA
BRANCH   8  11
HETATM   11  C   UNL     1       8.021  30.420  59.471  1.00  0.00     0.037 A 
HETATM   12  C   UNL     1       6.929  31.217  59.832  1.00  0.00     0.066 A 
HETATM   13  C   UNL     1       7.124  32.420  60.517  1.00  0.00     0.070 A 
HETATM   14  C   UNL     1       8.419  32.817  60.855  1.00  0.00     0.037 A 
HETATM   15  C   UNL     1       9.513  32.031  60.503  1.00  0.00     0.005 A 
HETATM   16  C   UNL     1       9.314  30.837  59.811  1.00  0.00     0.029 A 
BRANCH  13  17
HETATM   17  O   UNL     1       6.142  33.288  60.913  1.00  0.00    -0.356 OA
HETATM   18  C   UNL     1       4.999  32.720  61.543  1.00  0.00     0.210 C 
ENDBRANCH  13  17
ENDBRANCH   8  11
ENDBRANCH   5   7
BRANCH   1  19
HETATM   19  C   UNL     1       7.733  24.552  54.964  1.00  0.00    -0.005 A 
HETATM   20  C   UNL     1       7.691  23.216  55.405  1.00  0.00     0.050 A 
HETATM   21  C   UNL     1       7.720  22.156  54.495  1.00  0.00     0.069 A 
HETATM   22  C   UNL     1       7.786  22.429  53.129  1.00  0.00     0.037 A 
HETATM   23  C   UNL     1       7.835  23.744  52.672  1.00  0.00     0.004 A 
HETATM   24  C   UNL     1       7.812  24.800  53.586  1.00  0.00     0.014 A 
BRANCH  21  25
HETATM   25  O   UNL     1       7.684  20.824  54.808  1.00  0.00    -0.356 OA
HETATM   26  C   UNL     1       7.869  20.478  56.175  1.00  0.00     0.210 C 
ENDBRANCH  21  25
ENDBRANCH   1  19
TORSDOF 5
ENDMDL
MODEL 6
REMARK VINA RESULT:      -8.4      7.214     14.023
REMARK  5 active torsions:
REMARK  status: ('A' for Active; 'I' for Inactive)
REMARK    1  A    between atoms: O_2  and  C_3 
REMARK    2  A    between atoms: C_5  and  C_6 
REMARK    3  A    between atoms: C_10  and  C_11 
REMARK       I    between atoms: C_11  and  N_12 
REMARK    4  A    between atoms: N_12  and  C_13 
REMARK    5  A    between atoms: C_15  and  O_16 
ROOT
HETATM    1  C   UNL     1       7.710  28.607  57.796  1.00  0.00     0.063 A 
HETATM    2  N   UNL     1       6.341  28.566  57.706  1.00  0.00    -0.277 N 
HETATM    3  H   UNL     1       5.686  29.300  57.949  1.00  0.00     0.189 HD
HETATM    4  N   UNL     1       5.845  27.414  57.216  1.00  0.00    -0.169 NA
HETATM    5  C   UNL     1       6.943  26.678  56.949  1.00  0.00     0.147 A 
HETATM    6  C   UNL     1       8.121  27.383  57.304  1.00  0.00     0.071 A 
ENDROOT
BRANCH   5   7
HETATM    7  C   UNL     1       6.858  25.331  56.355  1.00  0.00     0.276 C 
HETATM    8  N   UNL     1       8.013  24.604  56.573  1.00  0.00    -0.322 N 
HETATM    9  H   UNL     1       8.725  25.129  57.077  1.00  0.00     0.169 HD
HETATM   10  O   UNL     1       5.856  24.959  55.754  1.00  0.00    -0.266 OA
BRANCH   8  11
HETATM   11  C   UNL     1       8.302  23.280  56.207  1.00  0.00     0.037 A 
HETATM   12  C   UNL     1       8.623  22.884  54.904  1.00  0.00     0.066 A 
HETATM   13  C   UNL     1       8.881  21.540  54.613  1.00  0.00     0.070 A 
HETATM   14  C   UNL     1       8.829  20.593  55.637  1.00  0.00     0.037 A 
HETATM   15  C   UNL     1       8.512  20.975  56.938  1.00  0.00     0.005 A 
HETATM   16  C   UNL     1       8.247  22.315  57.220  1.00  0.00     0.029 A 
BRANCH  13  17
HETATM   17  O   UNL     1       9.193  21.029  53.382  1.00  0.00    -0.356 OA
HETATM   18  C   UNL     1       8.130  20.436  52.644  1.00  0.00     0.210 C 
ENDBRANCH  13  17
ENDBRANCH   8  11
ENDBRANCH   5   7
BRANCH   1  19
HETATM   19  C   UNL     1       8.468  29.762  58.284  1.00  0.00    -0.005 A 
HETATM   20  C   UNL     1       8.002  30.492  59.393  1.00  0.00     0.050 A 
HETATM   21  C   UNL     1       8.711  31.593  59.881  1.00  0.00     0.069 A 
HETATM   22  C   UNL     1       9.902  31.969  59.259  1.00  0.00     0.037 A 
HETATM   23  C   UNL     1      10.377  31.263  58.156  1.00  0.00     0.004 A 
HETATM   24  C   UNL     1       9.661  30.167  57.669  1.00  0.00     0.014 A 
BRANCH  21  25
HETATM   25  O   UNL     1       8.355  32.372  60.948  1.00  0.00    -0.356 OA
HETATM   26  C   UNL     1       8.401  31.766  62.233  1.00  0.00     0.210 C 
ENDBRANCH  21  25
ENDBRANCH   1  19
TORSDOF 5
ENDMDL
MODEL 7
REMARK VINA RESULT:      -8.2      4.327     11.186
REMARK  5 active torsions:
REMARK  status: ('A' for Active; 'I' for Inactive)
REMARK    1  A    between atoms: O_2  and  C_3 
REMARK    2  A    between atoms: C_5  and  C_6 
REMARK    3  A    between atoms: C_10  and  C_11 
REMARK       I    between atoms: C_11  and  N_12 
REMARK    4  A    between atoms: N_12  and  C_13 
REMARK    5  A    between atoms: C_15  and  O_16 
ROOT
HETATM    1  C   UNL     1       7.717  31.627  62.065  1.00  0.00     0.063 A 
HETATM    2  N   UNL     1       8.727  30.723  62.286  1.00  0.00    -0.277 N 
HETATM    3  H   UNL     1       9.160  30.489  63.171  1.00  0.00     0.189 HD
HETATM    4  N   UNL     1       9.151  30.075  61.185  1.00  0.00    -0.169 NA
HETATM    5  C   UNL     1       8.366  30.560  60.202  1.00  0.00     0.147 A 
HETATM    6  C   UNL     1       7.467  31.532  60.709  1.00  0.00     0.071 A 
ENDROOT
BRANCH   5   7
HETATM    7  C   UNL     1       8.471  30.087  58.809  1.00  0.00     0.276 C 
HETATM    8  N   UNL     1       7.610  29.035  58.561  1.00  0.00    -0.322 N 
HETATM    9  H   UNL     1       7.078  28.754  59.382  1.00  0.00     0.169 HD
HETATM   10  O   UNL     1       9.245  30.608  58.014  1.00  0.00    -0.266 OA
BRANCH   8  11
HETATM   11  C   UNL     1       7.385  28.347  57.358  1.00  0.00     0.037 A 
HETATM   12  C   UNL     1       6.670  28.878  56.279  1.00  0.00     0.066 A 
HETATM   13  C   UNL     1       6.472  28.123  55.118  1.00  0.00     0.070 A 
HETATM   14  C   UNL     1       7.005  26.835  55.036  1.00  0.00     0.037 A 
HETATM   15  C   UNL     1       7.720  26.298  56.103  1.00  0.00     0.005 A 
HETATM   16  C   UNL     1       7.907  27.051  57.261  1.00  0.00     0.029 A 
BRANCH  13  17
HETATM   17  O   UNL     1       5.784  28.526  54.005  1.00  0.00    -0.356 OA
HETATM   18  C   UNL     1       4.371  28.640  54.130  1.00  0.00     0.210 C 
ENDBRANCH  13  17
ENDBRANCH   8  11
ENDBRANCH   5   7
BRANCH   1  19
HETATM   19  C   UNL     1       7.089  32.432  63.115  1.00  0.00    -0.005 A 
HETATM   20  C   UNL     1       5.690  32.579  63.148  1.00  0.00     0.050 A 
HETATM   21  C   UNL     1       5.068  33.336  64.144  1.00  0.00     0.069 A 
HETATM   22  C   UNL     1       5.849  33.952  65.122  1.00  0.00     0.037 A 
HETATM   23  C   UNL     1       7.236  33.825  65.103  1.00  0.00     0.004 A 
HETATM   24  C   UNL     1       7.853  33.071  64.102  1.00  0.00     0.014 A 
BRANCH  21  25
HETATM   25  O   UNL     1       3.722  33.546  64.273  1.00  0.00    -0.356 OA
HETATM   26  C   UNL     1       2.995  33.825  63.084  1.00  0.00     0.210 C 
ENDBRANCH  21  25
ENDBRANCH   1  19
TORSDOF 5
ENDMDL
MODEL 8
REMARK VINA RESULT:      -8.2      4.905     11.399
REMARK  5 active torsions:
REMARK  status: ('A' for Active; 'I' for Inactive)
REMARK    1  A    between atoms: O_2  and  C_3 
REMARK    2  A    between atoms: C_5  and  C_6 
REMARK    3  A    between atoms: C_10  and  C_11 
REMARK       I    between atoms: C_11  and  N_12 
REMARK    4  A    between atoms: N_12  and  C_13 
REMARK    5  A    between atoms: C_15  and  O_16 
ROOT
HETATM    1  C   UNL     1       8.049  32.010  60.965  1.00  0.00     0.063 A 
HETATM    2  N   UNL     1       9.014  32.731  60.307  1.00  0.00    -0.277 N 
HETATM    3  H   UNL     1       9.403  33.627  60.577  1.00  0.00     0.189 HD
HETATM    4  N   UNL     1       9.493  32.144  59.195  1.00  0.00    -0.169 NA
HETATM    5  C   UNL     1       8.828  30.973  59.137  1.00  0.00     0.147 A 
HETATM    6  C   UNL     1       7.915  30.857  60.215  1.00  0.00     0.071 A 
ENDROOT
BRANCH   5   7
HETATM    7  C   UNL     1       9.075  29.982  58.071  1.00  0.00     0.276 C 
HETATM    8  N   UNL     1       7.966  29.189  57.846  1.00  0.00    -0.322 N 
HETATM    9  H   UNL     1       7.189  29.405  58.466  1.00  0.00     0.169 HD
HETATM   10  O   UNL     1      10.154  29.923  57.492  1.00  0.00    -0.266 OA
BRANCH   8  11
HETATM   11  C   UNL     1       7.791  28.172  56.893  1.00  0.00     0.037 A 
HETATM   12  C   UNL     1       7.771  26.808  57.204  1.00  0.00     0.066 A 
HETATM   13  C   UNL     1       7.610  25.852  56.196  1.00  0.00     0.070 A 
HETATM   14  C   UNL     1       7.454  26.268  54.873  1.00  0.00     0.037 A 
HETATM   15  C   UNL     1       7.471  27.623  54.552  1.00  0.00     0.005 A 
HETATM   16  C   UNL     1       7.641  28.571  55.560  1.00  0.00     0.029 A 
BRANCH  13  17
HETATM   17  O   UNL     1       7.586  24.495  56.373  1.00  0.00    -0.356 OA
HETATM   18  C   UNL     1       8.642  23.928  57.139  1.00  0.00     0.210 C 
ENDBRANCH  13  17
ENDBRANCH   8  11
ENDBRANCH   5   7
BRANCH   1  19
HETATM   19  C   UNL     1       7.399  32.444  62.204  1.00  0.00    -0.005 A 
HETATM   20  C   UNL     1       5.997  32.548  62.264  1.00  0.00     0.050 A 
HETATM   21  C   UNL     1       5.354  32.953  63.437  1.00  0.00     0.069 A 
HETATM   22  C   UNL     1       6.116  33.255  64.565  1.00  0.00     0.037 A 
HETATM   23  C   UNL     1       7.505  33.164  64.524  1.00  0.00     0.004 A 
HETATM   24  C   UNL     1       8.143  32.764  63.348  1.00  0.00     0.014 A 
BRANCH  21  25
HETATM   25  O   UNL     1       4.003  33.089  63.609  1.00  0.00    -0.356 OA
HETATM   26  C   UNL     1       3.250  33.524  62.484  1.00  0.00     0.210 C 
ENDBRANCH  21  25
ENDBRANCH   1  19
TORSDOF 5
ENDMDL
MODEL 9
REMARK VINA RESULT:      -8.1     15.086     17.922
REMARK  5 active torsions:
REMARK  status: ('A' for Active; 'I' for Inactive)
REMARK    1  A    between atoms: O_2  and  C_3 
REMARK    2  A    between atoms: C_5  and  C_6 
REMARK    3  A    between atoms: C_10  and  C_11 
REMARK       I    between atoms: C_11  and  N_12 
REMARK    4  A    between atoms: N_12  and  C_13 
REMARK    5  A    between atoms: C_15  and  O_16 
ROOT
HETATM    1  C   UNL     1       7.251  24.074  53.567  1.00  0.00     0.063 A 
HETATM    2  N   UNL     1       7.370  25.142  54.422  1.00  0.00    -0.277 N 
HETATM    3  H   UNL     1       7.799  25.150  55.339  1.00  0.00     0.189 HD
HETATM    4  N   UNL     1       6.868  26.298  53.949  1.00  0.00    -0.169 NA
HETATM    5  C   UNL     1       6.424  25.977  52.717  1.00  0.00     0.147 A 
HETATM    6  C   UNL     1       6.637  24.602  52.447  1.00  0.00     0.071 A 
ENDROOT
BRANCH   5   7
HETATM    7  C   UNL     1       5.818  26.976  51.817  1.00  0.00     0.276 C 
HETATM    8  N   UNL     1       5.526  26.435  50.579  1.00  0.00    -0.322 N 
HETATM    9  H   UNL     1       5.801  25.459  50.495  1.00  0.00     0.169 HD
HETATM   10  O   UNL     1       5.620  28.129  52.182  1.00  0.00    -0.266 OA
BRANCH   8  11
HETATM   11  C   UNL     1       4.908  27.047  49.476  1.00  0.00     0.037 A 
HETATM   12  C   UNL     1       5.228  28.328  49.015  1.00  0.00     0.066 A 
HETATM   13  C   UNL     1       4.555  28.877  47.918  1.00  0.00     0.070 A 
HETATM   14  C   UNL     1       3.566  28.131  47.274  1.00  0.00     0.037 A 
HETATM   15  C   UNL     1       3.241  26.853  47.723  1.00  0.00     0.005 A 
HETATM   16  C   UNL     1       3.909  26.315  48.822  1.00  0.00     0.029 A 
BRANCH  13  17
HETATM   17  O   UNL     1       4.769  30.119  47.383  1.00  0.00    -0.356 OA
HETATM   18  C   UNL     1       4.923  31.196  48.301  1.00  0.00     0.210 C 
ENDBRANCH  13  17
ENDBRANCH   8  11
ENDBRANCH   5   7
BRANCH   1  19
HETATM   19  C   UNL     1       7.740  22.725  53.863  1.00  0.00    -0.005 A 
HETATM   20  C   UNL     1       8.040  22.360  55.188  1.00  0.00     0.050 A 
HETATM   21  C   UNL     1       8.501  21.077  55.495  1.00  0.00     0.069 A 
HETATM   22  C   UNL     1       8.661  20.145  54.471  1.00  0.00     0.037 A 
HETATM   23  C   UNL     1       8.376  20.488  53.151  1.00  0.00     0.004 A 
HETATM   24  C   UNL     1       7.921  21.774  52.849  1.00  0.00     0.014 A 
BRANCH  21  25
HETATM   25  O   UNL     1       8.822  20.614  56.742  1.00  0.00    -0.356 OA
HETATM   26  C   UNL     1       8.369  21.380  57.851  1.00  0.00     0.210 C 
ENDBRANCH  21  25
ENDBRANCH   1  19
TORSDOF 5
ENDMDL
MODEL 10
REMARK VINA RESULT:      -8.1      5.649     12.155
REMARK  5 active torsions:
REMARK  status: ('A' for Active; 'I' for Inactive)
REMARK    1  A    between atoms: O_2  and  C_3 
REMARK    2  A    between atoms: C_5  and  C_6 
REMARK    3  A    between atoms: C_10  and  C_11 
REMARK       I    between atoms: C_11  and  N_12 
REMARK    4  A    between atoms: N_12  and  C_13 
REMARK    5  A    between atoms: C_15  and  O_16 
ROOT
HETATM    1  C   UNL     1       8.594  31.540  60.092  1.00  0.00     0.063 A 
HETATM    2  N   UNL     1       9.644  32.067  59.381  1.00  0.00    -0.277 N 
HETATM    3  H   UNL     1      10.143  32.928  59.570  1.00  0.00     0.189 HD
HETATM    4  N   UNL     1      10.045  31.320  58.335  1.00  0.00    -0.169 NA
HETATM    5  C   UNL     1       9.236  30.243  58.380  1.00  0.00     0.147 A 
HETATM    6  C   UNL     1       8.315  30.347  59.453  1.00  0.00     0.071 A 
ENDROOT
BRANCH   5   7
HETATM    7  C   UNL     1       9.356  29.132  57.416  1.00  0.00     0.276 C 
HETATM    8  N   UNL     1       8.281  28.268  57.499  1.00  0.00    -0.322 N 
HETATM    9  H   UNL     1       7.614  28.529  58.222  1.00  0.00     0.169 HD
HETATM   10  O   UNL     1      10.315  29.044  56.658  1.00  0.00    -0.266 OA
BRANCH   8  11
HETATM   11  C   UNL     1       8.008  27.127  56.727  1.00  0.00     0.037 A 
HETATM   12  C   UNL     1       7.581  27.170  55.396  1.00  0.00     0.066 A 
HETATM   13  C   UNL     1       7.311  25.989  54.697  1.00  0.00     0.070 A 
HETATM   14  C   UNL     1       7.485  24.759  55.334  1.00  0.00     0.037 A 
HETATM   15  C   UNL     1       7.912  24.703  56.658  1.00  0.00     0.005 A 
HETATM   16  C   UNL     1       8.170  25.884  57.352  1.00  0.00     0.029 A 
BRANCH  13  17
HETATM   17  O   UNL     1       6.879  25.903  53.401  1.00  0.00    -0.356 OA
HETATM   18  C   UNL     1       7.772  25.311  52.464  1.00  0.00     0.210 C 
ENDBRANCH  13  17
ENDBRANCH   8  11
ENDBRANCH   5   7
BRANCH   1  19
HETATM   19  C   UNL     1       8.004  32.169  61.276  1.00  0.00    -0.005 A 
HETATM   20  C   UNL     1       6.807  32.900  61.162  1.00  0.00     0.050 A 
HETATM   21  C   UNL     1       6.222  33.503  62.278  1.00  0.00     0.069 A 
HETATM   22  C   UNL     1       6.833  33.373  63.525  1.00  0.00     0.037 A 
HETATM   23  C   UNL     1       8.022  32.658  63.658  1.00  0.00     0.004 A 
HETATM   24  C   UNL     1       8.606  32.062  62.538  1.00  0.00     0.014 A 
BRANCH  21  25
HETATM   25  O   UNL     1       5.065  34.234  62.285  1.00  0.00    -0.356 OA
HETATM   26  C   UNL     1       5.196  35.649  62.320  1.00  0.00     0.210 C 
ENDBRANCH  21  25
ENDBRANCH   1  19
TORSDOF 5
ENDMDL
