MODEL 1
REMARK VINA RESULT:      -9.7      0.000      0.000
REMARK  7 active torsions:
REMARK  status: ('A' for Active; 'I' for Inactive)
REMARK    1  A    between atoms: C_2  and  N_3 
REMARK    2  A    between atoms: C_2  and  C_19 
REMARK       I    between atoms: N_3  and  C_4 
REMARK       I    between atoms: C_4  and  N_5 
REMARK    3  A    between atoms: N_5  and  C_6 
REMARK    4  A    between atoms: N_8  and  C_9 
REMARK    5  A    between atoms: C_9  and  C_10 
REMARK    6  A    between atoms: C_19  and  C_20 
REMARK    7  A    between atoms: C_23  and  O_24 
ROOT
HETATM    1  N   UNL     1       6.998  26.771  55.838  1.00  0.00    -0.338 N 
HETATM    2  C   UNL     1       7.490  27.477  54.787  1.00  0.00     0.322 C 
HETATM    3  N   UNL     1       7.887  28.757  55.033  1.00  0.00    -0.292 N 
HETATM    4  O   UNL     1       7.574  27.032  53.643  1.00  0.00    -0.247 OA
HETATM    5  H   UNL     1       7.058  27.253  56.734  1.00  0.00     0.164 HD
HETATM    6  H   UNL     1       8.190  29.255  54.211  1.00  0.00     0.172 HD
ENDROOT
BRANCH   1   7
HETATM    7  C   UNL     1       6.582  25.376  55.819  1.00  0.00     0.086 C 
HETATM    8  C   UNL     1       5.360  25.164  56.715  1.00  0.00     0.032 C 
BRANCH   7   9
HETATM    9  C   UNL     1       7.698  24.372  56.176  1.00  0.00     0.063 C 
BRANCH   9  10
HETATM   10  C   UNL     1       7.797  23.203  55.221  1.00  0.00    -0.056 A 
HETATM   11  C   UNL     1       7.819  21.890  55.713  1.00  0.00     0.010 A 
HETATM   12  C   UNL     1       7.908  20.804  54.840  1.00  0.00     0.037 A 
HETATM   13  C   UNL     1       7.974  21.035  53.470  1.00  0.00     0.065 A 
HETATM   14  C   UNL     1       7.956  22.329  52.963  1.00  0.00     0.037 A 
HETATM   15  C   UNL     1       7.869  23.413  53.837  1.00  0.00     0.010 A 
BRANCH  13  16
HETATM   16  O   UNL     1       8.056  20.004  52.580  1.00  0.00    -0.361 OA
HETATM   17  H   UNL     1       7.790  20.333  51.707  1.00  0.00     0.217 HD
ENDBRANCH  13  16
ENDBRANCH   9  10
ENDBRANCH   7   9
ENDBRANCH   1   7
BRANCH   3  18
HETATM   18  C   UNL     1       7.959  29.420  56.238  1.00  0.00     0.153 A 
HETATM   19  N   UNL     1       9.097  29.744  56.863  1.00  0.00    -0.154 NA
HETATM   20  N   UNL     1       8.695  30.389  57.978  1.00  0.00    -0.275 N 
HETATM   21  C   UNL     1       7.337  30.493  58.078  1.00  0.00     0.116 A 
HETATM   22  C   UNL     1       6.830  29.869  56.963  1.00  0.00     0.071 A 
BRANCH  20  23
HETATM   23  C   UNL     1       9.680  30.970  58.881  1.00  0.00     0.189 C 
BRANCH  23  24
HETATM   24  C   UNL     1       9.080  31.331  60.215  1.00  0.00    -0.038 A 
HETATM   25  C   UNL     1       8.391  32.541  60.382  1.00  0.00     0.009 A 
HETATM   26  C   UNL     1       7.822  32.870  61.614  1.00  0.00     0.001 A 
HETATM   27  C   UNL     1       7.935  31.993  62.690  1.00  0.00     0.000 A 
HETATM   28  C   UNL     1       8.618  30.788  62.539  1.00  0.00     0.001 A 
HETATM   29  C   UNL     1       9.189  30.458  61.308  1.00  0.00     0.009 A 
ENDBRANCH  23  24
ENDBRANCH  20  23
ENDBRANCH   3  18
TORSDOF 7
ENDMDL
MODEL 2
REMARK VINA RESULT:      -9.5      2.327      3.437
REMARK  7 active torsions:
REMARK  status: ('A' for Active; 'I' for Inactive)
REMARK    1  A    between atoms: C_2  and  N_3 
REMARK    2  A    between atoms: C_2  and  C_19 
REMARK       I    between atoms: N_3  and  C_4 
REMARK       I    between atoms: C_4  and  N_5 
REMARK    3  A    between atoms: N_5  and  C_6 
REMARK    4  A    between atoms: N_8  and  C_9 
REMARK    5  A    between atoms: C_9  and  C_10 
REMARK    6  A    between atoms: C_19  and  C_20 
REMARK    7  A    between atoms: C_23  and  O_24 
ROOT
HETATM    1  N   UNL     1       5.971  26.812  52.896  1.00  0.00    -0.338 N 
HETATM    2  C   UNL     1       5.717  28.094  52.526  1.00  0.00     0.322 C 
HETATM    3  N   UNL     1       5.552  29.004  53.527  1.00  0.00    -0.292 N 
HETATM    4  O   UNL     1       5.610  28.461  51.357  1.00  0.00    -0.247 OA
HETATM    5  H   UNL     1       6.100  26.680  53.898  1.00  0.00     0.164 HD
HETATM    6  H   UNL     1       5.310  29.927  53.202  1.00  0.00     0.172 HD
ENDROOT
BRANCH   1   7
HETATM    7  C   UNL     1       6.247  25.696  52.001  1.00  0.00     0.086 C 
HETATM    8  C   UNL     1       5.150  24.636  52.106  1.00  0.00     0.032 C 
BRANCH   7   9
HETATM    9  C   UNL     1       7.640  25.058  52.186  1.00  0.00     0.063 C 
BRANCH   9  10
HETATM   10  C   UNL     1       7.671  23.950  53.215  1.00  0.00    -0.056 A 
HETATM   11  C   UNL     1       7.514  24.246  54.577  1.00  0.00     0.010 A 
HETATM   12  C   UNL     1       7.540  23.229  55.534  1.00  0.00     0.037 A 
HETATM   13  C   UNL     1       7.722  21.912  55.125  1.00  0.00     0.065 A 
HETATM   14  C   UNL     1       7.882  21.599  53.781  1.00  0.00     0.037 A 
HETATM   15  C   UNL     1       7.858  22.616  52.825  1.00  0.00     0.010 A 
BRANCH  13  16
HETATM   16  O   UNL     1       7.749  20.888  56.026  1.00  0.00    -0.361 OA
HETATM   17  H   UNL     1       7.417  21.222  56.874  1.00  0.00     0.217 HD
ENDBRANCH  13  16
ENDBRANCH   9  10
ENDBRANCH   7   9
ENDBRANCH   1   7
BRANCH   3  18
HETATM   18  C   UNL     1       5.711  28.832  54.883  1.00  0.00     0.153 A 
HETATM   19  N   UNL     1       6.842  28.428  55.474  1.00  0.00    -0.154 NA
HETATM   20  N   UNL     1       6.548  28.420  56.791  1.00  0.00    -0.275 N 
HETATM   21  C   UNL     1       5.268  28.813  57.058  1.00  0.00     0.116 A 
HETATM   22  C   UNL     1       4.696  29.083  55.837  1.00  0.00     0.071 A 
BRANCH  20  23
HETATM   23  C   UNL     1       7.582  28.105  57.769  1.00  0.00     0.189 C 
BRANCH  23  24
HETATM   24  C   UNL     1       8.639  29.177  57.838  1.00  0.00    -0.038 A 
HETATM   25  C   UNL     1       9.805  29.079  57.063  1.00  0.00     0.009 A 
HETATM   26  C   UNL     1      10.778  30.078  57.116  1.00  0.00     0.001 A 
HETATM   27  C   UNL     1      10.596  31.185  57.942  1.00  0.00     0.000 A 
HETATM   28  C   UNL     1       9.444  31.295  58.718  1.00  0.00     0.001 A 
HETATM   29  C   UNL     1       8.469  30.295  58.667  1.00  0.00     0.009 A 
ENDBRANCH  23  24
ENDBRANCH  20  23
ENDBRANCH   3  18
TORSDOF 7
ENDMDL
MODEL 3
REMARK VINA RESULT:      -9.3      3.556     10.255
REMARK  7 active torsions:
REMARK  status: ('A' for Active; 'I' for Inactive)
REMARK    1  A    between atoms: C_2  and  N_3 
REMARK    2  A    between atoms: C_2  and  C_19 
REMARK       I    between atoms: N_3  and  C_4 
REMARK       I    between atoms: C_4  and  N_5 
REMARK    3  A    between atoms: N_5  and  C_6 
REMARK    4  A    between atoms: N_8  and  C_9 
REMARK    5  A    between atoms: C_9  and  C_10 
REMARK    6  A    between atoms: C_19  and  C_20 
REMARK    7  A    between atoms: C_23  and  O_24 
ROOT
HETATM    1  N   UNL     1       8.726  30.913  59.633  1.00  0.00    -0.338 N 
HETATM    2  C   UNL     1       9.409  31.158  58.485  1.00  0.00     0.322 C 
HETATM    3  N   UNL     1       9.199  30.302  57.446  1.00  0.00    -0.292 N 
HETATM    4  O   UNL     1      10.207  32.084  58.348  1.00  0.00    -0.247 OA
HETATM    5  H   UNL     1       8.051  30.152  59.568  1.00  0.00     0.164 HD
HETATM    6  H   UNL     1       9.771  30.493  56.638  1.00  0.00     0.172 HD
ENDROOT
BRANCH   1   7
HETATM    7  C   UNL     1       8.745  31.732  60.837  1.00  0.00     0.086 C 
HETATM    8  C   UNL     1      10.126  31.698  61.492  1.00  0.00     0.032 C 
BRANCH   7   9
HETATM    9  C   UNL     1       7.647  31.383  61.865  1.00  0.00     0.063 C 
BRANCH   9  10
HETATM   10  C   UNL     1       7.176  32.565  62.681  1.00  0.00    -0.056 A 
HETATM   11  C   UNL     1       7.642  32.749  63.991  1.00  0.00     0.010 A 
HETATM   12  C   UNL     1       7.214  33.839  64.752  1.00  0.00     0.037 A 
HETATM   13  C   UNL     1       6.317  34.747  64.199  1.00  0.00     0.065 A 
HETATM   14  C   UNL     1       5.842  34.581  62.904  1.00  0.00     0.037 A 
HETATM   15  C   UNL     1       6.269  33.490  62.145  1.00  0.00     0.010 A 
BRANCH  13  16
HETATM   16  O   UNL     1       5.877  35.828  64.905  1.00  0.00    -0.361 OA
HETATM   17  H   UNL     1       5.574  35.520  65.774  1.00  0.00     0.217 HD
ENDBRANCH  13  16
ENDBRANCH   9  10
ENDBRANCH   7   9
ENDBRANCH   1   7
BRANCH   3  18
HETATM   18  C   UNL     1       8.300  29.263  57.354  1.00  0.00     0.153 A 
HETATM   19  N   UNL     1       8.540  28.009  57.755  1.00  0.00    -0.154 NA
HETATM   20  N   UNL     1       7.391  27.349  57.496  1.00  0.00    -0.275 N 
HETATM   21  C   UNL     1       6.426  28.145  56.950  1.00  0.00     0.116 A 
HETATM   22  C   UNL     1       6.988  29.395  56.842  1.00  0.00     0.071 A 
BRANCH  20  23
HETATM   23  C   UNL     1       7.250  25.950  57.882  1.00  0.00     0.189 C 
BRANCH  23  24
HETATM   24  C   UNL     1       7.541  25.016  56.736  1.00  0.00    -0.038 A 
HETATM   25  C   UNL     1       6.639  24.895  55.669  1.00  0.00     0.009 A 
HETATM   26  C   UNL     1       6.915  24.041  54.600  1.00  0.00     0.001 A 
HETATM   27  C   UNL     1       8.094  23.300  54.587  1.00  0.00     0.000 A 
HETATM   28  C   UNL     1       8.998  23.409  55.641  1.00  0.00     0.001 A 
HETATM   29  C   UNL     1       8.724  24.263  56.712  1.00  0.00     0.009 A 
ENDBRANCH  23  24
ENDBRANCH  20  23
ENDBRANCH   3  18
TORSDOF 7
ENDMDL
MODEL 4
REMARK VINA RESULT:      -9.1      4.909      8.321
REMARK  7 active torsions:
REMARK  status: ('A' for Active; 'I' for Inactive)
REMARK    1  A    between atoms: C_2  and  N_3 
REMARK    2  A    between atoms: C_2  and  C_19 
REMARK       I    between atoms: N_3  and  C_4 
REMARK       I    between atoms: C_4  and  N_5 
REMARK    3  A    between atoms: N_5  and  C_6 
REMARK    4  A    between atoms: N_8  and  C_9 
REMARK    5  A    between atoms: C_9  and  C_10 
REMARK    6  A    between atoms: C_19  and  C_20 
REMARK    7  A    between atoms: C_23  and  O_24 
ROOT
HETATM    1  N   UNL     1       6.734  26.645  53.246  1.00  0.00    -0.338 N 
HETATM    2  C   UNL     1       6.888  27.725  54.056  1.00  0.00     0.322 C 
HETATM    3  N   UNL     1       6.112  28.813  53.788  1.00  0.00    -0.292 N 
HETATM    4  O   UNL     1       7.692  27.774  54.985  1.00  0.00    -0.247 OA
HETATM    5  H   UNL     1       5.980  26.732  52.566  1.00  0.00     0.164 HD
HETATM    6  H   UNL     1       6.304  29.606  54.380  1.00  0.00     0.172 HD
ENDROOT
BRANCH   1   7
HETATM    7  C   UNL     1       7.405  25.360  53.389  1.00  0.00     0.086 C 
HETATM    8  C   UNL     1       8.120  24.978  52.091  1.00  0.00     0.032 C 
BRANCH   7   9
HETATM    9  C   UNL     1       6.490  24.211  53.864  1.00  0.00     0.063 C 
BRANCH   9  10
HETATM   10  C   UNL     1       7.224  22.916  54.129  1.00  0.00    -0.056 A 
HETATM   11  C   UNL     1       7.514  22.526  55.445  1.00  0.00     0.010 A 
HETATM   12  C   UNL     1       8.191  21.331  55.700  1.00  0.00     0.037 A 
HETATM   13  C   UNL     1       8.577  20.525  54.634  1.00  0.00     0.065 A 
HETATM   14  C   UNL     1       8.302  20.896  53.324  1.00  0.00     0.037 A 
HETATM   15  C   UNL     1       7.627  22.091  53.070  1.00  0.00     0.010 A 
BRANCH  13  16
HETATM   16  O   UNL     1       9.235  19.348  54.839  1.00  0.00    -0.361 OA
HETATM   17  H   UNL     1       8.904  18.954  55.661  1.00  0.00     0.217 HD
ENDBRANCH  13  16
ENDBRANCH   9  10
ENDBRANCH   7   9
ENDBRANCH   1   7
BRANCH   3  18
HETATM   18  C   UNL     1       5.101  28.944  52.863  1.00  0.00     0.153 A 
HETATM   19  N   UNL     1       5.285  29.214  51.565  1.00  0.00    -0.154 NA
HETATM   20  N   UNL     1       4.039  29.230  51.047  1.00  0.00    -0.275 N 
HETATM   21  C   UNL     1       3.069  28.971  51.972  1.00  0.00     0.116 A 
HETATM   22  C   UNL     1       3.728  28.784  53.164  1.00  0.00     0.071 A 
BRANCH  20  23
HETATM   23  C   UNL     1       3.847  29.417  49.614  1.00  0.00     0.189 C 
BRANCH  23  24
HETATM   24  C   UNL     1       3.452  28.136  48.925  1.00  0.00    -0.038 A 
HETATM   25  C   UNL     1       4.401  27.128  48.697  1.00  0.00     0.009 A 
HETATM   26  C   UNL     1       4.033  25.936  48.073  1.00  0.00     0.001 A 
HETATM   27  C   UNL     1       2.713  25.738  47.671  1.00  0.00     0.000 A 
HETATM   28  C   UNL     1       1.761  26.731  47.890  1.00  0.00     0.001 A 
HETATM   29  C   UNL     1       2.128  27.926  48.514  1.00  0.00     0.009 A 
ENDBRANCH  23  24
ENDBRANCH  20  23
ENDBRANCH   3  18
TORSDOF 7
ENDMDL
MODEL 5
REMARK VINA RESULT:      -9.1      2.899      9.682
REMARK  7 active torsions:
REMARK  status: ('A' for Active; 'I' for Inactive)
REMARK    1  A    between atoms: C_2  and  N_3 
REMARK    2  A    between atoms: C_2  and  C_19 
REMARK       I    between atoms: N_3  and  C_4 
REMARK       I    between atoms: C_4  and  N_5 
REMARK    3  A    between atoms: N_5  and  C_6 
REMARK    4  A    between atoms: N_8  and  C_9 
REMARK    5  A    between atoms: C_9  and  C_10 
REMARK    6  A    between atoms: C_19  and  C_20 
REMARK    7  A    between atoms: C_23  and  O_24 
ROOT
HETATM    1  N   UNL     1       7.596  29.633  57.822  1.00  0.00    -0.338 N 
HETATM    2  C   UNL     1       6.410  29.947  57.240  1.00  0.00     0.322 C 
HETATM    3  N   UNL     1       5.716  28.928  56.660  1.00  0.00    -0.292 N 
HETATM    4  O   UNL     1       5.952  31.088  57.193  1.00  0.00    -0.247 OA
HETATM    5  H   UNL     1       7.804  28.635  57.841  1.00  0.00     0.164 HD
HETATM    6  H   UNL     1       4.872  29.222  56.193  1.00  0.00     0.172 HD
ENDROOT
BRANCH   1   7
HETATM    7  C   UNL     1       8.464  30.544  58.555  1.00  0.00     0.086 C 
HETATM    8  C   UNL     1       9.843  30.620  57.898  1.00  0.00     0.032 C 
BRANCH   7   9
HETATM    9  C   UNL     1       8.595  30.230  60.060  1.00  0.00     0.063 C 
BRANCH   9  10
HETATM   10  C   UNL     1       8.023  31.303  60.959  1.00  0.00    -0.056 A 
HETATM   11  C   UNL     1       8.560  31.513  62.238  1.00  0.00     0.010 A 
HETATM   12  C   UNL     1       8.040  32.502  63.075  1.00  0.00     0.037 A 
HETATM   13  C   UNL     1       6.980  33.285  62.629  1.00  0.00     0.065 A 
HETATM   14  C   UNL     1       6.432  33.091  61.366  1.00  0.00     0.037 A 
HETATM   15  C   UNL     1       6.952  32.100  60.532  1.00  0.00     0.010 A 
BRANCH  13  16
HETATM   16  O   UNL     1       6.445  34.266  63.411  1.00  0.00    -0.361 OA
HETATM   17  H   UNL     1       6.578  34.019  64.341  1.00  0.00     0.217 HD
ENDBRANCH  13  16
ENDBRANCH   9  10
ENDBRANCH   7   9
ENDBRANCH   1   7
BRANCH   3  18
HETATM   18  C   UNL     1       5.997  27.580  56.669  1.00  0.00     0.153 A 
HETATM   19  N   UNL     1       7.205  27.051  56.436  1.00  0.00    -0.154 NA
HETATM   20  N   UNL     1       7.018  25.721  56.565  1.00  0.00    -0.275 N 
HETATM   21  C   UNL     1       5.733  25.387  56.880  1.00  0.00     0.116 A 
HETATM   22  C   UNL     1       5.043  26.574  56.950  1.00  0.00     0.071 A 
BRANCH  20  23
HETATM   23  C   UNL     1       8.152  24.811  56.458  1.00  0.00     0.189 C 
BRANCH  23  24
HETATM   24  C   UNL     1       8.027  23.890  55.272  1.00  0.00    -0.038 A 
HETATM   25  C   UNL     1       7.919  24.411  53.974  1.00  0.00     0.009 A 
HETATM   26  C   UNL     1       7.819  23.558  52.873  1.00  0.00     0.001 A 
HETATM   27  C   UNL     1       7.825  22.178  53.058  1.00  0.00     0.000 A 
HETATM   28  C   UNL     1       7.931  21.647  54.342  1.00  0.00     0.001 A 
HETATM   29  C   UNL     1       8.031  22.498  55.445  1.00  0.00     0.009 A 
ENDBRANCH  23  24
ENDBRANCH  20  23
ENDBRANCH   3  18
TORSDOF 7
ENDMDL
MODEL 6
REMARK VINA RESULT:      -9.0      1.772      2.397
REMARK  7 active torsions:
REMARK  status: ('A' for Active; 'I' for Inactive)
REMARK    1  A    between atoms: C_2  and  N_3 
REMARK    2  A    between atoms: C_2  and  C_19 
REMARK       I    between atoms: N_3  and  C_4 
REMARK       I    between atoms: C_4  and  N_5 
REMARK    3  A    between atoms: N_5  and  C_6 
REMARK    4  A    between atoms: N_8  and  C_9 
REMARK    5  A    between atoms: C_9  and  C_10 
REMARK    6  A    between atoms: C_19  and  C_20 
REMARK    7  A    between atoms: C_23  and  O_24 
ROOT
HETATM    1  N   UNL     1       6.731  26.226  57.040  1.00  0.00    -0.338 N 
HETATM    2  C   UNL     1       5.377  26.329  57.084  1.00  0.00     0.322 C 
HETATM    3  N   UNL     1       4.859  27.576  57.269  1.00  0.00    -0.292 N 
HETATM    4  O   UNL     1       4.614  25.370  56.988  1.00  0.00    -0.247 OA
HETATM    5  H   UNL     1       7.223  27.119  57.064  1.00  0.00     0.164 HD
HETATM    6  H   UNL     1       3.854  27.591  57.351  1.00  0.00     0.172 HD
ENDROOT
BRANCH   1   7
HETATM    7  C   UNL     1       7.494  25.012  56.785  1.00  0.00     0.086 C 
HETATM    8  C   UNL     1       8.883  25.105  57.418  1.00  0.00     0.032 C 
BRANCH   7   9
HETATM    9  C   UNL     1       7.600  24.625  55.295  1.00  0.00     0.063 C 
BRANCH   9  10
HETATM   10  C   UNL     1       8.000  23.185  55.065  1.00  0.00    -0.056 A 
HETATM   11  C   UNL     1       8.416  22.762  53.794  1.00  0.00     0.010 A 
HETATM   12  C   UNL     1       8.789  21.435  53.573  1.00  0.00     0.037 A 
HETATM   13  C   UNL     1       8.744  20.529  54.627  1.00  0.00     0.065 A 
HETATM   14  C   UNL     1       8.332  20.927  55.893  1.00  0.00     0.037 A 
HETATM   15  C   UNL     1       7.958  22.254  56.113  1.00  0.00     0.010 A 
BRANCH  13  16
HETATM   16  O   UNL     1       9.104  19.224  54.456  1.00  0.00    -0.361 OA
HETATM   17  H   UNL     1       9.970  19.090  54.874  1.00  0.00     0.217 HD
ENDBRANCH  13  16
ENDBRANCH   9  10
ENDBRANCH   7   9
ENDBRANCH   1   7
BRANCH   3  18
HETATM   18  C   UNL     1       5.516  28.785  57.315  1.00  0.00     0.153 A 
HETATM   19  N   UNL     1       6.712  28.981  57.884  1.00  0.00    -0.154 NA
HETATM   20  N   UNL     1       6.970  30.290  57.678  1.00  0.00    -0.275 N 
HETATM   21  C   UNL     1       5.980  30.930  56.989  1.00  0.00     0.116 A 
HETATM   22  C   UNL     1       5.019  29.979  56.743  1.00  0.00     0.071 A 
BRANCH  20  23
HETATM   23  C   UNL     1       8.246  30.857  58.096  1.00  0.00     0.189 C 
BRANCH  23  24
HETATM   24  C   UNL     1       8.215  31.318  59.530  1.00  0.00    -0.038 A 
HETATM   25  C   UNL     1       9.323  31.114  60.368  1.00  0.00     0.009 A 
HETATM   26  C   UNL     1       9.302  31.554  61.692  1.00  0.00     0.001 A 
HETATM   27  C   UNL     1       8.175  32.202  62.193  1.00  0.00     0.000 A 
HETATM   28  C   UNL     1       7.068  32.410  61.373  1.00  0.00     0.001 A 
HETATM   29  C   UNL     1       7.087  31.970  60.048  1.00  0.00     0.009 A 
ENDBRANCH  23  24
ENDBRANCH  20  23
ENDBRANCH   3  18
TORSDOF 7
ENDMDL
MODEL 7
REMARK VINA RESULT:      -8.9      2.701      9.380
REMARK  7 active torsions:
REMARK  status: ('A' for Active; 'I' for Inactive)
REMARK    1  A    between atoms: C_2  and  N_3 
REMARK    2  A    between atoms: C_2  and  C_19 
REMARK       I    between atoms: N_3  and  C_4 
REMARK       I    between atoms: C_4  and  N_5 
REMARK    3  A    between atoms: N_5  and  C_6 
REMARK    4  A    between atoms: N_8  and  C_9 
REMARK    5  A    between atoms: C_9  and  C_10 
REMARK    6  A    between atoms: C_19  and  C_20 
REMARK    7  A    between atoms: C_23  and  O_24 
ROOT
HETATM    1  N   UNL     1       6.860  28.298  55.656  1.00  0.00    -0.338 N 
HETATM    2  C   UNL     1       5.542  28.093  55.909  1.00  0.00     0.322 C 
HETATM    3  N   UNL     1       4.913  27.135  55.170  1.00  0.00    -0.292 N 
HETATM    4  O   UNL     1       4.896  28.730  56.739  1.00  0.00    -0.247 OA
HETATM    5  H   UNL     1       7.269  27.644  54.990  1.00  0.00     0.164 HD
HETATM    6  H   UNL     1       3.925  27.061  55.354  1.00  0.00     0.172 HD
ENDROOT
BRANCH   1   7
HETATM    7  C   UNL     1       7.740  29.215  56.368  1.00  0.00     0.086 C 
HETATM    8  C   UNL     1       9.089  29.330  55.656  1.00  0.00     0.032 C 
BRANCH   7   9
HETATM    9  C   UNL     1       7.939  28.881  57.861  1.00  0.00     0.063 C 
BRANCH   9  10
HETATM   10  C   UNL     1       7.781  30.071  58.779  1.00  0.00    -0.056 A 
HETATM   11  C   UNL     1       6.765  31.011  58.549  1.00  0.00     0.010 A 
HETATM   12  C   UNL     1       6.610  32.112  59.393  1.00  0.00     0.037 A 
HETATM   13  C   UNL     1       7.475  32.273  60.471  1.00  0.00     0.065 A 
HETATM   14  C   UNL     1       8.489  31.355  60.714  1.00  0.00     0.037 A 
HETATM   15  C   UNL     1       8.644  30.255  59.869  1.00  0.00     0.010 A 
BRANCH  13  16
HETATM   16  O   UNL     1       7.356  33.332  61.323  1.00  0.00    -0.361 OA
HETATM   17  H   UNL     1       7.795  34.097  60.919  1.00  0.00     0.217 HD
ENDBRANCH  13  16
ENDBRANCH   9  10
ENDBRANCH   7   9
ENDBRANCH   1   7
BRANCH   3  18
HETATM   18  C   UNL     1       5.454  26.257  54.258  1.00  0.00     0.153 A 
HETATM   19  N   UNL     1       6.708  25.790  54.300  1.00  0.00    -0.154 NA
HETATM   20  N   UNL     1       6.792  24.959  53.240  1.00  0.00    -0.275 N 
HETATM   21  C   UNL     1       5.629  24.876  52.530  1.00  0.00     0.116 A 
HETATM   22  C   UNL     1       4.741  25.712  53.165  1.00  0.00     0.071 A 
BRANCH  20  23
HETATM   23  C   UNL     1       8.009  24.191  53.008  1.00  0.00     0.189 C 
BRANCH  23  24
HETATM   24  C   UNL     1       7.982  22.862  53.716  1.00  0.00    -0.038 A 
HETATM   25  C   UNL     1       8.032  21.665  52.985  1.00  0.00     0.009 A 
HETATM   26  C   UNL     1       8.022  20.433  53.641  1.00  0.00     0.001 A 
HETATM   27  C   UNL     1       7.963  20.383  55.032  1.00  0.00     0.000 A 
HETATM   28  C   UNL     1       7.912  21.564  55.770  1.00  0.00     0.001 A 
HETATM   29  C   UNL     1       7.921  22.798  55.116  1.00  0.00     0.009 A 
ENDBRANCH  23  24
ENDBRANCH  20  23
ENDBRANCH   3  18
TORSDOF 7
ENDMDL
MODEL 8
REMARK VINA RESULT:      -8.8      5.294      8.875
REMARK  7 active torsions:
REMARK  status: ('A' for Active; 'I' for Inactive)
REMARK    1  A    between atoms: C_2  and  N_3 
REMARK    2  A    between atoms: C_2  and  C_19 
REMARK       I    between atoms: N_3  and  C_4 
REMARK       I    between atoms: C_4  and  N_5 
REMARK    3  A    between atoms: N_5  and  C_6 
REMARK    4  A    between atoms: N_8  and  C_9 
REMARK    5  A    between atoms: C_9  and  C_10 
REMARK    6  A    between atoms: C_19  and  C_20 
REMARK    7  A    between atoms: C_23  and  O_24 
ROOT
HETATM    1  N   UNL     1       4.801  28.093  51.847  1.00  0.00    -0.338 N 
HETATM    2  C   UNL     1       3.944  28.032  52.899  1.00  0.00     0.322 C 
HETATM    3  N   UNL     1       4.318  27.259  53.957  1.00  0.00    -0.292 N 
HETATM    4  O   UNL     1       2.859  28.611  52.932  1.00  0.00    -0.247 OA
HETATM    5  H   UNL     1       5.689  27.616  51.999  1.00  0.00     0.164 HD
HETATM    6  H   UNL     1       3.623  27.200  54.685  1.00  0.00     0.172 HD
ENDROOT
BRANCH   1   7
HETATM    7  C   UNL     1       4.638  28.906  50.650  1.00  0.00     0.086 C 
HETATM    8  C   UNL     1       5.078  30.347  50.911  1.00  0.00     0.032 C 
BRANCH   7   9
HETATM    9  C   UNL     1       3.219  28.872  50.043  1.00  0.00     0.063 C 
BRANCH   9  10
HETATM   10  C   UNL     1       3.045  27.834  48.957  1.00  0.00    -0.056 A 
HETATM   11  C   UNL     1       1.838  27.751  48.248  1.00  0.00     0.010 A 
HETATM   12  C   UNL     1       1.667  26.797  47.242  1.00  0.00     0.037 A 
HETATM   13  C   UNL     1       2.710  25.926  46.946  1.00  0.00     0.065 A 
HETATM   14  C   UNL     1       3.912  25.990  47.639  1.00  0.00     0.037 A 
HETATM   15  C   UNL     1       4.080  26.942  48.645  1.00  0.00     0.010 A 
BRANCH  13  16
HETATM   16  O   UNL     1       2.588  24.982  45.968  1.00  0.00    -0.361 OA
HETATM   17  H   UNL     1       1.660  24.700  45.932  1.00  0.00     0.217 HD
ENDBRANCH  13  16
ENDBRANCH   9  10
ENDBRANCH   7   9
ENDBRANCH   1   7
BRANCH   3  18
HETATM   18  C   UNL     1       5.509  26.600  54.164  1.00  0.00     0.153 A 
HETATM   19  N   UNL     1       6.035  25.694  53.330  1.00  0.00    -0.154 NA
HETATM   20  N   UNL     1       7.196  25.334  53.916  1.00  0.00    -0.275 N 
HETATM   21  C   UNL     1       7.429  25.987  55.092  1.00  0.00     0.116 A 
HETATM   22  C   UNL     1       6.348  26.814  55.282  1.00  0.00     0.071 A 
BRANCH  20  23
HETATM   23  C   UNL     1       8.096  24.406  53.243  1.00  0.00     0.189 C 
BRANCH  23  24
HETATM   24  C   UNL     1       8.009  23.016  53.818  1.00  0.00    -0.038 A 
HETATM   25  C   UNL     1       7.926  22.824  55.205  1.00  0.00     0.009 A 
HETATM   26  C   UNL     1       7.830  21.537  55.739  1.00  0.00     0.001 A 
HETATM   27  C   UNL     1       7.815  20.431  54.892  1.00  0.00     0.000 A 
HETATM   28  C   UNL     1       7.898  20.608  53.513  1.00  0.00     0.001 A 
HETATM   29  C   UNL     1       7.995  21.894  52.977  1.00  0.00     0.009 A 
ENDBRANCH  23  24
ENDBRANCH  20  23
ENDBRANCH   3  18
TORSDOF 7
ENDMDL
MODEL 9
REMARK VINA RESULT:      -8.7      2.430      3.316
REMARK  7 active torsions:
REMARK  status: ('A' for Active; 'I' for Inactive)
REMARK    1  A    between atoms: C_2  and  N_3 
REMARK    2  A    between atoms: C_2  and  C_19 
REMARK       I    between atoms: N_3  and  C_4 
REMARK       I    between atoms: C_4  and  N_5 
REMARK    3  A    between atoms: N_5  and  C_6 
REMARK    4  A    between atoms: N_8  and  C_9 
REMARK    5  A    between atoms: C_9  and  C_10 
REMARK    6  A    between atoms: C_19  and  C_20 
REMARK    7  A    between atoms: C_23  and  O_24 
ROOT
HETATM    1  N   UNL     1       6.532  26.173  56.803  1.00  0.00    -0.338 N 
HETATM    2  C   UNL     1       5.180  26.114  56.685  1.00  0.00     0.322 C 
HETATM    3  N   UNL     1       4.498  27.288  56.798  1.00  0.00    -0.292 N 
HETATM    4  O   UNL     1       4.553  25.071  56.506  1.00  0.00    -0.247 OA
HETATM    5  H   UNL     1       6.907  27.118  56.879  1.00  0.00     0.164 HD
HETATM    6  H   UNL     1       3.496  27.183  56.761  1.00  0.00     0.172 HD
ENDROOT
BRANCH   1   7
HETATM    7  C   UNL     1       7.459  25.061  56.649  1.00  0.00     0.086 C 
HETATM    8  C   UNL     1       8.775  25.351  57.373  1.00  0.00     0.032 C 
BRANCH   7   9
HETATM    9  C   UNL     1       7.723  24.648  55.185  1.00  0.00     0.063 C 
BRANCH   9  10
HETATM   10  C   UNL     1       8.072  23.186  55.017  1.00  0.00    -0.056 A 
HETATM   11  C   UNL     1       8.481  22.697  53.768  1.00  0.00     0.010 A 
HETATM   12  C   UNL     1       8.807  21.349  53.603  1.00  0.00     0.037 A 
HETATM   13  C   UNL     1       8.723  20.489  54.693  1.00  0.00     0.065 A 
HETATM   14  C   UNL     1       8.317  20.954  55.938  1.00  0.00     0.037 A 
HETATM   15  C   UNL     1       7.990  22.301  56.101  1.00  0.00     0.010 A 
BRANCH  13  16
HETATM   16  O   UNL     1       9.037  19.167  54.578  1.00  0.00    -0.361 OA
HETATM   17  H   UNL     1       9.895  19.019  55.007  1.00  0.00     0.217 HD
ENDBRANCH  13  16
ENDBRANCH   9  10
ENDBRANCH   7   9
ENDBRANCH   1   7
BRANCH   3  18
HETATM   18  C   UNL     1       4.996  28.566  56.915  1.00  0.00     0.153 A 
HETATM   19  N   UNL     1       5.911  28.950  57.813  1.00  0.00    -0.154 NA
HETATM   20  N   UNL     1       6.111  30.258  57.551  1.00  0.00    -0.275 N 
HETATM   21  C   UNL     1       5.357  30.718  56.510  1.00  0.00     0.116 A 
HETATM   22  C   UNL     1       4.618  29.642  56.077  1.00  0.00     0.071 A 
BRANCH  20  23
HETATM   23  C   UNL     1       7.120  31.006  58.291  1.00  0.00     0.189 C 
BRANCH  23  24
HETATM   24  C   UNL     1       8.518  30.592  57.914  1.00  0.00    -0.038 A 
HETATM   25  C   UNL     1       9.622  31.359  58.318  1.00  0.00     0.009 A 
HETATM   26  C   UNL     1      10.919  30.969  57.982  1.00  0.00     0.001 A 
HETATM   27  C   UNL     1      11.127  29.809  57.239  1.00  0.00     0.000 A 
HETATM   28  C   UNL     1      10.041  29.039  56.829  1.00  0.00     0.001 A 
HETATM   29  C   UNL     1       8.742  29.428  57.164  1.00  0.00     0.009 A 
ENDBRANCH  23  24
ENDBRANCH  20  23
ENDBRANCH   3  18
TORSDOF 7
ENDMDL
MODEL 10
REMARK VINA RESULT:      -8.7      4.468      8.306
REMARK  7 active torsions:
REMARK  status: ('A' for Active; 'I' for Inactive)
REMARK    1  A    between atoms: C_2  and  N_3 
REMARK    2  A    between atoms: C_2  and  C_19 
REMARK       I    between atoms: N_3  and  C_4 
REMARK       I    between atoms: C_4  and  N_5 
REMARK    3  A    between atoms: N_5  and  C_6 
REMARK    4  A    between atoms: N_8  and  C_9 
REMARK    5  A    between atoms: C_9  and  C_10 
REMARK    6  A    between atoms: C_19  and  C_20 
REMARK    7  A    between atoms: C_23  and  O_24 
ROOT
HETATM    1  N   UNL     1       5.429  26.123  54.347  1.00  0.00    -0.338 N 
HETATM    2  C   UNL     1       5.211  27.056  55.310  1.00  0.00     0.322 C 
HETATM    3  N   UNL     1       5.905  26.916  56.474  1.00  0.00    -0.292 N 
HETATM    4  O   UNL     1       4.419  27.990  55.192  1.00  0.00    -0.247 OA
HETATM    5  H   UNL     1       6.165  25.454  54.567  1.00  0.00     0.164 HD
HETATM    6  H   UNL     1       5.666  27.599  57.176  1.00  0.00     0.172 HD
ENDROOT
BRANCH   1   7
HETATM    7  C   UNL     1       4.852  26.116  53.009  1.00  0.00     0.086 C 
HETATM    8  C   UNL     1       4.736  24.685  52.480  1.00  0.00     0.032 C 
BRANCH   7   9
HETATM    9  C   UNL     1       5.586  27.014  51.992  1.00  0.00     0.063 C 
BRANCH   9  10
HETATM   10  C   UNL     1       4.764  27.349  50.768  1.00  0.00    -0.056 A 
HETATM   11  C   UNL     1       3.858  28.420  50.798  1.00  0.00     0.010 A 
HETATM   12  C   UNL     1       3.095  28.738  49.673  1.00  0.00     0.037 A 
HETATM   13  C   UNL     1       3.240  27.982  48.514  1.00  0.00     0.065 A 
HETATM   14  C   UNL     1       4.129  26.915  48.466  1.00  0.00     0.037 A 
HETATM   15  C   UNL     1       4.890  26.597  49.592  1.00  0.00     0.010 A 
BRANCH  13  16
HETATM   16  O   UNL     1       2.518  28.261  47.391  1.00  0.00    -0.361 OA
HETATM   17  H   UNL     1       2.619  27.519  46.773  1.00  0.00     0.217 HD
ENDBRANCH  13  16
ENDBRANCH   9  10
ENDBRANCH   7   9
ENDBRANCH   1   7
BRANCH   3  18
HETATM   18  C   UNL     1       6.891  26.007  56.785  1.00  0.00     0.153 A 
HETATM   19  N   UNL     1       6.776  24.680  56.650  1.00  0.00    -0.154 NA
HETATM   20  N   UNL     1       7.972  24.198  57.049  1.00  0.00    -0.275 N 
HETATM   21  C   UNL     1       8.846  25.176  57.426  1.00  0.00     0.116 A 
HETATM   22  C   UNL     1       8.171  26.363  57.270  1.00  0.00     0.071 A 
BRANCH  20  23
HETATM   23  C   UNL     1       8.250  22.770  56.960  1.00  0.00     0.189 C 
BRANCH  23  24
HETATM   24  C   UNL     1       8.189  22.270  55.540  1.00  0.00    -0.038 A 
HETATM   25  C   UNL     1       8.084  20.896  55.272  1.00  0.00     0.009 A 
HETATM   26  C   UNL     1       8.013  20.433  53.958  1.00  0.00     0.001 A 
HETATM   27  C   UNL     1       8.047  21.337  52.897  1.00  0.00     0.000 A 
HETATM   28  C   UNL     1       8.153  22.703  53.149  1.00  0.00     0.001 A 
HETATM   29  C   UNL     1       8.225  23.168  54.464  1.00  0.00     0.009 A 
ENDBRANCH  23  24
ENDBRANCH  20  23
ENDBRANCH   3  18
TORSDOF 7
ENDMDL
