MODEL 1
REMARK VINA RESULT:      -9.4      0.000      0.000
REMARK  4 active torsions:
REMARK  status: ('A' for Active; 'I' for Inactive)
REMARK    1  A    between atoms: C_2  and  C_3 
REMARK    2  A    between atoms: C_7  and  N_8 
REMARK    3  A    between atoms: C_10  and  C_11 
REMARK    4  A    between atoms: C_21  and  C_22 
ROOT
HETATM    1  C   UNL     1       8.257  22.153  55.191  1.00  0.00     0.079 A 
HETATM    2  S   UNL     1       8.386  23.133  56.585  1.00  0.00    -0.064 SA
HETATM    3  C   UNL     1       7.879  24.522  55.750  1.00  0.00     0.112 A 
HETATM    4  C   UNL     1       7.600  24.288  54.409  1.00  0.00     0.043 A 
HETATM    5  C   UNL     1       7.838  22.902  54.102  1.00  0.00     0.060 A 
HETATM    6  N   UNL     1       7.779  25.690  56.409  1.00  0.00    -0.240 NA
HETATM    7  C   UNL     1       7.339  26.736  55.685  1.00  0.00     0.069 A 
HETATM    8  C   UNL     1       7.024  26.630  54.334  1.00  0.00     0.049 A 
HETATM    9  C   UNL     1       7.149  25.400  53.654  1.00  0.00     0.065 A 
ENDROOT
BRANCH   7  10
HETATM   10  C   UNL     1       7.219  28.009  56.430  1.00  0.00    -0.004 A 
HETATM   11  C   UNL     1       7.963  28.215  57.610  1.00  0.00     0.053 A 
HETATM   12  C   UNL     1       7.831  29.412  58.286  1.00  0.00     0.106 A 
HETATM   13  C   UNL     1       6.992  30.404  57.844  1.00  0.00     0.105 A 
HETATM   14  O   UNL     1       8.484  29.756  59.428  1.00  0.00    -0.323 OA
HETATM   15  O   UNL     1       7.006  31.497  58.651  1.00  0.00    -0.323 OA
HETATM   16  C   UNL     1       6.236  30.253  56.705  1.00  0.00     0.040 A 
HETATM   17  C   UNL     1       7.949  31.075  59.660  1.00  0.00     0.352 A 
HETATM   18  C   UNL     1       6.351  29.048  55.999  1.00  0.00     0.017 A 
ENDBRANCH   7  10
BRANCH   9  19
HETATM   19  C   UNL     1       6.754  25.320  52.204  1.00  0.00     0.418 C 
HETATM   20  F   UNL     1       7.740  24.832  51.398  1.00  0.00    -0.166 F 
HETATM   21  F   UNL     1       5.670  24.527  51.999  1.00  0.00    -0.166 F 
HETATM   22  F   UNL     1       6.426  26.533  51.673  1.00  0.00    -0.166 F 
ENDBRANCH   9  19
BRANCH   1  23
HETATM   23  C   UNL     1       8.589  20.730  55.220  1.00  0.00     0.164 C 
HETATM   24  C   UNL     1       9.158  20.131  56.486  1.00  0.00     0.097 C 
HETATM   25  O   UNL     1       8.427  19.997  54.239  1.00  0.00    -0.292 OA
ENDBRANCH   1  23
BRANCH   5  26
HETATM   26  N   UNL     1       7.667  22.358  52.873  1.00  0.00    -0.397 N 
HETATM   27  H   UNL     1       7.213  21.456  52.729  1.00  0.00     0.156 HD
HETATM   28  H   UNL     1       7.518  22.982  52.072  1.00  0.00     0.156 HD
ENDBRANCH   5  26
TORSDOF 4
ENDMDL
MODEL 2
REMARK VINA RESULT:      -9.2      3.073      4.341
REMARK  4 active torsions:
REMARK  status: ('A' for Active; 'I' for Inactive)
REMARK    1  A    between atoms: C_2  and  C_3 
REMARK    2  A    between atoms: C_7  and  N_8 
REMARK    3  A    between atoms: C_10  and  C_11 
REMARK    4  A    between atoms: C_21  and  C_22 
ROOT
HETATM    1  C   UNL     1       5.965  26.003  53.147  1.00  0.00     0.079 A 
HETATM    2  S   UNL     1       6.098  27.668  53.508  1.00  0.00    -0.064 SA
HETATM    3  C   UNL     1       7.009  27.371  54.910  1.00  0.00     0.112 A 
HETATM    4  C   UNL     1       7.237  26.021  55.142  1.00  0.00     0.043 A 
HETATM    5  C   UNL     1       6.610  25.239  54.109  1.00  0.00     0.060 A 
HETATM    6  N   UNL     1       7.433  28.408  55.655  1.00  0.00    -0.240 NA
HETATM    7  C   UNL     1       8.177  28.091  56.731  1.00  0.00     0.069 A 
HETATM    8  C   UNL     1       8.477  26.776  57.070  1.00  0.00     0.049 A 
HETATM    9  C   UNL     1       8.013  25.698  56.286  1.00  0.00     0.065 A 
ENDROOT
BRANCH   7  10
HETATM   10  C   UNL     1       8.648  29.243  57.529  1.00  0.00    -0.004 A 
HETATM   11  C   UNL     1       7.880  29.721  58.612  1.00  0.00     0.053 A 
HETATM   12  C   UNL     1       8.344  30.799  59.339  1.00  0.00     0.106 A 
HETATM   13  C   UNL     1       9.529  31.421  59.035  1.00  0.00     0.105 A 
HETATM   14  O   UNL     1       7.720  31.365  60.406  1.00  0.00    -0.323 OA
HETATM   15  O   UNL     1       9.801  32.459  59.869  1.00  0.00    -0.323 OA
HETATM   16  C   UNL     1      10.313  31.004  57.986  1.00  0.00     0.040 A 
HETATM   17  C   UNL     1       8.644  32.423  60.731  1.00  0.00     0.352 A 
HETATM   18  C   UNL     1       9.866  29.911  57.230  1.00  0.00     0.017 A 
ENDBRANCH   7  10
BRANCH   9  19
HETATM   19  C   UNL     1       8.399  24.294  56.664  1.00  0.00     0.418 C 
HETATM   20  F   UNL     1       7.330  23.473  56.871  1.00  0.00    -0.166 F 
HETATM   21  F   UNL     1       9.165  23.689  55.718  1.00  0.00    -0.166 F 
HETATM   22  F   UNL     1       9.126  24.234  57.817  1.00  0.00    -0.166 F 
ENDBRANCH   9  19
BRANCH   1  23
HETATM   23  C   UNL     1       5.229  25.527  51.978  1.00  0.00     0.164 C 
HETATM   24  C   UNL     1       5.238  26.355  50.713  1.00  0.00     0.097 C 
HETATM   25  O   UNL     1       4.590  24.469  51.988  1.00  0.00    -0.292 OA
ENDBRANCH   1  23
BRANCH   5  26
HETATM   26  N   UNL     1       6.642  23.886  54.056  1.00  0.00    -0.397 N 
HETATM   27  H   UNL     1       6.594  23.302  54.890  1.00  0.00     0.156 HD
HETATM   28  H   UNL     1       6.228  23.412  53.246  1.00  0.00     0.156 HD
ENDBRANCH   5  26
TORSDOF 4
ENDMDL
MODEL 3
REMARK VINA RESULT:      -8.8      1.974      7.367
REMARK  4 active torsions:
REMARK  status: ('A' for Active; 'I' for Inactive)
REMARK    1  A    between atoms: C_2  and  C_3 
REMARK    2  A    between atoms: C_7  and  N_8 
REMARK    3  A    between atoms: C_10  and  C_11 
REMARK    4  A    between atoms: C_21  and  C_22 
ROOT
HETATM    1  C   UNL     1       6.869  29.237  56.938  1.00  0.00     0.079 A 
HETATM    2  S   UNL     1       7.660  27.793  57.398  1.00  0.00    -0.064 SA
HETATM    3  C   UNL     1       7.145  26.975  56.002  1.00  0.00     0.112 A 
HETATM    4  C   UNL     1       6.371  27.761  55.157  1.00  0.00     0.043 A 
HETATM    5  C   UNL     1       6.212  29.073  55.728  1.00  0.00     0.060 A 
HETATM    6  N   UNL     1       7.511  25.694  55.814  1.00  0.00    -0.240 NA
HETATM    7  C   UNL     1       7.090  25.128  54.668  1.00  0.00     0.069 A 
HETATM    8  C   UNL     1       6.311  25.809  53.739  1.00  0.00     0.049 A 
HETATM    9  C   UNL     1       5.924  27.148  53.958  1.00  0.00     0.065 A 
ENDROOT
BRANCH   7  10
HETATM   10  C   UNL     1       7.515  23.724  54.469  1.00  0.00    -0.004 A 
HETATM   11  C   UNL     1       7.875  22.927  55.576  1.00  0.00     0.053 A 
HETATM   12  C   UNL     1       8.269  21.622  55.362  1.00  0.00     0.106 A 
HETATM   13  C   UNL     1       8.323  21.079  54.103  1.00  0.00     0.105 A 
HETATM   14  O   UNL     1       8.638  20.735  56.324  1.00  0.00    -0.323 OA
HETATM   15  O   UNL     1       8.736  19.784  54.110  1.00  0.00    -0.323 OA
HETATM   16  C   UNL     1       7.992  21.812  52.987  1.00  0.00     0.040 A 
HETATM   17  C   UNL     1       8.943  19.575  55.523  1.00  0.00     0.352 A 
HETATM   18  C   UNL     1       7.588  23.141  53.176  1.00  0.00     0.017 A 
ENDBRANCH   7  10
BRANCH   9  19
HETATM   19  C   UNL     1       5.119  27.862  52.906  1.00  0.00     0.418 C 
HETATM   20  F   UNL     1       3.925  28.336  53.364  1.00  0.00    -0.166 F 
HETATM   21  F   UNL     1       5.774  28.930  52.379  1.00  0.00    -0.166 F 
HETATM   22  F   UNL     1       4.804  27.065  51.844  1.00  0.00    -0.166 F 
ENDBRANCH   9  19
BRANCH   1  23
HETATM   23  C   UNL     1       6.904  30.433  57.778  1.00  0.00     0.164 C 
HETATM   24  C   UNL     1       7.956  30.545  58.858  1.00  0.00     0.097 C 
HETATM   25  O   UNL     1       6.096  31.357  57.640  1.00  0.00    -0.292 OA
ENDBRANCH   1  23
BRANCH   5  26
HETATM   26  N   UNL     1       5.501  30.070  55.150  1.00  0.00    -0.397 N 
HETATM   27  H   UNL     1       4.766  30.578  55.641  1.00  0.00     0.156 HD
HETATM   28  H   UNL     1       5.959  30.664  54.449  1.00  0.00     0.156 HD
ENDBRANCH   5  26
TORSDOF 4
ENDMDL
MODEL 4
REMARK VINA RESULT:      -8.7      4.210      7.747
REMARK  4 active torsions:
REMARK  status: ('A' for Active; 'I' for Inactive)
REMARK    1  A    between atoms: C_2  and  C_3 
REMARK    2  A    between atoms: C_7  and  N_8 
REMARK    3  A    between atoms: C_10  and  C_11 
REMARK    4  A    between atoms: C_21  and  C_22 
ROOT
HETATM    1  C   UNL     1       4.293  28.046  50.898  1.00  0.00     0.079 A 
HETATM    2  S   UNL     1       4.996  26.546  50.477  1.00  0.00    -0.064 SA
HETATM    3  C   UNL     1       5.469  26.231  52.078  1.00  0.00     0.112 A 
HETATM    4  C   UNL     1       5.113  27.237  52.966  1.00  0.00     0.043 A 
HETATM    5  C   UNL     1       4.438  28.292  52.255  1.00  0.00     0.060 A 
HETATM    6  N   UNL     1       6.114  25.085  52.363  1.00  0.00    -0.240 NA
HETATM    7  C   UNL     1       6.425  24.895  53.658  1.00  0.00     0.069 A 
HETATM    8  C   UNL     1       6.121  25.827  54.645  1.00  0.00     0.049 A 
HETATM    9  C   UNL     1       5.457  27.031  54.327  1.00  0.00     0.065 A 
ENDROOT
BRANCH   7  10
HETATM   10  C   UNL     1       7.119  23.622  53.956  1.00  0.00    -0.004 A 
HETATM   11  C   UNL     1       7.358  23.239  55.293  1.00  0.00     0.053 A 
HETATM   12  C   UNL     1       8.008  22.047  55.542  1.00  0.00     0.106 A 
HETATM   13  C   UNL     1       8.431  21.227  54.527  1.00  0.00     0.105 A 
HETATM   14  O   UNL     1       8.303  21.545  56.771  1.00  0.00    -0.323 OA
HETATM   15  O   UNL     1       9.049  20.106  54.984  1.00  0.00    -0.323 OA
HETATM   16  C   UNL     1       8.232  21.555  53.206  1.00  0.00     0.040 A 
HETATM   17  C   UNL     1       8.973  20.319  56.410  1.00  0.00     0.352 A 
HETATM   18  C   UNL     1       7.575  22.760  52.924  1.00  0.00     0.017 A 
ENDBRANCH   7  10
BRANCH   9  19
HETATM   19  C   UNL     1       5.107  27.991  55.431  1.00  0.00     0.418 C 
HETATM   20  F   UNL     1       5.693  29.214  55.295  1.00  0.00    -0.166 F 
HETATM   21  F   UNL     1       3.770  28.219  55.523  1.00  0.00    -0.166 F 
HETATM   22  F   UNL     1       5.488  27.546  56.664  1.00  0.00    -0.166 F 
ENDBRANCH   9  19
BRANCH   1  23
HETATM   23  C   UNL     1       3.668  28.908  49.898  1.00  0.00     0.164 C 
HETATM   24  C   UNL     1       4.293  29.020  48.525  1.00  0.00     0.097 C 
HETATM   25  O   UNL     1       2.644  29.558  50.137  1.00  0.00    -0.292 OA
ENDBRANCH   1  23
BRANCH   5  26
HETATM   26  N   UNL     1       3.973  29.422  52.839  1.00  0.00    -0.397 N 
HETATM   27  H   UNL     1       4.192  29.674  53.802  1.00  0.00     0.156 HD
HETATM   28  H   UNL     1       3.832  30.257  52.259  1.00  0.00     0.156 HD
ENDBRANCH   5  26
TORSDOF 4
ENDMDL
MODEL 5
REMARK VINA RESULT:      -8.7      3.329      7.375
REMARK  4 active torsions:
REMARK  status: ('A' for Active; 'I' for Inactive)
REMARK    1  A    between atoms: C_2  and  C_3 
REMARK    2  A    between atoms: C_7  and  N_8 
REMARK    3  A    between atoms: C_10  and  C_11 
REMARK    4  A    between atoms: C_21  and  C_22 
ROOT
HETATM    1  C   UNL     1       4.239  29.043  54.782  1.00  0.00     0.079 A 
HETATM    2  S   UNL     1       4.928  27.857  55.802  1.00  0.00    -0.064 SA
HETATM    3  C   UNL     1       5.351  26.864  54.491  1.00  0.00     0.112 A 
HETATM    4  C   UNL     1       4.989  27.394  53.260  1.00  0.00     0.043 A 
HETATM    5  C   UNL     1       4.331  28.660  53.453  1.00  0.00     0.060 A 
HETATM    6  N   UNL     1       5.983  25.699  54.722  1.00  0.00    -0.240 NA
HETATM    7  C   UNL     1       6.313  24.986  53.629  1.00  0.00     0.069 A 
HETATM    8  C   UNL     1       6.008  25.409  52.340  1.00  0.00     0.049 A 
HETATM    9  C   UNL     1       5.332  26.628  52.116  1.00  0.00     0.065 A 
ENDROOT
BRANCH   7  10
HETATM   10  C   UNL     1       7.022  23.716  53.900  1.00  0.00    -0.004 A 
HETATM   11  C   UNL     1       7.262  23.304  55.228  1.00  0.00     0.053 A 
HETATM   12  C   UNL     1       7.926  22.115  55.451  1.00  0.00     0.106 A 
HETATM   13  C   UNL     1       8.363  21.325  54.418  1.00  0.00     0.105 A 
HETATM   14  O   UNL     1       8.224  21.588  56.669  1.00  0.00    -0.323 OA
HETATM   15  O   UNL     1       8.994  20.201  54.852  1.00  0.00    -0.323 OA
HETATM   16  C   UNL     1       8.165  21.681  53.105  1.00  0.00     0.040 A 
HETATM   17  C   UNL     1       8.910  20.380  56.282  1.00  0.00     0.352 A 
HETATM   18  C   UNL     1       7.492  22.883  52.849  1.00  0.00     0.017 A 
ENDBRANCH   7  10
BRANCH   9  19
HETATM   19  C   UNL     1       5.062  27.069  50.703  1.00  0.00     0.418 C 
HETATM   20  F   UNL     1       5.783  28.165  50.328  1.00  0.00    -0.166 F 
HETATM   21  F   UNL     1       5.340  26.102  49.790  1.00  0.00    -0.166 F 
HETATM   22  F   UNL     1       3.758  27.409  50.492  1.00  0.00    -0.166 F 
ENDBRANCH   9  19
BRANCH   1  23
HETATM   23  C   UNL     1       3.628  30.257  55.320  1.00  0.00     0.164 C 
HETATM   24  C   UNL     1       3.320  30.336  56.798  1.00  0.00     0.097 C 
HETATM   25  O   UNL     1       3.347  31.224  54.604  1.00  0.00    -0.292 OA
ENDBRANCH   1  23
BRANCH   5  26
HETATM   26  N   UNL     1       3.849  29.425  52.445  1.00  0.00    -0.397 N 
HETATM   27  H   UNL     1       3.936  29.161  51.464  1.00  0.00     0.156 HD
HETATM   28  H   UNL     1       3.001  29.981  52.606  1.00  0.00     0.156 HD
ENDBRANCH   5  26
TORSDOF 4
ENDMDL
MODEL 6
REMARK VINA RESULT:      -8.5      4.079      5.843
REMARK  4 active torsions:
REMARK  status: ('A' for Active; 'I' for Inactive)
REMARK    1  A    between atoms: C_2  and  C_3 
REMARK    2  A    between atoms: C_7  and  N_8 
REMARK    3  A    between atoms: C_10  and  C_11 
REMARK    4  A    between atoms: C_21  and  C_22 
ROOT
HETATM    1  C   UNL     1       8.110  22.263  55.415  1.00  0.00     0.079 A 
HETATM    2  S   UNL     1       7.555  22.487  53.814  1.00  0.00    -0.064 SA
HETATM    3  C   UNL     1       7.207  24.127  54.081  1.00  0.00     0.112 A 
HETATM    4  C   UNL     1       7.498  24.549  55.372  1.00  0.00     0.043 A 
HETATM    5  C   UNL     1       8.013  23.443  56.137  1.00  0.00     0.060 A 
HETATM    6  N   UNL     1       6.709  24.870  53.075  1.00  0.00    -0.240 NA
HETATM    7  C   UNL     1       6.492  26.168  53.357  1.00  0.00     0.069 A 
HETATM    8  C   UNL     1       6.745  26.712  54.612  1.00  0.00     0.049 A 
HETATM    9  C   UNL     1       7.254  25.916  55.661  1.00  0.00     0.065 A 
ENDROOT
BRANCH   7  10
HETATM   10  C   UNL     1       5.961  26.973  52.236  1.00  0.00    -0.004 A 
HETATM   11  C   UNL     1       5.474  26.339  51.073  1.00  0.00     0.053 A 
HETATM   12  C   UNL     1       4.985  27.115  50.042  1.00  0.00     0.106 A 
HETATM   13  C   UNL     1       4.962  28.485  50.114  1.00  0.00     0.105 A 
HETATM   14  O   UNL     1       4.481  26.649  48.867  1.00  0.00    -0.323 OA
HETATM   15  O   UNL     1       4.445  29.058  48.995  1.00  0.00    -0.323 OA
HETATM   16  C   UNL     1       5.431  29.156  51.219  1.00  0.00     0.040 A 
HETATM   17  C   UNL     1       4.150  27.887  48.204  1.00  0.00     0.352 A 
HETATM   18  C   UNL     1       5.934  28.392  52.282  1.00  0.00     0.017 A 
ENDBRANCH   7  10
BRANCH   9  19
HETATM   19  C   UNL     1       7.555  26.556  56.989  1.00  0.00     0.418 C 
HETATM   20  F   UNL     1       6.917  25.962  58.036  1.00  0.00    -0.166 F 
HETATM   21  F   UNL     1       8.880  26.536  57.291  1.00  0.00    -0.166 F 
HETATM   22  F   UNL     1       7.188  27.869  57.043  1.00  0.00    -0.166 F 
ENDBRANCH   9  19
BRANCH   1  23
HETATM   23  C   UNL     1       8.581  20.964  55.890  1.00  0.00     0.164 C 
HETATM   24  C   UNL     1       8.958  19.902  54.881  1.00  0.00     0.097 C 
HETATM   25  O   UNL     1       8.677  20.699  57.093  1.00  0.00    -0.292 OA
ENDBRANCH   1  23
BRANCH   5  26
HETATM   26  N   UNL     1       8.382  23.528  57.437  1.00  0.00    -0.397 N 
HETATM   27  H   UNL     1       8.071  24.282  58.049  1.00  0.00     0.156 HD
HETATM   28  H   UNL     1       8.540  22.662  57.965  1.00  0.00     0.156 HD
ENDBRANCH   5  26
TORSDOF 4
ENDMDL
MODEL 7
REMARK VINA RESULT:      -8.3      6.263      8.968
REMARK  4 active torsions:
REMARK  status: ('A' for Active; 'I' for Inactive)
REMARK    1  A    between atoms: C_2  and  C_3 
REMARK    2  A    between atoms: C_7  and  N_8 
REMARK    3  A    between atoms: C_10  and  C_11 
REMARK    4  A    between atoms: C_21  and  C_22 
ROOT
HETATM    1  C   UNL     1       8.526  30.137  58.305  1.00  0.00     0.079 A 
HETATM    2  S   UNL     1       9.111  30.439  59.883  1.00  0.00    -0.064 SA
HETATM    3  C   UNL     1       7.702  31.276  60.328  1.00  0.00     0.112 A 
HETATM    4  C   UNL     1       6.760  31.350  59.310  1.00  0.00     0.043 A 
HETATM    5  C   UNL     1       7.265  30.689  58.135  1.00  0.00     0.060 A 
HETATM    6  N   UNL     1       7.597  31.776  61.573  1.00  0.00    -0.240 NA
HETATM    7  C   UNL     1       6.437  32.397  61.858  1.00  0.00     0.069 A 
HETATM    8  C   UNL     1       5.414  32.535  60.925  1.00  0.00     0.049 A 
HETATM    9  C   UNL     1       5.547  32.017  59.619  1.00  0.00     0.065 A 
ENDROOT
BRANCH   7  10
HETATM   10  C   UNL     1       6.331  32.926  63.236  1.00  0.00    -0.004 A 
HETATM   11  C   UNL     1       5.066  33.115  63.830  1.00  0.00     0.053 A 
HETATM   12  C   UNL     1       4.996  33.610  65.116  1.00  0.00     0.106 A 
HETATM   13  C   UNL     1       6.123  33.928  65.831  1.00  0.00     0.105 A 
HETATM   14  O   UNL     1       3.854  33.840  65.818  1.00  0.00    -0.323 OA
HETATM   15  O   UNL     1       5.837  34.401  67.073  1.00  0.00    -0.323 OA
HETATM   16  C   UNL     1       7.381  33.773  65.299  1.00  0.00     0.040 A 
HETATM   17  C   UNL     1       4.394  34.351  67.054  1.00  0.00     0.352 A 
HETATM   18  C   UNL     1       7.481  33.271  63.994  1.00  0.00     0.017 A 
ENDBRANCH   7  10
BRANCH   9  19
HETATM   19  C   UNL     1       4.398  32.150  58.657  1.00  0.00     0.418 C 
HETATM   20  F   UNL     1       3.907  30.952  58.227  1.00  0.00    -0.166 F 
HETATM   21  F   UNL     1       3.344  32.823  59.188  1.00  0.00    -0.166 F 
HETATM   22  F   UNL     1       4.731  32.829  57.521  1.00  0.00    -0.166 F 
ENDBRANCH   9  19
BRANCH   1  23
HETATM   23  C   UNL     1       9.321  29.411  57.317  1.00  0.00     0.164 C 
HETATM   24  C   UNL     1      10.720  29.889  57.000  1.00  0.00     0.097 C 
HETATM   25  O   UNL     1       8.886  28.418  56.724  1.00  0.00    -0.292 OA
ENDBRANCH   1  23
BRANCH   5  26
HETATM   26  N   UNL     1       6.586  30.597  56.967  1.00  0.00    -0.397 N 
HETATM   27  H   UNL     1       6.435  29.710  56.487  1.00  0.00     0.156 HD
HETATM   28  H   UNL     1       5.817  31.252  56.788  1.00  0.00     0.156 HD
ENDBRANCH   5  26
TORSDOF 4
ENDMDL
MODEL 8
REMARK VINA RESULT:      -8.3      4.373      6.253
REMARK  4 active torsions:
REMARK  status: ('A' for Active; 'I' for Inactive)
REMARK    1  A    between atoms: C_2  and  C_3 
REMARK    2  A    between atoms: C_7  and  N_8 
REMARK    3  A    between atoms: C_10  and  C_11 
REMARK    4  A    between atoms: C_21  and  C_22 
ROOT
HETATM    1  C   UNL     1       7.595  22.969  55.185  1.00  0.00     0.079 A 
HETATM    2  S   UNL     1       7.517  23.007  53.478  1.00  0.00    -0.064 SA
HETATM    3  C   UNL     1       6.647  24.465  53.473  1.00  0.00     0.112 A 
HETATM    4  C   UNL     1       6.394  24.960  54.747  1.00  0.00     0.043 A 
HETATM    5  C   UNL     1       6.946  24.066  55.731  1.00  0.00     0.060 A 
HETATM    6  N   UNL     1       6.288  25.017  52.300  1.00  0.00    -0.240 NA
HETATM    7  C   UNL     1       5.630  26.189  52.381  1.00  0.00     0.069 A 
HETATM    8  C   UNL     1       5.319  26.789  53.597  1.00  0.00     0.049 A 
HETATM    9  C   UNL     1       5.690  26.189  54.819  1.00  0.00     0.065 A 
ENDROOT
BRANCH   7  10
HETATM   10  C   UNL     1       5.259  26.790  51.081  1.00  0.00    -0.004 A 
HETATM   11  C   UNL     1       5.400  28.178  50.874  1.00  0.00     0.053 A 
HETATM   12  C   UNL     1       5.045  28.713  49.652  1.00  0.00     0.106 A 
HETATM   13  C   UNL     1       4.554  27.933  48.635  1.00  0.00     0.105 A 
HETATM   14  O   UNL     1       5.129  30.025  49.303  1.00  0.00    -0.323 OA
HETATM   15  O   UNL     1       4.264  28.652  47.519  1.00  0.00    -0.323 OA
HETATM   16  C   UNL     1       4.387  26.576  48.785  1.00  0.00     0.040 A 
HETATM   17  C   UNL     1       4.623  29.981  47.954  1.00  0.00     0.352 A 
HETATM   18  C   UNL     1       4.740  26.006  50.016  1.00  0.00     0.017 A 
ENDBRANCH   7  10
BRANCH   9  19
HETATM   19  C   UNL     1       5.373  26.895  56.109  1.00  0.00     0.418 C 
HETATM   20  F   UNL     1       6.480  27.257  56.818  1.00  0.00    -0.166 F 
HETATM   21  F   UNL     1       4.655  28.034  55.921  1.00  0.00    -0.166 F 
HETATM   22  F   UNL     1       4.633  26.133  56.965  1.00  0.00    -0.166 F 
ENDBRANCH   9  19
BRANCH   1  23
HETATM   23  C   UNL     1       8.253  21.876  55.899  1.00  0.00     0.164 C 
HETATM   24  C   UNL     1       8.693  20.651  55.129  1.00  0.00     0.097 C 
HETATM   25  O   UNL     1       8.456  21.915  57.117  1.00  0.00    -0.292 OA
ENDBRANCH   1  23
BRANCH   5  26
HETATM   26  N   UNL     1       6.859  24.263  57.068  1.00  0.00    -0.397 N 
HETATM   27  H   UNL     1       6.439  23.581  57.698  1.00  0.00     0.156 HD
HETATM   28  H   UNL     1       7.596  24.800  57.538  1.00  0.00     0.156 HD
ENDBRANCH   5  26
TORSDOF 4
ENDMDL
MODEL 9
REMARK VINA RESULT:      -8.1      5.617      8.321
REMARK  4 active torsions:
REMARK  status: ('A' for Active; 'I' for Inactive)
REMARK    1  A    between atoms: C_2  and  C_3 
REMARK    2  A    between atoms: C_7  and  N_8 
REMARK    3  A    between atoms: C_10  and  C_11 
REMARK    4  A    between atoms: C_21  and  C_22 
ROOT
HETATM    1  C   UNL     1       4.410  30.251  48.640  1.00  0.00     0.079 A 
HETATM    2  S   UNL     1       5.450  30.108  49.988  1.00  0.00    -0.064 SA
HETATM    3  C   UNL     1       5.175  28.438  50.122  1.00  0.00     0.112 A 
HETATM    4  C   UNL     1       4.300  27.945  49.162  1.00  0.00     0.043 A 
HETATM    5  C   UNL     1       3.857  29.021  48.314  1.00  0.00     0.060 A 
HETATM    6  N   UNL     1       5.796  27.740  51.090  1.00  0.00    -0.240 NA
HETATM    7  C   UNL     1       5.551  26.417  51.108  1.00  0.00     0.069 A 
HETATM    8  C   UNL     1       4.695  25.803  50.200  1.00  0.00     0.049 A 
HETATM    9  C   UNL     1       4.040  26.551  49.199  1.00  0.00     0.065 A 
ENDROOT
BRANCH   7  10
HETATM   10  C   UNL     1       6.255  25.664  52.169  1.00  0.00    -0.004 A 
HETATM   11  C   UNL     1       5.794  25.710  53.501  1.00  0.00     0.053 A 
HETATM   12  C   UNL     1       6.470  24.998  54.471  1.00  0.00     0.106 A 
HETATM   13  C   UNL     1       7.582  24.250  54.175  1.00  0.00     0.105 A 
HETATM   14  O   UNL     1       6.144  24.942  55.790  1.00  0.00    -0.323 OA
HETATM   15  O   UNL     1       8.099  23.630  55.269  1.00  0.00    -0.323 OA
HETATM   16  C   UNL     1       8.081  24.175  52.896  1.00  0.00     0.040 A 
HETATM   17  C   UNL     1       7.186  24.082  56.292  1.00  0.00     0.352 A 
HETATM   18  C   UNL     1       7.413  24.888  51.892  1.00  0.00     0.017 A 
ENDBRANCH   7  10
BRANCH   9  19
HETATM   19  C   UNL     1       3.158  25.839  48.208  1.00  0.00     0.418 C 
HETATM   20  F   UNL     1       3.591  25.946  46.920  1.00  0.00    -0.166 F 
HETATM   21  F   UNL     1       3.052  24.508  48.464  1.00  0.00    -0.166 F 
HETATM   22  F   UNL     1       1.879  26.314  48.197  1.00  0.00    -0.166 F 
ENDBRANCH   9  19
BRANCH   1  23
HETATM   23  C   UNL     1       4.167  31.537  47.990  1.00  0.00     0.164 C 
HETATM   24  C   UNL     1       5.325  32.487  47.779  1.00  0.00     0.097 C 
HETATM   25  O   UNL     1       3.042  31.881  47.611  1.00  0.00    -0.292 OA
ENDBRANCH   1  23
BRANCH   5  26
HETATM   26  N   UNL     1       2.988  28.868  47.286  1.00  0.00    -0.397 N 
HETATM   27  H   UNL     1       3.179  29.219  46.348  1.00  0.00     0.156 HD
HETATM   28  H   UNL     1       2.399  28.029  47.257  1.00  0.00     0.156 HD
ENDBRANCH   5  26
TORSDOF 4
ENDMDL
MODEL 10
REMARK VINA RESULT:      -8.0      4.004      8.383
REMARK  4 active torsions:
REMARK  status: ('A' for Active; 'I' for Inactive)
REMARK    1  A    between atoms: C_2  and  C_3 
REMARK    2  A    between atoms: C_7  and  N_8 
REMARK    3  A    between atoms: C_10  and  C_11 
REMARK    4  A    between atoms: C_21  and  C_22 
ROOT
HETATM    1  C   UNL     1       5.442  31.292  58.395  1.00  0.00     0.079 A 
HETATM    2  S   UNL     1       4.729  30.086  57.415  1.00  0.00    -0.064 SA
HETATM    3  C   UNL     1       6.236  29.421  57.003  1.00  0.00     0.112 A 
HETATM    4  C   UNL     1       7.309  30.083  57.587  1.00  0.00     0.043 A 
HETATM    5  C   UNL     1       6.824  31.178  58.386  1.00  0.00     0.060 A 
HETATM    6  N   UNL     1       6.287  28.351  56.190  1.00  0.00    -0.240 NA
HETATM    7  C   UNL     1       7.516  27.864  55.937  1.00  0.00     0.069 A 
HETATM    8  C   UNL     1       8.669  28.437  56.464  1.00  0.00     0.049 A 
HETATM    9  C   UNL     1       8.600  29.568  57.304  1.00  0.00     0.065 A 
ENDROOT
BRANCH   7  10
HETATM   10  C   UNL     1       7.551  26.677  55.055  1.00  0.00    -0.004 A 
HETATM   11  C   UNL     1       7.560  25.380  55.608  1.00  0.00     0.053 A 
HETATM   12  C   UNL     1       7.595  24.290  54.762  1.00  0.00     0.106 A 
HETATM   13  C   UNL     1       7.624  24.434  53.398  1.00  0.00     0.105 A 
HETATM   14  O   UNL     1       7.603  22.985  55.146  1.00  0.00    -0.323 OA
HETATM   15  O   UNL     1       7.657  23.240  52.748  1.00  0.00    -0.323 OA
HETATM   16  C   UNL     1       7.625  25.674  52.804  1.00  0.00     0.040 A 
HETATM   17  C   UNL     1       7.653  22.325  53.864  1.00  0.00     0.352 A 
HETATM   18  C   UNL     1       7.591  26.798  53.640  1.00  0.00     0.017 A 
ENDBRANCH   7  10
BRANCH   9  19
HETATM   19  C   UNL     1       9.869  30.128  57.889  1.00  0.00     0.418 C 
HETATM   20  F   UNL     1       9.866  30.174  59.251  1.00  0.00    -0.166 F 
HETATM   21  F   UNL     1      10.969  29.411  57.536  1.00  0.00    -0.166 F 
HETATM   22  F   UNL     1      10.121  31.407  57.487  1.00  0.00    -0.166 F 
ENDBRANCH   9  19
BRANCH   1  23
HETATM   23  C   UNL     1       4.634  32.291  59.092  1.00  0.00     0.164 C 
HETATM   24  C   UNL     1       3.380  31.852  59.815  1.00  0.00     0.097 C 
HETATM   25  O   UNL     1       4.937  33.488  59.107  1.00  0.00    -0.292 OA
ENDBRANCH   1  23
BRANCH   5  26
HETATM   26  N   UNL     1       7.623  32.024  59.078  1.00  0.00    -0.397 N 
HETATM   27  H   UNL     1       8.044  31.776  59.973  1.00  0.00     0.156 HD
HETATM   28  H   UNL     1       8.216  32.682  58.559  1.00  0.00     0.156 HD
ENDBRANCH   5  26
TORSDOF 4
ENDMDL
