MODEL 1
REMARK VINA RESULT:      -9.4      0.000      0.000
REMARK  4 active torsions:
REMARK  status: ('A' for Active; 'I' for Inactive)
REMARK    1  A    between atoms: S_2  and  C_3 
REMARK    2  A    between atoms: C_5  and  C_6 
REMARK    3  A    between atoms: C_6  and  N_7 
REMARK       I    between atoms: N_7  and  C_8 
REMARK    4  A    between atoms: C_8  and  C_9 
ROOT
HETATM    1  N   UNL     1       7.484  26.839  55.895  1.00  0.00    -0.353 N 
HETATM    2  C   UNL     1       7.608  25.837  54.966  1.00  0.00     0.254 C 
HETATM    3  O   UNL     1       7.600  26.028  53.754  1.00  0.00    -0.268 OA
HETATM    4  H   UNL     1       7.658  26.638  56.871  1.00  0.00     0.163 HD
ENDROOT
BRANCH   2   5
HETATM    5  C   UNL     1       7.854  24.478  55.530  1.00  0.00     0.058 A 
HETATM    6  C   UNL     1       7.875  23.200  54.788  1.00  0.00    -0.003 A 
HETATM    7  C   UNL     1       8.056  21.999  55.503  1.00  0.00     0.043 A 
HETATM    8  C   UNL     1       7.769  23.120  53.391  1.00  0.00     0.013 A 
HETATM    9  C   UNL     1       8.085  20.759  54.850  1.00  0.00     0.018 A 
HETATM   10  C   UNL     1       8.257  22.043  56.976  1.00  0.00     0.256 A 
HETATM   11  C   UNL     1       7.949  20.703  53.466  1.00  0.00     0.001 A 
HETATM   12  C   UNL     1       7.797  21.881  52.739  1.00  0.00     0.001 A 
HETATM   13  O   UNL     1       8.412  21.027  57.644  1.00  0.00    -0.267 OA
HETATM   14  N   UNL     1       8.268  23.294  57.547  1.00  0.00    -0.332 N 
HETATM   15  C   UNL     1       8.071  24.460  56.855  1.00  0.00     0.109 A 
HETATM   16  H   UNL     1       8.424  23.318  58.549  1.00  0.00     0.168 HD
ENDBRANCH   2   5
BRANCH   1  17
HETATM   17  C   UNL     1       7.456  28.229  55.491  1.00  0.00     0.161 C 
BRANCH  17  18
HETATM   18  C   UNL     1       8.425  29.079  56.273  1.00  0.00    -0.039 A 
HETATM   19  C   UNL     1       8.095  29.513  57.568  1.00  0.00     0.027 A 
HETATM   20  C   UNL     1       9.011  30.230  58.352  1.00  0.00     0.000 A 
HETATM   21  C   UNL     1      10.279  30.497  57.833  1.00  0.00     0.018 A 
HETATM   22  C   UNL     1      10.625  30.067  56.550  1.00  0.00     0.002 A 
HETATM   23  C   UNL     1       9.705  29.355  55.779  1.00  0.00     0.009 A 
BRANCH  20  24
HETATM   24  S   UNL     1       8.512  30.680  60.009  1.00  0.00    -0.134 SA
HETATM   25  C   UNL     1       7.096  31.767  59.688  1.00  0.00     0.095 C 
ENDBRANCH  20  24
ENDBRANCH  17  18
ENDBRANCH   1  17
TORSDOF 4
ENDMDL
MODEL 2
REMARK VINA RESULT:      -9.4      1.747      2.294
REMARK  4 active torsions:
REMARK  status: ('A' for Active; 'I' for Inactive)
REMARK    1  A    between atoms: S_2  and  C_3 
REMARK    2  A    between atoms: C_5  and  C_6 
REMARK    3  A    between atoms: C_6  and  N_7 
REMARK       I    between atoms: N_7  and  C_8 
REMARK    4  A    between atoms: C_8  and  C_9 
ROOT
HETATM    1  N   UNL     1       7.896  26.711  57.173  1.00  0.00    -0.353 N 
HETATM    2  C   UNL     1       7.099  25.598  57.080  1.00  0.00     0.254 C 
HETATM    3  O   UNL     1       5.990  25.511  57.600  1.00  0.00    -0.268 OA
HETATM    4  H   UNL     1       8.723  26.782  56.595  1.00  0.00     0.163 HD
ENDROOT
BRANCH   2   5
HETATM    5  C   UNL     1       7.631  24.509  56.211  1.00  0.00     0.058 A 
HETATM    6  C   UNL     1       7.649  24.481  54.734  1.00  0.00    -0.003 A 
HETATM    7  C   UNL     1       8.132  23.330  54.079  1.00  0.00     0.043 A 
HETATM    8  C   UNL     1       7.250  25.567  53.940  1.00  0.00     0.013 A 
HETATM    9  C   UNL     1       8.172  23.250  52.681  1.00  0.00     0.018 A 
HETATM   10  C   UNL     1       8.643  22.187  54.881  1.00  0.00     0.256 A 
HETATM   11  C   UNL     1       7.744  24.330  51.914  1.00  0.00     0.001 A 
HETATM   12  C   UNL     1       7.290  25.487  52.542  1.00  0.00     0.001 A 
HETATM   13  O   UNL     1       9.066  21.162  54.360  1.00  0.00    -0.267 OA
HETATM   14  N   UNL     1       8.621  22.350  56.247  1.00  0.00    -0.332 N 
HETATM   15  C   UNL     1       8.133  23.460  56.885  1.00  0.00     0.109 A 
HETATM   16  H   UNL     1       8.989  21.575  56.787  1.00  0.00     0.168 HD
ENDBRANCH   2   5
BRANCH   1  17
HETATM   17  C   UNL     1       7.414  27.922  57.804  1.00  0.00     0.161 C 
BRANCH  17  18
HETATM   18  C   UNL     1       8.442  29.024  57.801  1.00  0.00    -0.039 A 
HETATM   19  C   UNL     1       8.450  29.983  58.829  1.00  0.00     0.027 A 
HETATM   20  C   UNL     1       9.447  30.967  58.899  1.00  0.00     0.000 A 
HETATM   21  C   UNL     1      10.456  30.976  57.935  1.00  0.00     0.018 A 
HETATM   22  C   UNL     1      10.466  30.027  56.911  1.00  0.00     0.002 A 
HETATM   23  C   UNL     1       9.469  29.052  56.850  1.00  0.00     0.009 A 
BRANCH  20  24
HETATM   24  S   UNL     1       9.399  32.099  60.282  1.00  0.00    -0.134 SA
HETATM   25  C   UNL     1       9.312  30.961  61.691  1.00  0.00     0.095 C 
ENDBRANCH  20  24
ENDBRANCH  17  18
ENDBRANCH   1  17
TORSDOF 4
ENDMDL
MODEL 3
REMARK VINA RESULT:      -9.0      3.183      7.803
REMARK  4 active torsions:
REMARK  status: ('A' for Active; 'I' for Inactive)
REMARK    1  A    between atoms: S_2  and  C_3 
REMARK    2  A    between atoms: C_5  and  C_6 
REMARK    3  A    between atoms: C_6  and  N_7 
REMARK       I    between atoms: N_7  and  C_8 
REMARK    4  A    between atoms: C_8  and  C_9 
ROOT
HETATM    1  N   UNL     1       6.200  26.789  56.052  1.00  0.00    -0.353 N 
HETATM    2  C   UNL     1       6.356  28.075  55.599  1.00  0.00     0.254 C 
HETATM    3  O   UNL     1       6.087  28.431  54.456  1.00  0.00    -0.268 OA
HETATM    4  H   UNL     1       6.287  26.594  57.040  1.00  0.00     0.163 HD
ENDROOT
BRANCH   2   5
HETATM    5  C   UNL     1       6.796  29.060  56.630  1.00  0.00     0.058 A 
HETATM    6  C   UNL     1       8.178  29.511  56.894  1.00  0.00    -0.003 A 
HETATM    7  C   UNL     1       8.412  30.401  57.961  1.00  0.00     0.043 A 
HETATM    8  C   UNL     1       9.273  29.134  56.103  1.00  0.00     0.013 A 
HETATM    9  C   UNL     1       9.702  30.862  58.256  1.00  0.00     0.018 A 
HETATM   10  C   UNL     1       7.268  30.893  58.775  1.00  0.00     0.256 A 
HETATM   11  C   UNL     1      10.779  30.451  57.475  1.00  0.00     0.001 A 
HETATM   12  C   UNL     1      10.563  29.594  56.398  1.00  0.00     0.001 A 
HETATM   13  O   UNL     1       7.421  31.662  59.717  1.00  0.00    -0.267 OA
HETATM   14  N   UNL     1       6.024  30.442  58.402  1.00  0.00    -0.332 N 
HETATM   15  C   UNL     1       5.797  29.561  57.377  1.00  0.00     0.109 A 
HETATM   16  H   UNL     1       5.246  30.796  58.948  1.00  0.00     0.168 HD
ENDBRANCH   2   5
BRANCH   1  17
HETATM   17  C   UNL     1       5.579  25.778  55.221  1.00  0.00     0.161 C 
BRANCH  17  18
HETATM   18  C   UNL     1       6.577  24.797  54.661  1.00  0.00    -0.039 A 
HETATM   19  C   UNL     1       6.931  23.654  55.398  1.00  0.00     0.027 A 
HETATM   20  C   UNL     1       7.789  22.681  54.865  1.00  0.00     0.000 A 
HETATM   21  C   UNL     1       8.281  22.851  53.570  1.00  0.00     0.018 A 
HETATM   22  C   UNL     1       7.934  23.979  52.822  1.00  0.00     0.002 A 
HETATM   23  C   UNL     1       7.080  24.941  53.362  1.00  0.00     0.009 A 
BRANCH  20  24
HETATM   24  S   UNL     1       8.125  21.236  55.862  1.00  0.00    -0.134 SA
HETATM   25  C   UNL     1       8.748  20.066  54.624  1.00  0.00     0.095 C 
ENDBRANCH  20  24
ENDBRANCH  17  18
ENDBRANCH   1  17
TORSDOF 4
ENDMDL
MODEL 4
REMARK VINA RESULT:      -8.9      1.757      2.720
REMARK  4 active torsions:
REMARK  status: ('A' for Active; 'I' for Inactive)
REMARK    1  A    between atoms: S_2  and  C_3 
REMARK    2  A    between atoms: C_5  and  C_6 
REMARK    3  A    between atoms: C_6  and  N_7 
REMARK       I    between atoms: N_7  and  C_8 
REMARK    4  A    between atoms: C_8  and  C_9 
ROOT
HETATM    1  N   UNL     1       5.972  25.952  54.275  1.00  0.00    -0.353 N 
HETATM    2  C   UNL     1       7.187  25.378  53.994  1.00  0.00     0.254 C 
HETATM    3  O   UNL     1       7.951  25.794  53.128  1.00  0.00    -0.268 OA
HETATM    4  H   UNL     1       5.464  25.664  55.101  1.00  0.00     0.163 HD
ENDROOT
BRANCH   2   5
HETATM    5  C   UNL     1       7.576  24.249  54.888  1.00  0.00     0.058 A 
HETATM    6  C   UNL     1       7.837  22.851  54.489  1.00  0.00    -0.003 A 
HETATM    7  C   UNL     1       8.128  21.899  55.487  1.00  0.00     0.043 A 
HETATM    8  C   UNL     1       7.856  22.424  53.153  1.00  0.00     0.013 A 
HETATM    9  C   UNL     1       8.383  20.560  55.165  1.00  0.00     0.018 A 
HETATM   10  C   UNL     1       8.200  22.325  56.911  1.00  0.00     0.256 A 
HETATM   11  C   UNL     1       8.368  20.154  53.834  1.00  0.00     0.001 A 
HETATM   12  C   UNL     1       8.111  21.085  52.831  1.00  0.00     0.001 A 
HETATM   13  O   UNL     1       8.443  21.535  57.816  1.00  0.00    -0.267 OA
HETATM   14  N   UNL     1       7.988  23.662  57.153  1.00  0.00    -0.332 N 
HETATM   15  C   UNL     1       7.685  24.584  56.185  1.00  0.00     0.109 A 
HETATM   16  H   UNL     1       8.059  23.949  58.123  1.00  0.00     0.168 HD
ENDBRANCH   2   5
BRANCH   1  17
HETATM   17  C   UNL     1       5.564  27.183  53.632  1.00  0.00     0.161 C 
BRANCH  17  18
HETATM   18  C   UNL     1       5.501  28.344  54.592  1.00  0.00    -0.039 A 
HETATM   19  C   UNL     1       6.472  28.479  55.599  1.00  0.00     0.027 A 
HETATM   20  C   UNL     1       6.489  29.593  56.450  1.00  0.00     0.000 A 
HETATM   21  C   UNL     1       5.530  30.592  56.274  1.00  0.00     0.018 A 
HETATM   22  C   UNL     1       4.561  30.475  55.274  1.00  0.00     0.002 A 
HETATM   23  C   UNL     1       4.553  29.362  54.434  1.00  0.00     0.009 A 
BRANCH  20  24
HETATM   24  S   UNL     1       7.805  29.697  57.656  1.00  0.00    -0.134 SA
HETATM   25  C   UNL     1       8.855  28.296  57.182  1.00  0.00     0.095 C 
ENDBRANCH  20  24
ENDBRANCH  17  18
ENDBRANCH   1  17
TORSDOF 4
ENDMDL
MODEL 5
REMARK VINA RESULT:      -8.5      1.637      2.308
REMARK  4 active torsions:
REMARK  status: ('A' for Active; 'I' for Inactive)
REMARK    1  A    between atoms: S_2  and  C_3 
REMARK    2  A    between atoms: C_5  and  C_6 
REMARK    3  A    between atoms: C_6  and  N_7 
REMARK       I    between atoms: N_7  and  C_8 
REMARK    4  A    between atoms: C_8  and  C_9 
ROOT
HETATM    1  N   UNL     1       7.293  28.102  56.701  1.00  0.00    -0.353 N 
HETATM    2  C   UNL     1       7.318  27.300  55.588  1.00  0.00     0.254 C 
HETATM    3  O   UNL     1       7.167  27.719  54.445  1.00  0.00    -0.268 OA
HETATM    4  H   UNL     1       7.581  27.724  57.594  1.00  0.00     0.163 HD
ENDROOT
BRANCH   2   5
HETATM    5  C   UNL     1       7.641  25.866  55.847  1.00  0.00     0.058 A 
HETATM    6  C   UNL     1       7.728  24.782  54.848  1.00  0.00    -0.003 A 
HETATM    7  C   UNL     1       7.978  23.467  55.289  1.00  0.00     0.043 A 
HETATM    8  C   UNL     1       7.620  24.999  53.466  1.00  0.00     0.013 A 
HETATM    9  C   UNL     1       8.072  22.400  54.385  1.00  0.00     0.018 A 
HETATM   10  C   UNL     1       8.183  23.203  56.738  1.00  0.00     0.256 A 
HETATM   11  C   UNL     1       7.931  22.636  53.020  1.00  0.00     0.001 A 
HETATM   12  C   UNL     1       7.712  23.934  52.562  1.00  0.00     0.001 A 
HETATM   13  O   UNL     1       8.397  22.077  57.172  1.00  0.00    -0.267 OA
HETATM   14  N   UNL     1       8.128  24.300  57.565  1.00  0.00    -0.332 N 
HETATM   15  C   UNL     1       7.865  25.576  57.140  1.00  0.00     0.109 A 
HETATM   16  H   UNL     1       8.288  24.116  58.550  1.00  0.00     0.168 HD
ENDBRANCH   2   5
BRANCH   1  17
HETATM   17  C   UNL     1       7.205  29.542  56.579  1.00  0.00     0.161 C 
BRANCH  17  18
HETATM   18  C   UNL     1       7.437  30.249  57.890  1.00  0.00    -0.039 A 
HETATM   19  C   UNL     1       6.512  31.201  58.350  1.00  0.00     0.027 A 
HETATM   20  C   UNL     1       6.656  31.810  59.606  1.00  0.00     0.000 A 
HETATM   21  C   UNL     1       7.734  31.443  60.414  1.00  0.00     0.018 A 
HETATM   22  C   UNL     1       8.659  30.494  59.973  1.00  0.00     0.002 A 
HETATM   23  C   UNL     1       8.506  29.895  58.722  1.00  0.00     0.009 A 
BRANCH  20  24
HETATM   24  S   UNL     1       5.389  32.962  60.120  1.00  0.00    -0.134 SA
HETATM   25  C   UNL     1       5.364  32.708  61.915  1.00  0.00     0.095 C 
ENDBRANCH  20  24
ENDBRANCH  17  18
ENDBRANCH   1  17
TORSDOF 4
ENDMDL
MODEL 6
REMARK VINA RESULT:      -8.5      6.398      8.300
REMARK  4 active torsions:
REMARK  status: ('A' for Active; 'I' for Inactive)
REMARK    1  A    between atoms: S_2  and  C_3 
REMARK    2  A    between atoms: C_5  and  C_6 
REMARK    3  A    between atoms: C_6  and  N_7 
REMARK       I    between atoms: N_7  and  C_8 
REMARK    4  A    between atoms: C_8  and  C_9 
ROOT
HETATM    1  N   UNL     1       5.166  27.258  50.995  1.00  0.00    -0.353 N 
HETATM    2  C   UNL     1       5.786  27.801  52.093  1.00  0.00     0.254 C 
HETATM    3  O   UNL     1       6.216  28.949  52.132  1.00  0.00    -0.268 OA
HETATM    4  H   UNL     1       4.695  26.368  51.079  1.00  0.00     0.163 HD
ENDROOT
BRANCH   2   5
HETATM    5  C   UNL     1       5.824  26.922  53.297  1.00  0.00     0.058 A 
HETATM    6  C   UNL     1       6.515  25.622  53.426  1.00  0.00    -0.003 A 
HETATM    7  C   UNL     1       6.383  24.895  54.626  1.00  0.00     0.043 A 
HETATM    8  C   UNL     1       7.341  25.088  52.425  1.00  0.00     0.013 A 
HETATM    9  C   UNL     1       7.016  23.658  54.802  1.00  0.00     0.018 A 
HETATM   10  C   UNL     1       5.585  25.462  55.746  1.00  0.00     0.256 A 
HETATM   11  C   UNL     1       7.807  23.134  53.783  1.00  0.00     0.001 A 
HETATM   12  C   UNL     1       7.974  23.851  52.600  1.00  0.00     0.001 A 
HETATM   13  O   UNL     1       5.434  24.866  56.806  1.00  0.00    -0.267 OA
HETATM   14  N   UNL     1       5.031  26.701  55.526  1.00  0.00    -0.332 N 
HETATM   15  C   UNL     1       5.142  27.399  54.352  1.00  0.00     0.109 A 
HETATM   16  H   UNL     1       4.504  27.091  56.300  1.00  0.00     0.168 HD
ENDBRANCH   2   5
BRANCH   1  17
HETATM   17  C   UNL     1       4.868  28.068  49.833  1.00  0.00     0.161 C 
BRANCH  17  18
HETATM   18  C   UNL     1       3.862  27.418  48.918  1.00  0.00    -0.039 A 
HETATM   19  C   UNL     1       2.879  28.198  48.284  1.00  0.00     0.027 A 
HETATM   20  C   UNL     1       1.986  27.635  47.361  1.00  0.00     0.000 A 
HETATM   21  C   UNL     1       2.094  26.276  47.059  1.00  0.00     0.018 A 
HETATM   22  C   UNL     1       3.069  25.489  47.676  1.00  0.00     0.002 A 
HETATM   23  C   UNL     1       3.952  26.059  48.593  1.00  0.00     0.009 A 
BRANCH  20  24
HETATM   24  S   UNL     1       0.816  28.728  46.566  1.00  0.00    -0.134 SA
HETATM   25  C   UNL     1      -0.340  27.552  45.813  1.00  0.00     0.095 C 
ENDBRANCH  20  24
ENDBRANCH  17  18
ENDBRANCH   1  17
TORSDOF 4
ENDMDL
MODEL 7
REMARK VINA RESULT:      -8.4      4.592     10.047
REMARK  4 active torsions:
REMARK  status: ('A' for Active; 'I' for Inactive)
REMARK    1  A    between atoms: S_2  and  C_3 
REMARK    2  A    between atoms: C_5  and  C_6 
REMARK    3  A    between atoms: C_6  and  N_7 
REMARK       I    between atoms: N_7  and  C_8 
REMARK    4  A    between atoms: C_8  and  C_9 
ROOT
HETATM    1  N   UNL     1       7.481  30.176  59.149  1.00  0.00    -0.353 N 
HETATM    2  C   UNL     1       7.832  31.484  59.374  1.00  0.00     0.254 C 
HETATM    3  O   UNL     1       8.844  32.005  58.915  1.00  0.00    -0.268 OA
HETATM    4  H   UNL     1       6.562  29.854  59.420  1.00  0.00     0.163 HD
ENDROOT
BRANCH   2   5
HETATM    5  C   UNL     1       6.840  32.282  60.151  1.00  0.00     0.058 A 
HETATM    6  C   UNL     1       6.919  32.645  61.582  1.00  0.00    -0.003 A 
HETATM    7  C   UNL     1       5.846  33.349  62.166  1.00  0.00     0.043 A 
HETATM    8  C   UNL     1       8.033  32.365  62.386  1.00  0.00     0.013 A 
HETATM    9  C   UNL     1       5.869  33.720  63.517  1.00  0.00     0.018 A 
HETATM   10  C   UNL     1       4.680  33.741  61.330  1.00  0.00     0.256 A 
HETATM   11  C   UNL     1       6.974  33.405  64.303  1.00  0.00     0.001 A 
HETATM   12  C   UNL     1       8.055  32.734  63.736  1.00  0.00     0.001 A 
HETATM   13  O   UNL     1       3.721  34.348  61.792  1.00  0.00    -0.267 OA
HETATM   14  N   UNL     1       4.744  33.391  60.002  1.00  0.00    -0.332 N 
HETATM   15  C   UNL     1       5.777  32.688  59.437  1.00  0.00     0.109 A 
HETATM   16  H   UNL     1       3.955  33.678  59.433  1.00  0.00     0.168 HD
ENDBRANCH   2   5
BRANCH   1  17
HETATM   17  C   UNL     1       8.240  29.349  58.236  1.00  0.00     0.161 C 
BRANCH  17  18
HETATM   18  C   UNL     1       7.409  28.250  57.624  1.00  0.00    -0.039 A 
HETATM   19  C   UNL     1       7.961  26.972  57.432  1.00  0.00     0.027 A 
HETATM   20  C   UNL     1       7.186  25.909  56.947  1.00  0.00     0.000 A 
HETATM   21  C   UNL     1       5.836  26.130  56.668  1.00  0.00     0.018 A 
HETATM   22  C   UNL     1       5.271  27.393  56.858  1.00  0.00     0.002 A 
HETATM   23  C   UNL     1       6.051  28.444  57.341  1.00  0.00     0.009 A 
BRANCH  20  24
HETATM   24  S   UNL     1       7.970  24.309  56.800  1.00  0.00    -0.134 SA
HETATM   25  C   UNL     1       8.051  24.098  55.001  1.00  0.00     0.095 C 
ENDBRANCH  20  24
ENDBRANCH  17  18
ENDBRANCH   1  17
TORSDOF 4
ENDMDL
MODEL 8
REMARK VINA RESULT:      -8.4      5.111      6.381
REMARK  4 active torsions:
REMARK  status: ('A' for Active; 'I' for Inactive)
REMARK    1  A    between atoms: S_2  and  C_3 
REMARK    2  A    between atoms: C_5  and  C_6 
REMARK    3  A    between atoms: C_6  and  N_7 
REMARK       I    between atoms: N_7  and  C_8 
REMARK    4  A    between atoms: C_8  and  C_9 
ROOT
HETATM    1  N   UNL     1       6.034  25.816  51.872  1.00  0.00    -0.353 N 
HETATM    2  C   UNL     1       5.534  25.156  52.966  1.00  0.00     0.254 C 
HETATM    3  O   UNL     1       4.364  24.802  53.071  1.00  0.00    -0.268 OA
HETATM    4  H   UNL     1       7.033  25.938  51.777  1.00  0.00     0.163 HD
ENDROOT
BRANCH   2   5
HETATM    5  C   UNL     1       6.543  24.803  54.007  1.00  0.00     0.058 A 
HETATM    6  C   UNL     1       7.384  23.588  54.052  1.00  0.00    -0.003 A 
HETATM    7  C   UNL     1       8.237  23.389  55.156  1.00  0.00     0.043 A 
HETATM    8  C   UNL     1       7.413  22.635  53.022  1.00  0.00     0.013 A 
HETATM    9  C   UNL     1       9.056  22.256  55.249  1.00  0.00     0.018 A 
HETATM   10  C   UNL     1       8.300  24.415  56.231  1.00  0.00     0.256 A 
HETATM   11  C   UNL     1       9.046  21.310  54.229  1.00  0.00     0.001 A 
HETATM   12  C   UNL     1       8.231  21.503  53.116  1.00  0.00     0.001 A 
HETATM   13  O   UNL     1       9.020  24.286  57.214  1.00  0.00    -0.267 OA
HETATM   14  N   UNL     1       7.509  25.526  56.054  1.00  0.00    -0.332 N 
HETATM   15  C   UNL     1       6.664  25.710  54.991  1.00  0.00     0.109 A 
HETATM   16  H   UNL     1       7.572  26.230  56.781  1.00  0.00     0.168 HD
ENDBRANCH   2   5
BRANCH   1  17
HETATM   17  C   UNL     1       5.217  26.032  50.696  1.00  0.00     0.161 C 
BRANCH  17  18
HETATM   18  C   UNL     1       5.132  27.487  50.310  1.00  0.00    -0.039 A 
HETATM   19  C   UNL     1       4.523  27.860  49.100  1.00  0.00     0.027 A 
HETATM   20  C   UNL     1       4.352  29.209  48.756  1.00  0.00     0.000 A 
HETATM   21  C   UNL     1       4.782  30.193  49.648  1.00  0.00     0.018 A 
HETATM   22  C   UNL     1       5.384  29.838  50.858  1.00  0.00     0.002 A 
HETATM   23  C   UNL     1       5.550  28.493  51.189  1.00  0.00     0.009 A 
BRANCH  20  24
HETATM   24  S   UNL     1       3.509  29.574  47.222  1.00  0.00    -0.134 SA
HETATM   25  C   UNL     1       4.545  30.893  46.533  1.00  0.00     0.095 C 
ENDBRANCH  20  24
ENDBRANCH  17  18
ENDBRANCH   1  17
TORSDOF 4
ENDMDL
MODEL 9
REMARK VINA RESULT:      -8.4      3.321      4.282
REMARK  4 active torsions:
REMARK  status: ('A' for Active; 'I' for Inactive)
REMARK    1  A    between atoms: S_2  and  C_3 
REMARK    2  A    between atoms: C_5  and  C_6 
REMARK    3  A    between atoms: C_6  and  N_7 
REMARK       I    between atoms: N_7  and  C_8 
REMARK    4  A    between atoms: C_8  and  C_9 
ROOT
HETATM    1  N   UNL     1       5.730  26.747  55.985  1.00  0.00    -0.353 N 
HETATM    2  C   UNL     1       7.091  26.572  56.035  1.00  0.00     0.254 C 
HETATM    3  O   UNL     1       7.894  27.497  56.105  1.00  0.00    -0.268 OA
HETATM    4  H   UNL     1       5.121  25.947  56.088  1.00  0.00     0.163 HD
ENDROOT
BRANCH   2   5
HETATM    5  C   UNL     1       7.544  25.152  56.094  1.00  0.00     0.058 A 
HETATM    6  C   UNL     1       7.661  24.210  54.961  1.00  0.00    -0.003 A 
HETATM    7  C   UNL     1       8.043  22.878  55.219  1.00  0.00     0.043 A 
HETATM    8  C   UNL     1       7.456  24.585  53.626  1.00  0.00     0.013 A 
HETATM    9  C   UNL     1       8.171  21.943  54.184  1.00  0.00     0.018 A 
HETATM   10  C   UNL     1       8.353  22.457  56.612  1.00  0.00     0.256 A 
HETATM   11  C   UNL     1       7.933  22.331  52.868  1.00  0.00     0.001 A 
HETATM   12  C   UNL     1       7.582  23.650  52.590  1.00  0.00     0.001 A 
HETATM   13  O   UNL     1       8.683  21.310  56.889  1.00  0.00    -0.267 OA
HETATM   14  N   UNL     1       8.257  23.435  57.574  1.00  0.00    -0.332 N 
HETATM   15  C   UNL     1       7.866  24.725  57.327  1.00  0.00     0.109 A 
HETATM   16  H   UNL     1       8.488  23.147  58.518  1.00  0.00     0.168 HD
ENDBRANCH   2   5
BRANCH   1  17
HETATM   17  C   UNL     1       5.144  28.062  56.138  1.00  0.00     0.161 C 
BRANCH  17  18
HETATM   18  C   UNL     1       4.484  28.551  54.874  1.00  0.00    -0.039 A 
HETATM   19  C   UNL     1       3.989  29.865  54.800  1.00  0.00     0.027 A 
HETATM   20  C   UNL     1       3.450  30.374  53.610  1.00  0.00     0.000 A 
HETATM   21  C   UNL     1       3.425  29.560  52.477  1.00  0.00     0.018 A 
HETATM   22  C   UNL     1       3.918  28.254  52.532  1.00  0.00     0.002 A 
HETATM   23  C   UNL     1       4.452  27.756  53.721  1.00  0.00     0.009 A 
BRANCH  20  24
HETATM   24  S   UNL     1       2.907  32.078  53.608  1.00  0.00    -0.134 SA
HETATM   25  C   UNL     1       2.259  32.263  55.291  1.00  0.00     0.095 C 
ENDBRANCH  20  24
ENDBRANCH  17  18
ENDBRANCH   1  17
TORSDOF 4
ENDMDL
MODEL 10
REMARK VINA RESULT:      -8.3      4.254      5.697
REMARK  4 active torsions:
REMARK  status: ('A' for Active; 'I' for Inactive)
REMARK    1  A    between atoms: S_2  and  C_3 
REMARK    2  A    between atoms: C_5  and  C_6 
REMARK    3  A    between atoms: C_6  and  N_7 
REMARK       I    between atoms: N_7  and  C_8 
REMARK    4  A    between atoms: C_8  and  C_9 
ROOT
HETATM    1  N   UNL     1       6.915  27.188  53.837  1.00  0.00    -0.353 N 
HETATM    2  C   UNL     1       6.308  26.649  54.944  1.00  0.00     0.254 C 
HETATM    3  O   UNL     1       5.270  27.086  55.431  1.00  0.00    -0.268 OA
HETATM    4  H   UNL     1       7.674  26.690  53.393  1.00  0.00     0.163 HD
ENDROOT
BRANCH   2   5
HETATM    5  C   UNL     1       6.948  25.412  55.478  1.00  0.00     0.058 A 
HETATM    6  C   UNL     1       7.375  24.228  54.703  1.00  0.00    -0.003 A 
HETATM    7  C   UNL     1       7.903  23.117  55.390  1.00  0.00     0.043 A 
HETATM    8  C   UNL     1       7.326  24.168  53.302  1.00  0.00     0.013 A 
HETATM    9  C   UNL     1       8.323  21.969  54.706  1.00  0.00     0.018 A 
HETATM   10  C   UNL     1       8.051  23.169  56.869  1.00  0.00     0.256 A 
HETATM   11  C   UNL     1       8.238  21.921  53.317  1.00  0.00     0.001 A 
HETATM   12  C   UNL     1       7.746  23.021  52.618  1.00  0.00     0.001 A 
HETATM   13  O   UNL     1       8.498  22.227  57.514  1.00  0.00    -0.267 OA
HETATM   14  N   UNL     1       7.666  24.343  57.474  1.00  0.00    -0.332 N 
HETATM   15  C   UNL     1       7.134  25.416  56.809  1.00  0.00     0.109 A 
HETATM   16  H   UNL     1       7.788  24.379  58.480  1.00  0.00     0.168 HD
ENDBRANCH   2   5
BRANCH   1  17
HETATM   17  C   UNL     1       6.286  28.257  53.091  1.00  0.00     0.161 C 
BRANCH  17  18
HETATM   18  C   UNL     1       5.659  27.775  51.808  1.00  0.00    -0.039 A 
HETATM   19  C   UNL     1       5.425  28.676  50.755  1.00  0.00     0.027 A 
HETATM   20  C   UNL     1       4.924  28.239  49.520  1.00  0.00     0.000 A 
HETATM   21  C   UNL     1       4.672  26.878  49.336  1.00  0.00     0.018 A 
HETATM   22  C   UNL     1       4.904  25.969  50.371  1.00  0.00     0.002 A 
HETATM   23  C   UNL     1       5.402  26.414  51.596  1.00  0.00     0.009 A 
BRANCH  20  24
HETATM   24  S   UNL     1       4.724  29.458  48.228  1.00  0.00    -0.134 SA
HETATM   25  C   UNL     1       4.069  30.875  49.151  1.00  0.00     0.095 C 
ENDBRANCH  20  24
ENDBRANCH  17  18
ENDBRANCH   1  17
TORSDOF 4
ENDMDL
