MODEL 1
REMARK VINA RESULT:      -9.3      0.000      0.000
REMARK  7 active torsions:
REMARK  status: ('A' for Active; 'I' for Inactive)
REMARK    1  A    between atoms: O_2  and  C_3 
REMARK    2  A    between atoms: C_3  and  C_4 
REMARK    3  A    between atoms: C_5  and  N_6 
REMARK       I    between atoms: N_6  and  C_7 
REMARK    4  A    between atoms: C_7  and  C_8 
REMARK    5  A    between atoms: C_8  and  N_9 
REMARK    6  A    between atoms: C_11  and  C_12 
REMARK    7  A    between atoms: C_20  and  O_21 
ROOT
HETATM    1  N   UNL     1       6.219  30.929  58.254  1.00  0.00    -0.054 N 
HETATM    2  H   UNL     1       5.746  30.350  58.953  1.00  0.00     0.281 HD
HETATM    3  C   UNL     1       6.350  32.334  58.843  1.00  0.00     0.228 C 
HETATM    4  C   UNL     1       7.169  32.297  60.176  1.00  0.00     0.055 C 
HETATM    5  C   UNL     1       8.529  31.581  59.981  1.00  0.00     0.065 C 
HETATM    6  C   UNL     1       8.361  30.227  59.281  1.00  0.00     0.066 C 
HETATM    7  C   UNL     1       7.579  30.336  57.989  1.00  0.00     0.239 C 
HETATM    8  C   UNL     1       6.451  31.712  61.403  1.00  0.00     0.010 C 
HETATM    9  C   UNL     1       7.276  31.854  62.689  1.00  0.00     0.001 C 
HETATM   10  C   UNL     1       8.748  32.177  62.452  1.00  0.00     0.003 C 
HETATM   11  C   UNL     1       9.309  31.358  61.298  1.00  0.00     0.038 C 
ENDROOT
BRANCH   1  12
HETATM   12  C   UNL     1       5.347  30.828  56.972  1.00  0.00     0.338 C 
BRANCH  12  13
HETATM   13  C   UNL     1       4.044  30.021  57.073  1.00  0.00     0.248 C 
HETATM   14  N   UNL     1       3.998  28.710  56.692  1.00  0.00    -0.319 N 
HETATM   15  H   UNL     1       3.285  28.164  57.183  1.00  0.00     0.169 HD
HETATM   16  O   UNL     1       3.063  30.502  57.649  1.00  0.00    -0.271 OA
BRANCH  14  17
HETATM   17  C   UNL     1       4.541  28.061  55.592  1.00  0.00     0.094 A 
HETATM   18  C   UNL     1       5.313  26.902  55.612  1.00  0.00     0.080 A 
HETATM   19  C   UNL     1       5.584  26.446  54.259  1.00  0.00    -0.026 A 
HETATM   20  C   UNL     1       4.957  27.246  53.322  1.00  0.00    -0.008 A 
HETATM   21  C   UNL     1       6.358  25.220  53.841  1.00  0.00     0.041 C 
HETATM   22  S   UNL     1       4.129  28.541  54.020  1.00  0.00    -0.075 SA
HETATM   23  C   UNL     1       4.976  27.029  51.839  1.00  0.00     0.047 C 
HETATM   24  C   UNL     1       5.368  25.581  51.521  1.00  0.00     0.005 C 
HETATM   25  C   UNL     1       6.604  25.159  52.324  1.00  0.00     0.005 C 
BRANCH  18  26
HETATM   26  C   UNL     1       5.740  26.282  56.875  1.00  0.00     0.296 C 
HETATM   27  O   UNL     1       5.261  25.228  57.280  1.00  0.00    -0.259 OA
BRANCH  26  28
HETATM   28  O   UNL     1       6.697  26.990  57.535  1.00  0.00    -0.322 OA
HETATM   29  C   UNL     1       8.039  26.679  57.158  1.00  0.00     0.213 C 
ENDBRANCH  26  28
ENDBRANCH  18  26
ENDBRANCH  14  17
ENDBRANCH  12  13
ENDBRANCH   1  12
BRANCH   3  30
HETATM   30  C   UNL     1       5.037  33.092  59.008  1.00  0.00    -0.027 A 
HETATM   31  C   UNL     1       4.099  32.798  60.015  1.00  0.00     0.012 A 
HETATM   32  C   UNL     1       2.927  33.549  60.137  1.00  0.00     0.043 A 
HETATM   33  C   UNL     1       2.684  34.597  59.260  1.00  0.00     0.116 A 
HETATM   34  F   UNL     1       1.561  35.316  59.386  1.00  0.00    -0.206 F 
HETATM   35  C   UNL     1       3.589  34.911  58.259  1.00  0.00     0.043 A 
HETATM   36  C   UNL     1       4.763  34.163  58.134  1.00  0.00     0.012 A 
ENDBRANCH   3  30
BRANCH   5  37
HETATM   37  O   UNL     1       9.314  32.393  59.104  1.00  0.00    -0.389 OA
HETATM   38  H   UNL     1       9.144  33.335  59.302  1.00  0.00     0.210 HD
ENDBRANCH   5  37
TORSDOF 7
ENDMDL
MODEL 2
REMARK VINA RESULT:      -9.3      2.736      8.297
REMARK  7 active torsions:
REMARK  status: ('A' for Active; 'I' for Inactive)
REMARK    1  A    between atoms: O_2  and  C_3 
REMARK    2  A    between atoms: C_3  and  C_4 
REMARK    3  A    between atoms: C_5  and  N_6 
REMARK       I    between atoms: N_6  and  C_7 
REMARK    4  A    between atoms: C_7  and  C_8 
REMARK    5  A    between atoms: C_8  and  N_9 
REMARK    6  A    between atoms: C_11  and  C_12 
REMARK    7  A    between atoms: C_20  and  O_21 
ROOT
HETATM    1  N   UNL     1       8.017  26.535  56.402  1.00  0.00    -0.054 N 
HETATM    2  H   UNL     1       8.717  26.781  55.697  1.00  0.00     0.281 HD
HETATM    3  C   UNL     1       6.761  26.084  55.656  1.00  0.00     0.228 C 
HETATM    4  C   UNL     1       7.078  24.855  54.740  1.00  0.00     0.055 C 
HETATM    5  C   UNL     1       7.762  23.718  55.541  1.00  0.00     0.065 C 
HETATM    6  C   UNL     1       8.944  24.239  56.366  1.00  0.00     0.066 C 
HETATM    7  C   UNL     1       8.565  25.412  57.245  1.00  0.00     0.239 C 
HETATM    8  C   UNL     1       7.886  25.144  53.465  1.00  0.00     0.010 C 
HETATM    9  C   UNL     1       8.018  23.910  52.561  1.00  0.00     0.001 C 
HETATM   10  C   UNL     1       7.677  22.594  53.252  1.00  0.00     0.003 C 
HETATM   11  C   UNL     1       8.256  22.547  54.659  1.00  0.00     0.038 C 
ENDROOT
BRANCH   1  12
HETATM   12  C   UNL     1       7.844  27.807  57.277  1.00  0.00     0.338 C 
BRANCH  12  13
HETATM   13  C   UNL     1       8.449  29.113  56.742  1.00  0.00     0.248 C 
HETATM   14  N   UNL     1       8.391  30.267  57.472  1.00  0.00    -0.319 N 
HETATM   15  H   UNL     1       9.155  30.918  57.274  1.00  0.00     0.169 HD
HETATM   16  O   UNL     1       9.136  29.101  55.716  1.00  0.00    -0.271 OA
BRANCH  14  17
HETATM   17  C   UNL     1       7.359  30.823  58.215  1.00  0.00     0.094 A 
HETATM   18  C   UNL     1       7.492  31.690  59.296  1.00  0.00     0.080 A 
HETATM   19  C   UNL     1       6.190  32.169  59.730  1.00  0.00    -0.026 A 
HETATM   20  C   UNL     1       5.180  31.685  58.920  1.00  0.00    -0.008 A 
HETATM   21  C   UNL     1       5.894  33.140  60.846  1.00  0.00     0.041 C 
HETATM   22  S   UNL     1       5.749  30.639  57.723  1.00  0.00    -0.075 SA
HETATM   23  C   UNL     1       3.725  32.025  59.045  1.00  0.00     0.047 C 
HETATM   24  C   UNL     1       3.550  33.312  59.861  1.00  0.00     0.005 C 
HETATM   25  C   UNL     1       4.390  33.266  61.143  1.00  0.00     0.005 C 
BRANCH  18  26
HETATM   26  C   UNL     1       8.810  32.033  59.853  1.00  0.00     0.296 C 
HETATM   27  O   UNL     1       9.724  32.455  59.154  1.00  0.00    -0.259 OA
BRANCH  26  28
HETATM   28  O   UNL     1       8.905  31.829  61.195  1.00  0.00    -0.322 OA
HETATM   29  C   UNL     1       9.118  30.471  61.582  1.00  0.00     0.213 C 
ENDBRANCH  26  28
ENDBRANCH  18  26
ENDBRANCH  14  17
ENDBRANCH  12  13
ENDBRANCH   1  12
BRANCH   3  30
HETATM   30  C   UNL     1       6.031  27.183  54.892  1.00  0.00    -0.027 A 
HETATM   31  C   UNL     1       6.527  27.758  53.708  1.00  0.00     0.012 A 
HETATM   32  C   UNL     1       5.798  28.742  53.034  1.00  0.00     0.043 A 
HETATM   33  C   UNL     1       4.570  29.155  53.533  1.00  0.00     0.116 A 
HETATM   34  F   UNL     1       3.874  30.093  52.879  1.00  0.00    -0.206 F 
HETATM   35  C   UNL     1       4.055  28.606  54.697  1.00  0.00     0.043 A 
HETATM   36  C   UNL     1       4.781  27.623  55.373  1.00  0.00     0.012 A 
ENDBRANCH   3  30
BRANCH   5  37
HETATM   37  O   UNL     1       6.802  23.224  56.479  1.00  0.00    -0.389 OA
HETATM   38  H   UNL     1       6.004  22.930  55.996  1.00  0.00     0.210 HD
ENDBRANCH   5  37
TORSDOF 7
ENDMDL
MODEL 3
REMARK VINA RESULT:      -9.3      2.929      5.046
REMARK  7 active torsions:
REMARK  status: ('A' for Active; 'I' for Inactive)
REMARK    1  A    between atoms: O_2  and  C_3 
REMARK    2  A    between atoms: C_3  and  C_4 
REMARK    3  A    between atoms: C_5  and  N_6 
REMARK       I    between atoms: N_6  and  C_7 
REMARK    4  A    between atoms: C_7  and  C_8 
REMARK    5  A    between atoms: C_8  and  N_9 
REMARK    6  A    between atoms: C_11  and  C_12 
REMARK    7  A    between atoms: C_20  and  O_21 
ROOT
HETATM    1  N   UNL     1       4.526  32.536  59.949  1.00  0.00    -0.054 N 
HETATM    2  H   UNL     1       4.884  33.395  59.522  1.00  0.00     0.281 HD
HETATM    3  C   UNL     1       5.122  32.447  61.354  1.00  0.00     0.228 C 
HETATM    4  C   UNL     1       4.716  33.697  62.204  1.00  0.00     0.055 C 
HETATM    5  C   UNL     1       3.181  33.907  62.197  1.00  0.00     0.065 C 
HETATM    6  C   UNL     1       2.611  33.873  60.774  1.00  0.00     0.066 C 
HETATM    7  C   UNL     1       3.023  32.630  60.016  1.00  0.00     0.239 C 
HETATM    8  C   UNL     1       5.418  35.019  61.852  1.00  0.00     0.010 C 
HETATM    9  C   UNL     1       5.067  36.148  62.832  1.00  0.00     0.001 C 
HETATM   10  C   UNL     1       3.841  35.865  63.694  1.00  0.00     0.003 C 
HETATM   11  C   UNL     1       2.731  35.224  62.874  1.00  0.00     0.038 C 
ENDROOT
BRANCH   1  12
HETATM   12  C   UNL     1       4.935  31.391  58.983  1.00  0.00     0.338 C 
BRANCH  12  13
HETATM   13  C   UNL     1       5.596  31.795  57.657  1.00  0.00     0.248 C 
HETATM   14  N   UNL     1       5.650  30.926  56.604  1.00  0.00    -0.319 N 
HETATM   15  H   UNL     1       5.682  31.387  55.691  1.00  0.00     0.169 HD
HETATM   16  O   UNL     1       5.944  32.965  57.471  1.00  0.00    -0.271 OA
BRANCH  14  17
HETATM   17  C   UNL     1       5.940  29.569  56.557  1.00  0.00     0.094 A 
HETATM   18  C   UNL     1       6.997  28.926  57.195  1.00  0.00     0.080 A 
HETATM   19  C   UNL     1       6.896  27.486  57.025  1.00  0.00    -0.026 A 
HETATM   20  C   UNL     1       5.751  27.139  56.332  1.00  0.00    -0.008 A 
HETATM   21  C   UNL     1       7.819  26.428  57.578  1.00  0.00     0.041 C 
HETATM   22  S   UNL     1       4.858  28.484  55.835  1.00  0.00    -0.075 SA
HETATM   23  C   UNL     1       5.303  25.740  56.032  1.00  0.00     0.047 C 
HETATM   24  C   UNL     1       6.001  24.749  56.971  1.00  0.00     0.005 C 
HETATM   25  C   UNL     1       7.508  25.023  57.036  1.00  0.00     0.005 C 
BRANCH  18  26
HETATM   26  C   UNL     1       8.027  29.676  57.929  1.00  0.00     0.296 C 
HETATM   27  O   UNL     1       8.133  29.615  59.150  1.00  0.00    -0.259 OA
BRANCH  26  28
HETATM   28  O   UNL     1       8.826  30.433  57.129  1.00  0.00    -0.322 OA
HETATM   29  C   UNL     1      10.027  29.789  56.700  1.00  0.00     0.213 C 
ENDBRANCH  26  28
ENDBRANCH  18  26
ENDBRANCH  14  17
ENDBRANCH  12  13
ENDBRANCH   1  12
BRANCH   3  30
HETATM   30  C   UNL     1       6.625  32.194  61.406  1.00  0.00    -0.027 A 
HETATM   31  C   UNL     1       7.536  32.781  60.510  1.00  0.00     0.012 A 
HETATM   32  C   UNL     1       8.907  32.535  60.625  1.00  0.00     0.043 A 
HETATM   33  C   UNL     1       9.378  31.707  61.636  1.00  0.00     0.116 A 
HETATM   34  F   UNL     1      10.693  31.482  61.745  1.00  0.00    -0.206 F 
HETATM   35  C   UNL     1       8.504  31.116  62.534  1.00  0.00     0.043 A 
HETATM   36  C   UNL     1       7.133  31.359  62.422  1.00  0.00     0.012 A 
ENDBRANCH   3  30
BRANCH   5  37
HETATM   37  O   UNL     1       2.598  32.801  62.891  1.00  0.00    -0.389 OA
HETATM   38  H   UNL     1       3.076  32.664  63.733  1.00  0.00     0.210 HD
ENDBRANCH   5  37
TORSDOF 7
ENDMDL
MODEL 4
REMARK VINA RESULT:      -9.2      3.084      5.186
REMARK  7 active torsions:
REMARK  status: ('A' for Active; 'I' for Inactive)
REMARK    1  A    between atoms: O_2  and  C_3 
REMARK    2  A    between atoms: C_3  and  C_4 
REMARK    3  A    between atoms: C_5  and  N_6 
REMARK       I    between atoms: N_6  and  C_7 
REMARK    4  A    between atoms: C_7  and  C_8 
REMARK    5  A    between atoms: C_8  and  N_9 
REMARK    6  A    between atoms: C_11  and  C_12 
REMARK    7  A    between atoms: C_20  and  O_21 
ROOT
HETATM    1  N   UNL     1       5.196  29.513  56.074  1.00  0.00    -0.054 N 
HETATM    2  H   UNL     1       5.361  30.314  55.459  1.00  0.00     0.281 HD
HETATM    3  C   UNL     1       5.892  29.810  57.402  1.00  0.00     0.228 C 
HETATM    4  C   UNL     1       5.325  31.123  58.039  1.00  0.00     0.055 C 
HETATM    5  C   UNL     1       3.780  31.072  58.150  1.00  0.00     0.065 C 
HETATM    6  C   UNL     1       3.130  30.656  56.825  1.00  0.00     0.066 C 
HETATM    7  C   UNL     1       3.708  29.369  56.276  1.00  0.00     0.239 C 
HETATM    8  C   UNL     1       5.750  32.443  57.374  1.00  0.00     0.010 C 
HETATM    9  C   UNL     1       5.267  33.674  58.154  1.00  0.00     0.001 C 
HETATM   10  C   UNL     1       4.175  33.375  59.176  1.00  0.00     0.003 C 
HETATM   11  C   UNL     1       3.146  32.406  58.609  1.00  0.00     0.038 C 
ENDROOT
BRANCH   1  12
HETATM   12  C   UNL     1       5.739  28.278  55.304  1.00  0.00     0.338 C 
BRANCH  12  13
HETATM   13  C   UNL     1       4.768  27.561  54.354  1.00  0.00     0.248 C 
HETATM   14  N   UNL     1       4.705  26.197  54.310  1.00  0.00    -0.319 N 
HETATM   15  H   UNL     1       3.792  25.837  54.022  1.00  0.00     0.169 HD
HETATM   16  O   UNL     1       3.920  28.210  53.734  1.00  0.00    -0.271 OA
BRANCH  14  17
HETATM   17  C   UNL     1       5.708  25.239  54.318  1.00  0.00     0.094 A 
HETATM   18  C   UNL     1       6.265  24.632  55.441  1.00  0.00     0.080 A 
HETATM   19  C   UNL     1       7.190  23.582  55.049  1.00  0.00    -0.026 A 
HETATM   20  C   UNL     1       7.224  23.427  53.675  1.00  0.00    -0.008 A 
HETATM   21  C   UNL     1       7.980  22.668  55.953  1.00  0.00     0.041 C 
HETATM   22  S   UNL     1       6.242  24.540  52.870  1.00  0.00    -0.075 SA
HETATM   23  C   UNL     1       8.023  22.398  52.934  1.00  0.00     0.047 C 
HETATM   24  C   UNL     1       8.423  21.258  53.878  1.00  0.00     0.005 C 
HETATM   25  C   UNL     1       8.999  21.807  55.188  1.00  0.00     0.005 C 
BRANCH  18  26
HETATM   26  C   UNL     1       5.901  25.050  56.803  1.00  0.00     0.296 C 
HETATM   27  O   UNL     1       4.743  25.299  57.122  1.00  0.00    -0.259 OA
BRANCH  26  28
HETATM   28  O   UNL     1       6.962  25.133  57.651  1.00  0.00    -0.322 OA
HETATM   29  C   UNL     1       7.882  26.186  57.358  1.00  0.00     0.213 C 
ENDBRANCH  26  28
ENDBRANCH  18  26
ENDBRANCH  14  17
ENDBRANCH  12  13
ENDBRANCH   1  12
BRANCH   3  30
HETATM   30  C   UNL     1       7.416  29.824  57.346  1.00  0.00    -0.027 A 
HETATM   31  C   UNL     1       8.146  29.552  56.174  1.00  0.00     0.012 A 
HETATM   32  C   UNL     1       9.542  29.609  56.176  1.00  0.00     0.043 A 
HETATM   33  C   UNL     1      10.218  29.940  57.343  1.00  0.00     0.116 A 
HETATM   34  F   UNL     1      11.556  29.999  57.336  1.00  0.00    -0.206 F 
HETATM   35  C   UNL     1       9.526  30.213  58.512  1.00  0.00     0.043 A 
HETATM   36  C   UNL     1       8.130  30.158  58.515  1.00  0.00     0.012 A 
ENDBRANCH   3  30
BRANCH   5  37
HETATM   37  O   UNL     1       3.457  30.050  59.096  1.00  0.00    -0.389 OA
HETATM   38  H   UNL     1       2.741  29.492  58.733  1.00  0.00     0.210 HD
ENDBRANCH   5  37
TORSDOF 7
ENDMDL
MODEL 5
REMARK VINA RESULT:      -9.1      2.596      3.891
REMARK  7 active torsions:
REMARK  status: ('A' for Active; 'I' for Inactive)
REMARK    1  A    between atoms: O_2  and  C_3 
REMARK    2  A    between atoms: C_3  and  C_4 
REMARK    3  A    between atoms: C_5  and  N_6 
REMARK       I    between atoms: N_6  and  C_7 
REMARK    4  A    between atoms: C_7  and  C_8 
REMARK    5  A    between atoms: C_8  and  N_9 
REMARK    6  A    between atoms: C_11  and  C_12 
REMARK    7  A    between atoms: C_20  and  O_21 
ROOT
HETATM    1  N   UNL     1       6.458  28.561  57.111  1.00  0.00    -0.054 N 
HETATM    2  H   UNL     1       6.552  28.499  58.128  1.00  0.00     0.281 HD
HETATM    3  C   UNL     1       6.722  30.015  56.720  1.00  0.00     0.228 C 
HETATM    4  C   UNL     1       8.155  30.455  57.170  1.00  0.00     0.055 C 
HETATM    5  C   UNL     1       9.234  29.471  56.652  1.00  0.00     0.065 C 
HETATM    6  C   UNL     1       8.870  28.015  56.965  1.00  0.00     0.066 C 
HETATM    7  C   UNL     1       7.482  27.649  56.484  1.00  0.00     0.239 C 
HETATM    8  C   UNL     1       8.354  30.691  58.676  1.00  0.00     0.010 C 
HETATM    9  C   UNL     1       9.742  31.260  59.002  1.00  0.00     0.001 C 
HETATM   10  C   UNL     1      10.754  31.120  57.869  1.00  0.00     0.003 C 
HETATM   11  C   UNL     1      10.650  29.753  57.208  1.00  0.00     0.038 C 
ENDROOT
BRANCH   1  12
HETATM   12  C   UNL     1       5.030  28.039  56.793  1.00  0.00     0.338 C 
BRANCH  12  13
HETATM   13  C   UNL     1       4.583  28.075  55.323  1.00  0.00     0.248 C 
HETATM   14  N   UNL     1       4.500  26.929  54.585  1.00  0.00    -0.319 N 
HETATM   15  H   UNL     1       3.810  26.975  53.831  1.00  0.00     0.169 HD
HETATM   16  O   UNL     1       4.140  29.121  54.839  1.00  0.00    -0.271 OA
BRANCH  14  17
HETATM   17  C   UNL     1       5.351  25.836  54.500  1.00  0.00     0.094 A 
HETATM   18  C   UNL     1       6.162  25.501  53.419  1.00  0.00     0.080 A 
HETATM   19  C   UNL     1       7.013  24.370  53.750  1.00  0.00    -0.026 A 
HETATM   20  C   UNL     1       6.833  23.971  55.061  1.00  0.00    -0.008 A 
HETATM   21  C   UNL     1       8.051  23.714  52.874  1.00  0.00     0.041 C 
HETATM   22  S   UNL     1       5.641  24.863  55.856  1.00  0.00    -0.075 SA
HETATM   23  C   UNL     1       7.589  22.875  55.750  1.00  0.00     0.047 C 
HETATM   24  C   UNL     1       8.887  22.570  54.991  1.00  0.00     0.005 C 
HETATM   25  C   UNL     1       8.622  22.425  53.488  1.00  0.00     0.005 C 
BRANCH  18  26
HETATM   26  C   UNL     1       6.111  26.251  52.155  1.00  0.00     0.296 C 
HETATM   27  O   UNL     1       5.887  25.704  51.080  1.00  0.00    -0.259 OA
BRANCH  26  28
HETATM   28  O   UNL     1       6.340  27.584  52.302  1.00  0.00    -0.322 OA
HETATM   29  C   UNL     1       5.511  28.427  51.498  1.00  0.00     0.213 C 
ENDBRANCH  26  28
ENDBRANCH  18  26
ENDBRANCH  14  17
ENDBRANCH  12  13
ENDBRANCH   1  12
BRANCH   3  30
HETATM   30  C   UNL     1       5.658  31.011  57.170  1.00  0.00    -0.027 A 
HETATM   31  C   UNL     1       5.227  31.126  58.505  1.00  0.00     0.012 A 
HETATM   32  C   UNL     1       4.271  32.079  58.864  1.00  0.00     0.043 A 
HETATM   33  C   UNL     1       3.741  32.924  57.898  1.00  0.00     0.116 A 
HETATM   34  F   UNL     1       2.830  33.839  58.251  1.00  0.00    -0.206 F 
HETATM   35  C   UNL     1       4.147  32.835  56.576  1.00  0.00     0.043 A 
HETATM   36  C   UNL     1       5.103  31.884  56.213  1.00  0.00     0.012 A 
ENDBRANCH   3  30
BRANCH   5  37
HETATM   37  O   UNL     1       9.260  29.583  55.227  1.00  0.00    -0.389 OA
HETATM   38  H   UNL     1       8.478  29.129  54.855  1.00  0.00     0.210 HD
ENDBRANCH   5  37
TORSDOF 7
ENDMDL
MODEL 6
REMARK VINA RESULT:      -9.1      5.126      8.938
REMARK  7 active torsions:
REMARK  status: ('A' for Active; 'I' for Inactive)
REMARK    1  A    between atoms: O_2  and  C_3 
REMARK    2  A    between atoms: C_3  and  C_4 
REMARK    3  A    between atoms: C_5  and  N_6 
REMARK       I    between atoms: N_6  and  C_7 
REMARK    4  A    between atoms: C_7  and  C_8 
REMARK    5  A    between atoms: C_8  and  N_9 
REMARK    6  A    between atoms: C_11  and  C_12 
REMARK    7  A    between atoms: C_20  and  O_21 
ROOT
HETATM    1  N   UNL     1       6.606  26.630  53.145  1.00  0.00    -0.054 N 
HETATM    2  H   UNL     1       7.586  26.923  53.145  1.00  0.00     0.281 HD
HETATM    3  C   UNL     1       6.394  25.758  54.382  1.00  0.00     0.228 C 
HETATM    4  C   UNL     1       6.731  26.558  55.684  1.00  0.00     0.055 C 
HETATM    5  C   UNL     1       5.958  27.900  55.736  1.00  0.00     0.065 C 
HETATM    6  C   UNL     1       6.105  28.688  54.429  1.00  0.00     0.066 C 
HETATM    7  C   UNL     1       5.742  27.864  53.212  1.00  0.00     0.239 C 
HETATM    8  C   UNL     1       8.222  26.812  55.962  1.00  0.00     0.010 C 
HETATM    9  C   UNL     1       8.460  27.469  57.328  1.00  0.00     0.001 C 
HETATM   10  C   UNL     1       7.209  28.078  57.953  1.00  0.00     0.003 C 
HETATM   11  C   UNL     1       6.380  28.815  56.911  1.00  0.00     0.038 C 
ENDROOT
BRANCH   1  12
HETATM   12  C   UNL     1       6.386  25.913  51.785  1.00  0.00     0.338 C 
BRANCH  12  13
HETATM   13  C   UNL     1       4.949  25.493  51.438  1.00  0.00     0.248 C 
HETATM   14  N   UNL     1       4.303  26.024  50.358  1.00  0.00    -0.319 N 
HETATM   15  H   UNL     1       3.592  25.405  49.960  1.00  0.00     0.169 HD
HETATM   16  O   UNL     1       4.419  24.554  52.038  1.00  0.00    -0.271 OA
BRANCH  14  17
HETATM   17  C   UNL     1       4.243  27.326  49.881  1.00  0.00     0.094 A 
HETATM   18  C   UNL     1       4.421  27.733  48.562  1.00  0.00     0.080 A 
HETATM   19  C   UNL     1       4.148  29.155  48.425  1.00  0.00    -0.026 A 
HETATM   20  C   UNL     1       3.730  29.705  49.622  1.00  0.00    -0.008 A 
HETATM   21  C   UNL     1       4.197  29.982  47.165  1.00  0.00     0.041 C 
HETATM   22  S   UNL     1       3.728  28.588  50.888  1.00  0.00    -0.075 SA
HETATM   23  C   UNL     1       3.311  31.130  49.827  1.00  0.00     0.047 C 
HETATM   24  C   UNL     1       2.955  31.775  48.482  1.00  0.00     0.005 C 
HETATM   25  C   UNL     1       4.036  31.488  47.433  1.00  0.00     0.005 C 
BRANCH  18  26
HETATM   26  C   UNL     1       4.817  26.787  47.509  1.00  0.00     0.296 C 
HETATM   27  O   UNL     1       5.861  26.912  46.877  1.00  0.00    -0.259 OA
BRANCH  26  28
HETATM   28  O   UNL     1       3.919  25.784  47.311  1.00  0.00    -0.322 OA
HETATM   29  C   UNL     1       2.607  26.216  46.949  1.00  0.00     0.213 C 
ENDBRANCH  26  28
ENDBRANCH  18  26
ENDBRANCH  14  17
ENDBRANCH  12  13
ENDBRANCH   1  12
BRANCH   3  30
HETATM   30  C   UNL     1       7.100  24.406  54.351  1.00  0.00    -0.027 A 
HETATM   31  C   UNL     1       7.888  23.974  53.269  1.00  0.00     0.012 A 
HETATM   32  C   UNL     1       8.537  22.737  53.310  1.00  0.00     0.043 A 
HETATM   33  C   UNL     1       8.408  21.926  54.431  1.00  0.00     0.116 A 
HETATM   34  F   UNL     1       9.038  20.746  54.466  1.00  0.00    -0.206 F 
HETATM   35  C   UNL     1       7.640  22.327  55.512  1.00  0.00     0.043 A 
HETATM   36  C   UNL     1       6.990  23.562  55.475  1.00  0.00     0.012 A 
ENDBRANCH   3  30
BRANCH   5  37
HETATM   37  O   UNL     1       4.570  27.585  55.863  1.00  0.00    -0.389 OA
HETATM   38  H   UNL     1       4.328  27.581  56.810  1.00  0.00     0.210 HD
ENDBRANCH   5  37
TORSDOF 7
ENDMDL
MODEL 7
REMARK VINA RESULT:      -8.9      3.085      8.610
REMARK  7 active torsions:
REMARK  status: ('A' for Active; 'I' for Inactive)
REMARK    1  A    between atoms: O_2  and  C_3 
REMARK    2  A    between atoms: C_3  and  C_4 
REMARK    3  A    between atoms: C_5  and  N_6 
REMARK       I    between atoms: N_6  and  C_7 
REMARK    4  A    between atoms: C_7  and  C_8 
REMARK    5  A    between atoms: C_8  and  N_9 
REMARK    6  A    between atoms: C_11  and  C_12 
REMARK    7  A    between atoms: C_20  and  O_21 
ROOT
HETATM    1  N   UNL     1       4.459  28.494  55.293  1.00  0.00    -0.054 N 
HETATM    2  H   UNL     1       3.830  27.687  55.302  1.00  0.00     0.281 HD
HETATM    3  C   UNL     1       5.822  28.000  54.808  1.00  0.00     0.228 C 
HETATM    4  C   UNL     1       5.704  27.375  53.378  1.00  0.00     0.055 C 
HETATM    5  C   UNL     1       5.015  28.352  52.392  1.00  0.00     0.065 C 
HETATM    6  C   UNL     1       3.710  28.912  52.969  1.00  0.00     0.066 C 
HETATM    7  C   UNL     1       3.898  29.521  54.342  1.00  0.00     0.239 C 
HETATM    8  C   UNL     1       5.031  25.995  53.291  1.00  0.00     0.010 C 
HETATM    9  C   UNL     1       5.095  25.400  51.877  1.00  0.00     0.001 C 
HETATM   10  C   UNL     1       5.447  26.412  50.791  1.00  0.00     0.003 C 
HETATM   11  C   UNL     1       4.712  27.727  51.009  1.00  0.00     0.038 C 
ENDROOT
BRANCH   1  12
HETATM   12  C   UNL     1       4.436  29.056  56.740  1.00  0.00     0.338 C 
BRANCH  12  13
HETATM   13  C   UNL     1       3.870  30.472  56.933  1.00  0.00     0.248 C 
HETATM   14  N   UNL     1       4.681  31.509  57.299  1.00  0.00    -0.319 N 
HETATM   15  H   UNL     1       4.349  32.423  56.979  1.00  0.00     0.169 HD
HETATM   16  O   UNL     1       2.707  30.722  56.605  1.00  0.00    -0.271 OA
BRANCH  14  17
HETATM   17  C   UNL     1       5.702  31.580  58.236  1.00  0.00     0.094 A 
HETATM   18  C   UNL     1       5.617  32.131  59.513  1.00  0.00     0.080 A 
HETATM   19  C   UNL     1       6.848  31.900  60.251  1.00  0.00    -0.026 A 
HETATM   20  C   UNL     1       7.744  31.148  59.515  1.00  0.00    -0.008 A 
HETATM   21  C   UNL     1       7.157  32.307  61.670  1.00  0.00     0.041 C 
HETATM   22  S   UNL     1       7.174  30.786  57.967  1.00  0.00    -0.075 SA
HETATM   23  C   UNL     1       9.085  30.677  59.992  1.00  0.00     0.047 C 
HETATM   24  C   UNL     1       9.147  30.723  61.523  1.00  0.00     0.005 C 
HETATM   25  C   UNL     1       8.627  32.064  62.053  1.00  0.00     0.005 C 
BRANCH  18  26
HETATM   26  C   UNL     1       4.405  32.823  59.975  1.00  0.00     0.296 C 
HETATM   27  O   UNL     1       3.352  32.229  60.180  1.00  0.00    -0.259 OA
BRANCH  26  28
HETATM   28  O   UNL     1       4.572  34.163  60.142  1.00  0.00    -0.322 OA
HETATM   29  C   UNL     1       4.093  34.966  59.061  1.00  0.00     0.213 C 
ENDBRANCH  26  28
ENDBRANCH  18  26
ENDBRANCH  14  17
ENDBRANCH  12  13
ENDBRANCH   1  12
BRANCH   3  30
HETATM   30  C   UNL     1       6.555  27.072  55.771  1.00  0.00    -0.027 A 
HETATM   31  C   UNL     1       6.056  25.816  56.160  1.00  0.00     0.012 A 
HETATM   32  C   UNL     1       6.788  24.995  57.022  1.00  0.00     0.043 A 
HETATM   33  C   UNL     1       8.022  25.419  57.498  1.00  0.00     0.116 A 
HETATM   34  F   UNL     1       8.720  24.625  58.319  1.00  0.00    -0.206 F 
HETATM   35  C   UNL     1       8.539  26.651  57.132  1.00  0.00     0.043 A 
HETATM   36  C   UNL     1       7.811  27.475  56.270  1.00  0.00     0.012 A 
ENDBRANCH   3  30
BRANCH   5  37
HETATM   37  O   UNL     1       5.892  29.468  52.220  1.00  0.00    -0.389 OA
HETATM   38  H   UNL     1       6.544  29.479  52.948  1.00  0.00     0.210 HD
ENDBRANCH   5  37
TORSDOF 7
ENDMDL
MODEL 8
REMARK VINA RESULT:      -8.8      3.404      7.892
REMARK  7 active torsions:
REMARK  status: ('A' for Active; 'I' for Inactive)
REMARK    1  A    between atoms: O_2  and  C_3 
REMARK    2  A    between atoms: C_3  and  C_4 
REMARK    3  A    between atoms: C_5  and  N_6 
REMARK       I    between atoms: N_6  and  C_7 
REMARK    4  A    between atoms: C_7  and  C_8 
REMARK    5  A    between atoms: C_8  and  N_9 
REMARK    6  A    between atoms: C_11  and  C_12 
REMARK    7  A    between atoms: C_20  and  O_21 
ROOT
HETATM    1  N   UNL     1       5.635  27.184  53.874  1.00  0.00    -0.054 N 
HETATM    2  H   UNL     1       5.157  26.722  54.652  1.00  0.00     0.281 HD
HETATM    3  C   UNL     1       7.137  27.006  54.097  1.00  0.00     0.228 C 
HETATM    4  C   UNL     1       7.509  25.486  54.149  1.00  0.00     0.055 C 
HETATM    5  C   UNL     1       6.977  24.734  52.904  1.00  0.00     0.065 C 
HETATM    6  C   UNL     1       5.495  25.034  52.652  1.00  0.00     0.066 C 
HETATM    7  C   UNL     1       5.207  26.519  52.590  1.00  0.00     0.239 C 
HETATM    8  C   UNL     1       7.101  24.728  55.423  1.00  0.00     0.010 C 
HETATM    9  C   UNL     1       7.637  23.289  55.446  1.00  0.00     0.001 C 
HETATM   10  C   UNL     1       8.116  22.782  54.089  1.00  0.00     0.003 C 
HETATM   11  C   UNL     1       7.160  23.199  52.980  1.00  0.00     0.038 C 
ENDROOT
BRANCH   1  12
HETATM   12  C   UNL     1       5.134  28.654  53.892  1.00  0.00     0.338 C 
BRANCH  12  13
HETATM   13  C   UNL     1       4.237  29.073  55.067  1.00  0.00     0.248 C 
HETATM   14  N   UNL     1       3.524  30.238  55.026  1.00  0.00    -0.319 N 
HETATM   15  H   UNL     1       2.670  30.218  55.589  1.00  0.00     0.169 HD
HETATM   16  O   UNL     1       4.025  28.286  55.994  1.00  0.00    -0.271 OA
BRANCH  14  17
HETATM   17  C   UNL     1       3.878  31.508  54.591  1.00  0.00     0.094 A 
HETATM   18  C   UNL     1       4.396  32.537  55.373  1.00  0.00     0.080 A 
HETATM   19  C   UNL     1       4.771  33.670  54.544  1.00  0.00    -0.026 A 
HETATM   20  C   UNL     1       4.571  33.401  53.203  1.00  0.00    -0.008 A 
HETATM   21  C   UNL     1       5.393  34.969  54.991  1.00  0.00     0.041 C 
HETATM   22  S   UNL     1       3.892  31.878  52.938  1.00  0.00    -0.075 SA
HETATM   23  C   UNL     1       4.906  34.323  52.069  1.00  0.00     0.047 C 
HETATM   24  C   UNL     1       5.912  35.385  52.531  1.00  0.00     0.005 C 
HETATM   25  C   UNL     1       5.476  36.010  53.862  1.00  0.00     0.005 C 
BRANCH  18  26
HETATM   26  C   UNL     1       4.524  32.407  56.833  1.00  0.00     0.296 C 
HETATM   27  O   UNL     1       5.573  32.646  57.420  1.00  0.00    -0.259 OA
BRANCH  26  28
HETATM   28  O   UNL     1       3.381  31.996  57.446  1.00  0.00    -0.322 OA
HETATM   29  C   UNL     1       3.573  31.054  58.503  1.00  0.00     0.213 C 
ENDBRANCH  26  28
ENDBRANCH  18  26
ENDBRANCH  14  17
ENDBRANCH  12  13
ENDBRANCH   1  12
BRANCH   3  30
HETATM   30  C   UNL     1       7.711  27.769  55.286  1.00  0.00    -0.027 A 
HETATM   31  C   UNL     1       7.321  27.527  56.616  1.00  0.00     0.012 A 
HETATM   32  C   UNL     1       7.905  28.237  57.669  1.00  0.00     0.043 A 
HETATM   33  C   UNL     1       8.882  29.187  57.404  1.00  0.00     0.116 A 
HETATM   34  F   UNL     1       9.441  29.859  58.418  1.00  0.00    -0.206 F 
HETATM   35  C   UNL     1       9.287  29.446  56.104  1.00  0.00     0.043 A 
HETATM   36  C   UNL     1       8.706  28.739  55.048  1.00  0.00     0.012 A 
ENDBRANCH   3  30
BRANCH   5  37
HETATM   37  O   UNL     1       7.688  25.234  51.770  1.00  0.00    -0.389 OA
HETATM   38  H   UNL     1       7.480  24.681  50.991  1.00  0.00     0.210 HD
ENDBRANCH   5  37
TORSDOF 7
ENDMDL
MODEL 9
REMARK VINA RESULT:      -8.7      4.676      8.167
REMARK  7 active torsions:
REMARK  status: ('A' for Active; 'I' for Inactive)
REMARK    1  A    between atoms: O_2  and  C_3 
REMARK    2  A    between atoms: C_3  and  C_4 
REMARK    3  A    between atoms: C_5  and  N_6 
REMARK       I    between atoms: N_6  and  C_7 
REMARK    4  A    between atoms: C_7  and  C_8 
REMARK    5  A    between atoms: C_8  and  N_9 
REMARK    6  A    between atoms: C_11  and  C_12 
REMARK    7  A    between atoms: C_20  and  O_21 
ROOT
HETATM    1  N   UNL     1       5.416  27.043  53.707  1.00  0.00    -0.054 N 
HETATM    2  H   UNL     1       6.294  27.466  53.394  1.00  0.00     0.281 HD
HETATM    3  C   UNL     1       5.649  26.512  55.122  1.00  0.00     0.228 C 
HETATM    4  C   UNL     1       6.076  27.673  56.082  1.00  0.00     0.055 C 
HETATM    5  C   UNL     1       5.071  28.851  56.022  1.00  0.00     0.065 C 
HETATM    6  C   UNL     1       4.779  29.273  54.577  1.00  0.00     0.066 C 
HETATM    7  C   UNL     1       4.350  28.109  53.709  1.00  0.00     0.239 C 
HETATM    8  C   UNL     1       7.508  28.207  55.910  1.00  0.00     0.010 C 
HETATM    9  C   UNL     1       7.882  29.234  56.988  1.00  0.00     0.001 C 
HETATM   10  C   UNL     1       6.689  29.797  57.753  1.00  0.00     0.003 C 
HETATM   11  C   UNL     1       5.529  30.098  56.815  1.00  0.00     0.038 C 
ENDROOT
BRANCH   1  12
HETATM   12  C   UNL     1       5.072  25.964  52.644  1.00  0.00     0.338 C 
BRANCH  12  13
HETATM   13  C   UNL     1       5.961  25.905  51.393  1.00  0.00     0.248 C 
HETATM   14  N   UNL     1       5.766  26.767  50.351  1.00  0.00    -0.319 N 
HETATM   15  H   UNL     1       6.615  26.957  49.810  1.00  0.00     0.169 HD
HETATM   16  O   UNL     1       6.963  25.184  51.380  1.00  0.00    -0.271 OA
BRANCH  14  17
HETATM   17  C   UNL     1       4.602  27.208  49.738  1.00  0.00     0.094 A 
HETATM   18  C   UNL     1       4.159  28.525  49.654  1.00  0.00     0.080 A 
HETATM   19  C   UNL     1       2.971  28.612  48.821  1.00  0.00    -0.026 A 
HETATM   20  C   UNL     1       2.636  27.380  48.290  1.00  0.00    -0.008 A 
HETATM   21  C   UNL     1       2.196  29.853  48.452  1.00  0.00     0.041 C 
HETATM   22  S   UNL     1       3.658  26.144  48.819  1.00  0.00    -0.075 SA
HETATM   23  C   UNL     1       1.505  27.117  47.342  1.00  0.00     0.047 C 
HETATM   24  C   UNL     1       1.062  28.424  46.673  1.00  0.00     0.005 C 
HETATM   25  C   UNL     1       0.885  29.539  47.711  1.00  0.00     0.005 C 
BRANCH  18  26
HETATM   26  C   UNL     1       4.864  29.622  50.335  1.00  0.00     0.296 C 
HETATM   27  O   UNL     1       6.047  29.865  50.126  1.00  0.00    -0.259 OA
BRANCH  26  28
HETATM   28  O   UNL     1       4.081  30.317  51.204  1.00  0.00    -0.322 OA
HETATM   29  C   UNL     1       4.184  31.738  51.099  1.00  0.00     0.213 C 
ENDBRANCH  26  28
ENDBRANCH  18  26
ENDBRANCH  14  17
ENDBRANCH  12  13
ENDBRANCH   1  12
BRANCH   3  30
HETATM   30  C   UNL     1       6.596  25.321  55.220  1.00  0.00    -0.027 A 
HETATM   31  C   UNL     1       7.567  25.028  54.245  1.00  0.00     0.012 A 
HETATM   32  C   UNL     1       8.429  23.939  54.405  1.00  0.00     0.043 A 
HETATM   33  C   UNL     1       8.330  23.139  55.536  1.00  0.00     0.116 A 
HETATM   34  F   UNL     1       9.163  22.102  55.684  1.00  0.00    -0.206 F 
HETATM   35  C   UNL     1       7.383  23.404  56.512  1.00  0.00     0.043 A 
HETATM   36  C   UNL     1       6.520  24.492  56.357  1.00  0.00     0.012 A 
ENDBRANCH   3  30
BRANCH   5  37
HETATM   37  O   UNL     1       3.834  28.381  56.562  1.00  0.00    -0.389 OA
HETATM   38  H   UNL     1       3.888  28.387  57.539  1.00  0.00     0.210 HD
ENDBRANCH   5  37
TORSDOF 7
ENDMDL
MODEL 10
REMARK VINA RESULT:      -8.7      4.623      8.174
REMARK  7 active torsions:
REMARK  status: ('A' for Active; 'I' for Inactive)
REMARK    1  A    between atoms: O_2  and  C_3 
REMARK    2  A    between atoms: C_3  and  C_4 
REMARK    3  A    between atoms: C_5  and  N_6 
REMARK       I    between atoms: N_6  and  C_7 
REMARK    4  A    between atoms: C_7  and  C_8 
REMARK    5  A    between atoms: C_8  and  N_9 
REMARK    6  A    between atoms: C_11  and  C_12 
REMARK    7  A    between atoms: C_20  and  O_21 
ROOT
HETATM    1  N   UNL     1       5.796  27.061  53.087  1.00  0.00    -0.054 N 
HETATM    2  H   UNL     1       5.092  26.575  53.648  1.00  0.00     0.281 HD
HETATM    3  C   UNL     1       7.128  26.939  53.828  1.00  0.00     0.228 C 
HETATM    4  C   UNL     1       7.516  25.434  54.017  1.00  0.00     0.055 C 
HETATM    5  C   UNL     1       7.487  24.672  52.668  1.00  0.00     0.065 C 
HETATM    6  C   UNL     1       6.180  24.918  51.907  1.00  0.00     0.066 C 
HETATM    7  C   UNL     1       5.875  26.391  51.739  1.00  0.00     0.239 C 
HETATM    8  C   UNL     1       6.714  24.651  55.069  1.00  0.00     0.010 C 
HETATM    9  C   UNL     1       7.263  23.234  55.288  1.00  0.00     0.001 C 
HETATM   10  C   UNL     1       8.209  22.756  54.191  1.00  0.00     0.003 C 
HETATM   11  C   UNL     1       7.691  23.145  52.813  1.00  0.00     0.038 C 
ENDROOT
BRANCH   1  12
HETATM   12  C   UNL     1       5.264  28.511  52.919  1.00  0.00     0.338 C 
BRANCH  12  13
HETATM   13  C   UNL     1       3.742  28.689  52.802  1.00  0.00     0.248 C 
HETATM   14  N   UNL     1       3.137  28.776  51.580  1.00  0.00    -0.319 N 
HETATM   15  H   UNL     1       2.166  28.452  51.579  1.00  0.00     0.169 HD
HETATM   16  O   UNL     1       3.031  28.596  53.806  1.00  0.00    -0.271 OA
BRANCH  14  17
HETATM   17  C   UNL     1       3.500  29.462  50.430  1.00  0.00     0.094 A 
HETATM   18  C   UNL     1       3.298  29.044  49.117  1.00  0.00     0.080 A 
HETATM   19  C   UNL     1       3.685  30.087  48.183  1.00  0.00    -0.026 A 
HETATM   20  C   UNL     1       4.092  31.231  48.845  1.00  0.00    -0.008 A 
HETATM   21  C   UNL     1       3.600  30.050  46.677  1.00  0.00     0.041 C 
HETATM   22  S   UNL     1       4.081  31.051  50.523  1.00  0.00    -0.075 SA
HETATM   23  C   UNL     1       4.502  32.517  48.192  1.00  0.00     0.047 C 
HETATM   24  C   UNL     1       3.978  32.569  46.751  1.00  0.00     0.005 C 
HETATM   25  C   UNL     1       4.278  31.260  46.011  1.00  0.00     0.005 C 
BRANCH  18  26
HETATM   26  C   UNL     1       2.749  27.715  48.807  1.00  0.00     0.296 C 
HETATM   27  O   UNL     1       1.601  27.560  48.406  1.00  0.00    -0.259 OA
BRANCH  26  28
HETATM   28  O   UNL     1       3.630  26.699  49.015  1.00  0.00    -0.322 OA
HETATM   29  C   UNL     1       4.608  26.534  47.986  1.00  0.00     0.213 C 
ENDBRANCH  26  28
ENDBRANCH  18  26
ENDBRANCH  14  17
ENDBRANCH  12  13
ENDBRANCH   1  12
BRANCH   3  30
HETATM   30  C   UNL     1       7.215  27.713  55.139  1.00  0.00    -0.027 A 
HETATM   31  C   UNL     1       6.293  27.554  56.189  1.00  0.00     0.012 A 
HETATM   32  C   UNL     1       6.441  28.269  57.381  1.00  0.00     0.043 A 
HETATM   33  C   UNL     1       7.509  29.144  57.533  1.00  0.00     0.116 A 
HETATM   34  F   UNL     1       7.648  29.820  58.680  1.00  0.00    -0.206 F 
HETATM   35  C   UNL     1       8.433  29.320  56.516  1.00  0.00     0.043 A 
HETATM   36  C   UNL     1       8.289  28.607  55.323  1.00  0.00     0.012 A 
ENDBRANCH   3  30
BRANCH   5  37
HETATM   37  O   UNL     1       8.534  25.209  51.856  1.00  0.00    -0.389 OA
HETATM   38  H   UNL     1       8.257  25.183  50.918  1.00  0.00     0.210 HD
ENDBRANCH   5  37
TORSDOF 7
ENDMDL
