MODEL 1
REMARK VINA RESULT:      -7.8      0.000      0.000
REMARK  4 active torsions:
REMARK  status: ('A' for Active; 'I' for Inactive)
REMARK    1  A    between atoms: O_2  and  C_3 
REMARK    2  A    between atoms: C_4  and  O_5 
REMARK    3  A    between atoms: C_9  and  N_10 
REMARK    4  A    between atoms: N_10  and  C_11 
ROOT
HETATM    1  C   UNL     1       7.962  22.994  53.680  1.00  0.00     0.102 A 
HETATM    2  C   UNL     1       7.234  23.394  54.814  1.00  0.00     0.118 A 
HETATM    3  C   UNL     1       6.605  24.634  54.749  1.00  0.00     0.086 A 
HETATM    4  C   UNL     1       6.695  25.451  53.627  1.00  0.00     0.010 A 
HETATM    5  C   UNL     1       5.962  26.714  53.865  1.00  0.00     0.267 C 
HETATM    6  O   UNL     1       5.377  26.517  55.156  1.00  0.00    -0.287 OA
HETATM    7  C   UNL     1       5.821  25.363  55.745  1.00  0.00     0.299 C 
HETATM    8  O   UNL     1       5.570  25.094  56.899  1.00  0.00    -0.259 OA
HETATM    9  C   UNL     1       7.416  25.059  52.510  1.00  0.00     0.015 A 
HETATM   10  C   UNL     1       8.058  23.824  52.549  1.00  0.00     0.040 A 
ENDROOT
BRANCH   5  11
HETATM   11  N   UNL     1       6.868  27.849  53.904  1.00  0.00    -0.346 N 
HETATM   12  H   UNL     1       6.657  28.511  53.158  1.00  0.00     0.164 HD
BRANCH  11  13
HETATM   13  C   UNL     1       7.213  28.483  55.091  1.00  0.00     0.102 A 
HETATM   14  N   UNL     1       6.432  29.430  55.645  1.00  0.00    -0.351 N 
HETATM   15  H   UNL     1       5.578  29.689  55.146  1.00  0.00     0.166 HD
HETATM   16  C   UNL     1       6.680  30.009  56.828  1.00  0.00     0.109 A 
HETATM   17  C   UNL     1       7.785  29.619  57.568  1.00  0.00     0.026 A 
HETATM   18 BR   UNL     1       8.143  30.426  59.233  1.00  0.00    -0.050 Br
HETATM   19  C   UNL     1       8.607  28.618  57.076  1.00  0.00     0.024 A 
HETATM   20  C   UNL     1       8.311  28.037  55.841  1.00  0.00     0.050 A 
ENDBRANCH  11  13
ENDBRANCH   5  11
BRANCH   2  21
HETATM   21  O   UNL     1       7.320  22.619  55.933  1.00  0.00    -0.352 OA
HETATM   22  C   UNL     1       8.385  22.922  56.831  1.00  0.00     0.210 C 
ENDBRANCH   2  21
BRANCH   1  23
HETATM   23  O   UNL     1       8.683  21.830  53.594  1.00  0.00    -0.353 OA
HETATM   24  C   UNL     1       7.933  20.730  53.081  1.00  0.00     0.210 C 
ENDBRANCH   1  23
TORSDOF 4
ENDMDL
MODEL 2
REMARK VINA RESULT:      -7.8     10.790     13.834
REMARK  4 active torsions:
REMARK  status: ('A' for Active; 'I' for Inactive)
REMARK    1  A    between atoms: O_2  and  C_3 
REMARK    2  A    between atoms: C_4  and  O_5 
REMARK    3  A    between atoms: C_9  and  N_10 
REMARK    4  A    between atoms: N_10  and  C_11 
ROOT
HETATM    1  C   UNL     1       6.738  32.380  63.002  1.00  0.00     0.102 A 
HETATM    2  C   UNL     1       5.390  32.758  63.128  1.00  0.00     0.118 A 
HETATM    3  C   UNL     1       5.059  33.536  64.233  1.00  0.00     0.086 A 
HETATM    4  C   UNL     1       6.004  33.916  65.181  1.00  0.00     0.010 A 
HETATM    5  C   UNL     1       5.353  34.698  66.254  1.00  0.00     0.267 C 
HETATM    6  O   UNL     1       4.000  34.812  65.804  1.00  0.00    -0.287 OA
HETATM    7  C   UNL     1       3.769  34.055  64.687  1.00  0.00     0.299 C 
HETATM    8  O   UNL     1       2.655  33.889  64.242  1.00  0.00    -0.259 OA
HETATM    9  C   UNL     1       7.332  33.540  65.060  1.00  0.00     0.015 A 
HETATM   10  C   UNL     1       7.691  32.759  63.964  1.00  0.00     0.040 A 
ENDROOT
BRANCH   5  11
HETATM   11  N   UNL     1       5.391  33.987  67.521  1.00  0.00    -0.346 N 
HETATM   12  H   UNL     1       5.544  32.989  67.375  1.00  0.00     0.164 HD
BRANCH  11  13
HETATM   13  C   UNL     1       6.082  34.472  68.624  1.00  0.00     0.102 A 
HETATM   14  N   UNL     1       5.477  34.673  69.810  1.00  0.00    -0.351 N 
HETATM   15  H   UNL     1       4.475  34.478  69.869  1.00  0.00     0.166 HD
HETATM   16  C   UNL     1       6.118  35.059  70.923  1.00  0.00     0.109 A 
HETATM   17  C   UNL     1       7.491  35.251  70.896  1.00  0.00     0.026 A 
HETATM   18 BR   UNL     1       8.402  35.792  72.454  1.00  0.00    -0.050 Br
HETATM   19  C   UNL     1       8.182  35.018  69.717  1.00  0.00     0.024 A 
HETATM   20  C   UNL     1       7.477  34.612  68.582  1.00  0.00     0.050 A 
ENDBRANCH  11  13
ENDBRANCH   5  11
BRANCH   2  21
HETATM   21  O   UNL     1       4.493  32.219  62.254  1.00  0.00    -0.352 OA
HETATM   22  C   UNL     1       4.160  33.013  61.119  1.00  0.00     0.210 C 
ENDBRANCH   2  21
BRANCH   1  23
HETATM   23  O   UNL     1       7.226  31.574  62.006  1.00  0.00    -0.353 OA
HETATM   24  C   UNL     1       8.453  30.927  62.342  1.00  0.00     0.210 C 
ENDBRANCH   1  23
TORSDOF 4
ENDMDL
MODEL 3
REMARK VINA RESULT:      -7.5      3.495      7.063
REMARK  4 active torsions:
REMARK  status: ('A' for Active; 'I' for Inactive)
REMARK    1  A    between atoms: O_2  and  C_3 
REMARK    2  A    between atoms: C_4  and  O_5 
REMARK    3  A    between atoms: C_9  and  N_10 
REMARK    4  A    between atoms: N_10  and  C_11 
ROOT
HETATM    1  C   UNL     1       7.534  30.332  58.012  1.00  0.00     0.102 A 
HETATM    2  C   UNL     1       6.261  30.075  57.472  1.00  0.00     0.118 A 
HETATM    3  C   UNL     1       6.048  28.803  56.950  1.00  0.00     0.086 A 
HETATM    4  C   UNL     1       7.040  27.829  56.946  1.00  0.00     0.010 A 
HETATM    5  C   UNL     1       6.537  26.600  56.294  1.00  0.00     0.267 C 
HETATM    6  O   UNL     1       5.169  26.914  56.014  1.00  0.00    -0.287 OA
HETATM    7  C   UNL     1       4.882  28.226  56.283  1.00  0.00     0.299 C 
HETATM    8  O   UNL     1       3.827  28.729  55.967  1.00  0.00    -0.259 OA
HETATM    9  C   UNL     1       8.296  28.082  57.474  1.00  0.00     0.015 A 
HETATM   10  C   UNL     1       8.538  29.348  58.002  1.00  0.00     0.040 A 
ENDROOT
BRANCH   5  11
HETATM   11  N   UNL     1       7.244  26.336  55.052  1.00  0.00    -0.346 N 
HETATM   12  H   UNL     1       8.051  26.951  54.953  1.00  0.00     0.164 HD
BRANCH  11  13
HETATM   13  C   UNL     1       7.505  25.045  54.607  1.00  0.00     0.102 A 
HETATM   14  N   UNL     1       7.327  23.970  55.398  1.00  0.00    -0.351 N 
HETATM   15  H   UNL     1       7.013  24.136  56.357  1.00  0.00     0.166 HD
HETATM   16  C   UNL     1       7.486  22.703  54.989  1.00  0.00     0.109 A 
HETATM   17  C   UNL     1       7.830  22.443  53.672  1.00  0.00     0.026 A 
HETATM   18 BR   UNL     1       8.054  20.667  53.085  1.00  0.00    -0.050 Br
HETATM   19  C   UNL     1       7.986  23.503  52.793  1.00  0.00     0.024 A 
HETATM   20  C   UNL     1       7.807  24.808  53.258  1.00  0.00     0.050 A 
ENDBRANCH  11  13
ENDBRANCH   5  11
BRANCH   2  21
HETATM   21  O   UNL     1       5.393  31.121  57.364  1.00  0.00    -0.352 OA
HETATM   22  C   UNL     1       4.424  31.248  58.401  1.00  0.00     0.210 C 
ENDBRANCH   2  21
BRANCH   1  23
HETATM   23  O   UNL     1       7.929  31.543  58.519  1.00  0.00    -0.353 OA
HETATM   24  C   UNL     1       9.311  31.592  58.870  1.00  0.00     0.210 C 
ENDBRANCH   1  23
TORSDOF 4
ENDMDL
MODEL 4
REMARK VINA RESULT:      -7.4      3.701      4.753
REMARK  4 active torsions:
REMARK  status: ('A' for Active; 'I' for Inactive)
REMARK    1  A    between atoms: O_2  and  C_3 
REMARK    2  A    between atoms: C_4  and  O_5 
REMARK    3  A    between atoms: C_9  and  N_10 
REMARK    4  A    between atoms: N_10  and  C_11 
ROOT
HETATM    1  C   UNL     1       8.520  22.512  54.905  1.00  0.00     0.102 A 
HETATM    2  C   UNL     1       7.660  23.405  55.568  1.00  0.00     0.118 A 
HETATM    3  C   UNL     1       6.784  24.137  54.773  1.00  0.00     0.086 A 
HETATM    4  C   UNL     1       6.760  24.010  53.388  1.00  0.00     0.010 A 
HETATM    5  C   UNL     1       5.761  24.939  52.815  1.00  0.00     0.267 C 
HETATM    6  O   UNL     1       5.160  25.529  53.971  1.00  0.00    -0.287 OA
HETATM    7  C   UNL     1       5.806  25.167  55.123  1.00  0.00     0.299 C 
HETATM    8  O   UNL     1       5.554  25.681  56.190  1.00  0.00    -0.259 OA
HETATM    9  C   UNL     1       7.611  23.134  52.733  1.00  0.00     0.015 A 
HETATM   10  C   UNL     1       8.500  22.389  53.505  1.00  0.00     0.040 A 
ENDROOT
BRANCH   5  11
HETATM   11  N   UNL     1       6.399  25.969  52.013  1.00  0.00    -0.346 N 
HETATM   12  H   UNL     1       7.269  25.627  51.604  1.00  0.00     0.164 HD
BRANCH  11  13
HETATM   13  C   UNL     1       5.684  26.776  51.136  1.00  0.00     0.102 A 
HETATM   14  N   UNL     1       5.159  26.294  49.994  1.00  0.00    -0.351 N 
HETATM   15  H   UNL     1       5.323  25.309  49.776  1.00  0.00     0.166 HD
HETATM   16  C   UNL     1       4.393  27.011  49.159  1.00  0.00     0.109 A 
HETATM   17  C   UNL     1       4.082  28.326  49.469  1.00  0.00     0.026 A 
HETATM   18 BR   UNL     1       3.006  29.344  48.304  1.00  0.00    -0.050 Br
HETATM   19  C   UNL     1       4.555  28.872  50.652  1.00  0.00     0.024 A 
HETATM   20  C   UNL     1       5.346  28.088  51.496  1.00  0.00     0.050 A 
ENDBRANCH  11  13
ENDBRANCH   5  11
BRANCH   2  21
HETATM   21  O   UNL     1       7.847  23.595  56.905  1.00  0.00    -0.352 OA
HETATM   22  C   UNL     1       8.764  24.621  57.276  1.00  0.00     0.210 C 
ENDBRANCH   2  21
BRANCH   1  23
HETATM   23  O   UNL     1       9.478  21.753  55.528  1.00  0.00    -0.353 OA
HETATM   24  C   UNL     1       9.038  20.438  55.863  1.00  0.00     0.210 C 
ENDBRANCH   1  23
TORSDOF 4
ENDMDL
MODEL 5
REMARK VINA RESULT:      -7.4      1.523      2.084
REMARK  4 active torsions:
REMARK  status: ('A' for Active; 'I' for Inactive)
REMARK    1  A    between atoms: O_2  and  C_3 
REMARK    2  A    between atoms: C_4  and  O_5 
REMARK    3  A    between atoms: C_9  and  N_10 
REMARK    4  A    between atoms: N_10  and  C_11 
ROOT
HETATM    1  C   UNL     1       7.741  22.910  53.681  1.00  0.00     0.102 A 
HETATM    2  C   UNL     1       8.265  23.089  54.973  1.00  0.00     0.118 A 
HETATM    3  C   UNL     1       7.721  24.122  55.731  1.00  0.00     0.086 A 
HETATM    4  C   UNL     1       6.718  24.951  55.241  1.00  0.00     0.010 A 
HETATM    5  C   UNL     1       6.372  25.974  56.251  1.00  0.00     0.267 C 
HETATM    6  O   UNL     1       7.180  25.612  57.375  1.00  0.00    -0.287 OA
HETATM    7  C   UNL     1       8.058  24.606  57.069  1.00  0.00     0.299 C 
HETATM    8  O   UNL     1       8.933  24.264  57.832  1.00  0.00    -0.259 OA
HETATM    9  C   UNL     1       6.204  24.777  53.965  1.00  0.00     0.015 A 
HETATM   10  C   UNL     1       6.731  23.752  53.184  1.00  0.00     0.040 A 
ENDROOT
BRANCH   5  11
HETATM   11  N   UNL     1       6.733  27.306  55.796  1.00  0.00    -0.346 N 
HETATM   12  H   UNL     1       5.983  27.718  55.241  1.00  0.00     0.164 HD
BRANCH  11  13
HETATM   13  C   UNL     1       7.345  28.235  56.628  1.00  0.00     0.102 A 
HETATM   14  N   UNL     1       8.685  28.330  56.723  1.00  0.00    -0.351 N 
HETATM   15  H   UNL     1       9.246  27.675  56.175  1.00  0.00     0.166 HD
HETATM   16  C   UNL     1       9.321  29.263  57.447  1.00  0.00     0.109 A 
HETATM   17  C   UNL     1       8.590  30.218  58.135  1.00  0.00     0.026 A 
HETATM   18 BR   UNL     1       9.472  31.533  59.155  1.00  0.00    -0.050 Br
HETATM   19  C   UNL     1       7.207  30.203  58.045  1.00  0.00     0.024 A 
HETATM   20  C   UNL     1       6.583  29.218  57.276  1.00  0.00     0.050 A 
ENDBRANCH  11  13
ENDBRANCH   5  11
BRANCH   2  21
HETATM   21  O   UNL     1       9.353  22.348  55.327  1.00  0.00    -0.352 OA
HETATM   22  C   UNL     1       9.095  21.171  56.089  1.00  0.00     0.210 C 
ENDBRANCH   2  21
BRANCH   1  23
HETATM   23  O   UNL     1       8.195  21.977  52.784  1.00  0.00    -0.353 OA
HETATM   24  C   UNL     1       7.664  20.671  52.999  1.00  0.00     0.210 C 
ENDBRANCH   1  23
TORSDOF 4
ENDMDL
MODEL 6
REMARK VINA RESULT:      -7.4      4.535      7.101
REMARK  4 active torsions:
REMARK  status: ('A' for Active; 'I' for Inactive)
REMARK    1  A    between atoms: O_2  and  C_3 
REMARK    2  A    between atoms: C_4  and  O_5 
REMARK    3  A    between atoms: C_9  and  N_10 
REMARK    4  A    between atoms: N_10  and  C_11 
ROOT
HETATM    1  C   UNL     1       5.875  28.323  56.721  1.00  0.00     0.102 A 
HETATM    2  C   UNL     1       5.395  29.613  57.007  1.00  0.00     0.118 A 
HETATM    3  C   UNL     1       6.199  30.417  57.810  1.00  0.00     0.086 A 
HETATM    4  C   UNL     1       7.414  29.972  58.321  1.00  0.00     0.010 A 
HETATM    5  C   UNL     1       8.020  31.025  59.165  1.00  0.00     0.267 C 
HETATM    6  O   UNL     1       7.113  32.123  59.023  1.00  0.00    -0.287 OA
HETATM    7  C   UNL     1       5.987  31.767  58.330  1.00  0.00     0.299 C 
HETATM    8  O   UNL     1       5.030  32.504  58.238  1.00  0.00    -0.259 OA
HETATM    9  C   UNL     1       7.886  28.699  58.043  1.00  0.00     0.015 A 
HETATM   10  C   UNL     1       7.100  27.873  57.243  1.00  0.00     0.040 A 
ENDROOT
BRANCH   5  11
HETATM   11  N   UNL     1       8.079  30.613  60.557  1.00  0.00    -0.346 N 
HETATM   12  H   UNL     1       8.983  30.195  60.777  1.00  0.00     0.164 HD
BRANCH  11  13
HETATM   13  C   UNL     1       7.602  31.413  61.589  1.00  0.00     0.102 A 
HETATM   14  N   UNL     1       6.286  31.528  61.850  1.00  0.00    -0.351 N 
HETATM   15  H   UNL     1       5.638  31.021  61.243  1.00  0.00     0.166 HD
HETATM   16  C   UNL     1       5.783  32.220  62.883  1.00  0.00     0.109 A 
HETATM   17  C   UNL     1       6.640  32.849  63.772  1.00  0.00     0.026 A 
HETATM   18 BR   UNL     1       5.946  33.824  65.227  1.00  0.00    -0.050 Br
HETATM   19  C   UNL     1       8.009  32.735  63.586  1.00  0.00     0.024 A 
HETATM   20  C   UNL     1       8.491  32.001  62.500  1.00  0.00     0.050 A 
ENDBRANCH  11  13
ENDBRANCH   5  11
BRANCH   2  21
HETATM   21  O   UNL     1       4.129  29.924  56.609  1.00  0.00    -0.352 OA
HETATM   22  C   UNL     1       4.008  30.616  55.369  1.00  0.00     0.210 C 
ENDBRANCH   2  21
BRANCH   1  23
HETATM   23  O   UNL     1       5.189  27.386  55.992  1.00  0.00    -0.353 OA
HETATM   24  C   UNL     1       5.969  26.239  55.658  1.00  0.00     0.210 C 
ENDBRANCH   1  23
TORSDOF 4
ENDMDL
MODEL 7
REMARK VINA RESULT:      -7.2      6.099      8.884
REMARK  4 active torsions:
REMARK  status: ('A' for Active; 'I' for Inactive)
REMARK    1  A    between atoms: O_2  and  C_3 
REMARK    2  A    between atoms: C_4  and  O_5 
REMARK    3  A    between atoms: C_9  and  N_10 
REMARK    4  A    between atoms: N_10  and  C_11 
ROOT
HETATM    1  C   UNL     1       8.795  30.184  58.070  1.00  0.00     0.102 A 
HETATM    2  C   UNL     1       7.463  30.633  58.018  1.00  0.00     0.118 A 
HETATM    3  C   UNL     1       7.049  31.481  59.041  1.00  0.00     0.086 A 
HETATM    4  C   UNL     1       7.896  31.861  60.076  1.00  0.00     0.010 A 
HETATM    5  C   UNL     1       7.169  32.727  61.030  1.00  0.00     0.267 C 
HETATM    6  O   UNL     1       5.885  32.884  60.418  1.00  0.00    -0.287 OA
HETATM    7  C   UNL     1       5.744  32.083  59.316  1.00  0.00     0.299 C 
HETATM    8  O   UNL     1       4.682  31.950  58.750  1.00  0.00    -0.259 OA
HETATM    9  C   UNL     1       9.207  31.416  60.130  1.00  0.00     0.015 A 
HETATM   10  C   UNL     1       9.649  30.565  59.120  1.00  0.00     0.040 A 
ENDROOT
BRANCH   5  11
HETATM   11  N   UNL     1       7.021  32.079  62.322  1.00  0.00    -0.346 N 
HETATM   12  H   UNL     1       7.818  31.473  62.520  1.00  0.00     0.164 HD
BRANCH  11  13
HETATM   13  C   UNL     1       6.584  32.763  63.450  1.00  0.00     0.102 A 
HETATM   14  N   UNL     1       5.275  32.926  63.719  1.00  0.00    -0.351 N 
HETATM   15  H   UNL     1       4.603  32.547  63.048  1.00  0.00     0.166 HD
HETATM   16  C   UNL     1       4.805  33.504  64.834  1.00  0.00     0.109 A 
HETATM   17  C   UNL     1       5.690  33.953  65.803  1.00  0.00     0.026 A 
HETATM   18 BR   UNL     1       5.042  34.766  67.374  1.00  0.00    -0.050 Br
HETATM   19  C   UNL     1       7.051  33.777  65.608  1.00  0.00     0.024 A 
HETATM   20  C   UNL     1       7.498  33.165  64.434  1.00  0.00     0.050 A 
ENDBRANCH  11  13
ENDBRANCH   5  11
BRANCH   2  21
HETATM   21  O   UNL     1       6.646  30.095  57.069  1.00  0.00    -0.352 OA
HETATM   22  C   UNL     1       6.033  28.850  57.395  1.00  0.00     0.210 C 
ENDBRANCH   2  21
BRANCH   1  23
HETATM   23  O   UNL     1       9.351  29.307  57.174  1.00  0.00    -0.353 OA
HETATM   24  C   UNL     1      10.592  29.753  56.632  1.00  0.00     0.210 C 
ENDBRANCH   1  23
TORSDOF 4
ENDMDL
MODEL 8
REMARK VINA RESULT:      -7.0      3.816      7.294
REMARK  4 active torsions:
REMARK  status: ('A' for Active; 'I' for Inactive)
REMARK    1  A    between atoms: O_2  and  C_3 
REMARK    2  A    between atoms: C_4  and  O_5 
REMARK    3  A    between atoms: C_9  and  N_10 
REMARK    4  A    between atoms: N_10  and  C_11 
ROOT
HETATM    1  C   UNL     1       8.822  31.312  58.725  1.00  0.00     0.102 A 
HETATM    2  C   UNL     1       7.525  30.799  58.550  1.00  0.00     0.118 A 
HETATM    3  C   UNL     1       7.396  29.693  57.716  1.00  0.00     0.086 A 
HETATM    4  C   UNL     1       8.488  29.121  57.072  1.00  0.00     0.010 A 
HETATM    5  C   UNL     1       8.040  27.993  56.226  1.00  0.00     0.267 C 
HETATM    6  O   UNL     1       6.639  27.909  56.507  1.00  0.00    -0.287 OA
HETATM    7  C   UNL     1       6.211  28.952  57.285  1.00  0.00     0.299 C 
HETATM    8  O   UNL     1       5.037  29.151  57.502  1.00  0.00    -0.259 OA
HETATM    9  C   UNL     1       9.767  29.628  57.241  1.00  0.00     0.015 A 
HETATM   10  C   UNL     1       9.924  30.737  58.069  1.00  0.00     0.040 A 
ENDROOT
BRANCH   5  11
HETATM   11  N   UNL     1       8.242  28.279  54.816  1.00  0.00    -0.346 N 
HETATM   12  H   UNL     1       9.228  28.206  54.566  1.00  0.00     0.164 HD
BRANCH  11  13
HETATM   13  C   UNL     1       7.407  27.771  53.829  1.00  0.00     0.102 A 
HETATM   14  N   UNL     1       6.502  28.542  53.196  1.00  0.00    -0.351 N 
HETATM   15  H   UNL     1       6.430  29.520  53.484  1.00  0.00     0.166 HD
HETATM   16  C   UNL     1       5.734  28.118  52.182  1.00  0.00     0.109 A 
HETATM   17  C   UNL     1       5.867  26.821  51.712  1.00  0.00     0.026 A 
HETATM   18 BR   UNL     1       4.794  26.215  50.287  1.00  0.00    -0.050 Br
HETATM   19  C   UNL     1       6.811  25.987  52.291  1.00  0.00     0.024 A 
HETATM   20  C   UNL     1       7.595  26.469  53.342  1.00  0.00     0.050 A 
ENDBRANCH  11  13
ENDBRANCH   5  11
BRANCH   2  21
HETATM   21  O   UNL     1       6.485  31.504  59.080  1.00  0.00    -0.352 OA
HETATM   22  C   UNL     1       5.850  32.443  58.216  1.00  0.00     0.210 C 
ENDBRANCH   2  21
BRANCH   1  23
HETATM   23  O   UNL     1       9.120  32.425  59.469  1.00  0.00    -0.353 OA
HETATM   24  C   UNL     1       9.511  32.129  60.809  1.00  0.00     0.210 C 
ENDBRANCH   1  23
TORSDOF 4
ENDMDL
MODEL 9
REMARK VINA RESULT:      -6.8      5.590      7.633
REMARK  4 active torsions:
REMARK  status: ('A' for Active; 'I' for Inactive)
REMARK    1  A    between atoms: O_2  and  C_3 
REMARK    2  A    between atoms: C_4  and  O_5 
REMARK    3  A    between atoms: C_9  and  N_10 
REMARK    4  A    between atoms: N_10  and  C_11 
ROOT
HETATM    1  C   UNL     1       2.383  27.904  47.514  1.00  0.00     0.102 A 
HETATM    2  C   UNL     1       3.176  28.711  48.347  1.00  0.00     0.118 A 
HETATM    3  C   UNL     1       4.075  28.055  49.183  1.00  0.00     0.086 A 
HETATM    4  C   UNL     1       4.184  26.669  49.210  1.00  0.00     0.010 A 
HETATM    5  C   UNL     1       5.188  26.263  50.218  1.00  0.00     0.267 C 
HETATM    6  O   UNL     1       5.702  27.512  50.691  1.00  0.00    -0.287 OA
HETATM    7  C   UNL     1       5.000  28.575  50.190  1.00  0.00     0.299 C 
HETATM    8  O   UNL     1       5.174  29.705  50.588  1.00  0.00    -0.259 OA
HETATM    9  C   UNL     1       3.399  25.872  48.392  1.00  0.00     0.015 A 
HETATM   10  C   UNL     1       2.489  26.502  47.547  1.00  0.00     0.040 A 
ENDROOT
BRANCH   5  11
HETATM   11  N   UNL     1       4.568  25.540  51.315  1.00  0.00    -0.346 N 
HETATM   12  H   UNL     1       4.204  24.641  51.001  1.00  0.00     0.164 HD
BRANCH  11  13
HETATM   13  C   UNL     1       5.149  25.463  52.575  1.00  0.00     0.102 A 
HETATM   14  N   UNL     1       4.812  26.310  53.567  1.00  0.00    -0.351 N 
HETATM   15  H   UNL     1       4.123  27.035  53.356  1.00  0.00     0.166 HD
HETATM   16  C   UNL     1       5.282  26.223  54.820  1.00  0.00     0.109 A 
HETATM   17  C   UNL     1       6.152  25.199  55.159  1.00  0.00     0.026 A 
HETATM   18 BR   UNL     1       6.819  25.067  56.916  1.00  0.00    -0.050 Br
HETATM   19  C   UNL     1       6.507  24.267  54.197  1.00  0.00     0.024 A 
HETATM   20  C   UNL     1       5.991  24.391  52.905  1.00  0.00     0.050 A 
ENDBRANCH  11  13
ENDBRANCH   5  11
BRANCH   2  21
HETATM   21  O   UNL     1       2.905  30.047  48.385  1.00  0.00    -0.352 OA
HETATM   22  C   UNL     1       3.702  30.878  47.545  1.00  0.00     0.210 C 
ENDBRANCH   2  21
BRANCH   1  23
HETATM   23  O   UNL     1       1.412  28.380  46.670  1.00  0.00    -0.353 OA
HETATM   24  C   UNL     1       0.350  27.456  46.441  1.00  0.00     0.210 C 
ENDBRANCH   1  23
TORSDOF 4
ENDMDL
MODEL 10
REMARK VINA RESULT:      -6.7      4.064      7.391
REMARK  4 active torsions:
REMARK  status: ('A' for Active; 'I' for Inactive)
REMARK    1  A    between atoms: O_2  and  C_3 
REMARK    2  A    between atoms: C_4  and  O_5 
REMARK    3  A    between atoms: C_9  and  N_10 
REMARK    4  A    between atoms: N_10  and  C_11 
ROOT
HETATM    1  C   UNL     1       7.445  31.219  58.517  1.00  0.00     0.102 A 
HETATM    2  C   UNL     1       6.124  31.622  58.253  1.00  0.00     0.118 A 
HETATM    3  C   UNL     1       5.307  30.702  57.602  1.00  0.00     0.086 A 
HETATM    4  C   UNL     1       5.768  29.449  57.214  1.00  0.00     0.010 A 
HETATM    5  C   UNL     1       4.693  28.713  56.513  1.00  0.00     0.267 C 
HETATM    6  O   UNL     1       3.572  29.597  56.611  1.00  0.00    -0.287 OA
HETATM    7  C   UNL     1       3.923  30.809  57.142  1.00  0.00     0.299 C 
HETATM    8  O   UNL     1       3.158  31.747  57.163  1.00  0.00    -0.259 OA
HETATM    9  C   UNL     1       7.071  29.053  57.470  1.00  0.00     0.015 A 
HETATM   10  C   UNL     1       7.911  29.954  58.119  1.00  0.00     0.040 A 
ENDROOT
BRANCH   5  11
HETATM   11  N   UNL     1       5.028  28.498  55.116  1.00  0.00    -0.346 N 
HETATM   12  H   UNL     1       5.398  29.350  54.693  1.00  0.00     0.164 HD
BRANCH  11  13
HETATM   13  C   UNL     1       5.693  27.359  54.678  1.00  0.00     0.102 A 
HETATM   14  N   UNL     1       5.119  26.142  54.714  1.00  0.00    -0.351 N 
HETATM   15  H   UNL     1       4.175  26.076  55.100  1.00  0.00     0.166 HD
HETATM   16  C   UNL     1       5.688  25.029  54.228  1.00  0.00     0.109 A 
HETATM   17  C   UNL     1       6.933  25.101  53.623  1.00  0.00     0.026 A 
HETATM   18 BR   UNL     1       7.743  23.544  52.936  1.00  0.00    -0.050 Br
HETATM   19  C   UNL     1       7.561  26.331  53.514  1.00  0.00     0.024 A 
HETATM   20  C   UNL     1       6.932  27.467  54.029  1.00  0.00     0.050 A 
ENDBRANCH  11  13
ENDBRANCH   5  11
BRANCH   2  21
HETATM   21  O   UNL     1       5.789  32.917  58.515  1.00  0.00    -0.352 OA
HETATM   22  C   UNL     1       5.140  33.164  59.759  1.00  0.00     0.210 C 
ENDBRANCH   2  21
BRANCH   1  23
HETATM   23  O   UNL     1       8.395  32.017  59.101  1.00  0.00    -0.353 OA
HETATM   24  C   UNL     1       9.734  31.605  58.829  1.00  0.00     0.210 C 
ENDBRANCH   1  23
TORSDOF 4
ENDMDL
