MODEL 1
REMARK VINA RESULT:     -10.0      0.000      0.000
REMARK  2 active torsions:
REMARK  status: ('A' for Active; 'I' for Inactive)
REMARK    1  A    between atoms: C_11  and  N_12 
REMARK    2  A    between atoms: N_12  and  C_13 
ROOT
HETATM    1  C   UNL     1       8.789  20.463  56.059  1.00  0.00     0.010 C 
HETATM    2  C   UNL     1       8.715  21.955  55.742  1.00  0.00    -0.014 C 
HETATM    3  C   UNL     1       7.679  22.222  54.632  1.00  0.00     0.051 C 
HETATM    4  C   UNL     1       7.427  23.694  54.497  1.00  0.00    -0.008 A 
HETATM    5  C   UNL     1       7.741  24.661  55.437  1.00  0.00    -0.028 A 
HETATM    6  C   UNL     1       7.400  25.997  54.968  1.00  0.00     0.053 A 
HETATM    7  C   UNL     1       6.783  25.920  53.723  1.00  0.00     0.114 A 
HETATM    8  N   UNL     1       6.309  26.939  52.991  1.00  0.00    -0.234 NA
HETATM    9  C   UNL     1       6.491  28.115  53.582  1.00  0.00     0.236 A 
HETATM   10  N   UNL     1       7.082  28.346  54.761  1.00  0.00    -0.223 NA
HETATM   11  C   UNL     1       7.567  27.310  55.490  1.00  0.00     0.143 A 
HETATM   12  S   UNL     1       6.665  24.331  53.124  1.00  0.00    -0.073 SA
HETATM   13  C   UNL     1       8.398  24.283  56.736  1.00  0.00     0.041 C 
HETATM   14  C   UNL     1       8.370  22.769  57.004  1.00  0.00     0.009 C 
ENDROOT
BRANCH  11  15
HETATM   15  N   UNL     1       8.196  27.554  56.721  1.00  0.00    -0.340 N 
HETATM   16  H   UNL     1       8.394  26.720  57.247  1.00  0.00     0.167 HD
BRANCH  15  17
HETATM   17  C   UNL     1       8.744  28.714  57.301  1.00  0.00     0.036 A 
HETATM   18  C   UNL     1       8.009  29.357  58.314  1.00  0.00     0.069 A 
HETATM   19  C   UNL     1       8.516  30.510  58.881  1.00  0.00     0.107 A 
HETATM   20  C   UNL     1       9.711  31.049  58.478  1.00  0.00     0.105 A 
HETATM   21  O   UNL     1       7.927  31.234  59.871  1.00  0.00    -0.323 OA
HETATM   22  O   UNL     1      10.031  32.179  59.162  1.00  0.00    -0.323 OA
HETATM   23  C   UNL     1      10.458  30.467  57.482  1.00  0.00     0.042 A 
HETATM   24  C   UNL     1       8.895  32.291  60.044  1.00  0.00     0.352 A 
HETATM   25  C   UNL     1       9.962  29.296  56.890  1.00  0.00     0.032 A 
ENDBRANCH  15  17
ENDBRANCH  11  15
TORSDOF 2
ENDMDL
MODEL 2
REMARK VINA RESULT:     -10.0      3.770      6.008
REMARK  2 active torsions:
REMARK  status: ('A' for Active; 'I' for Inactive)
REMARK    1  A    between atoms: C_11  and  N_12 
REMARK    2  A    between atoms: N_12  and  C_13 
ROOT
HETATM    1  C   UNL     1       8.820  20.400  53.291  1.00  0.00     0.010 C 
HETATM    2  C   UNL     1       8.104  21.566  53.968  1.00  0.00    -0.014 C 
HETATM    3  C   UNL     1       9.023  22.234  55.010  1.00  0.00     0.051 C 
HETATM    4  C   UNL     1       8.419  23.519  55.491  1.00  0.00    -0.008 A 
HETATM    5  C   UNL     1       7.411  24.229  54.860  1.00  0.00    -0.028 A 
HETATM    6  C   UNL     1       7.030  25.411  55.620  1.00  0.00     0.053 A 
HETATM    7  C   UNL     1       7.842  25.537  56.743  1.00  0.00     0.114 A 
HETATM    8  N   UNL     1       7.804  26.512  57.664  1.00  0.00    -0.234 NA
HETATM    9  C   UNL     1       6.861  27.412  57.410  1.00  0.00     0.236 A 
HETATM   10  N   UNL     1       5.996  27.413  56.388  1.00  0.00    -0.223 NA
HETATM   11  C   UNL     1       6.035  26.418  55.467  1.00  0.00     0.143 A 
HETATM   12  S   UNL     1       8.971  24.273  56.906  1.00  0.00    -0.073 SA
HETATM   13  C   UNL     1       6.813  23.731  53.574  1.00  0.00     0.041 C 
HETATM   14  C   UNL     1       7.633  22.601  52.929  1.00  0.00     0.009 C 
ENDROOT
BRANCH  11  15
HETATM   15  N   UNL     1       5.122  26.414  54.401  1.00  0.00    -0.340 N 
HETATM   16  H   UNL     1       4.184  26.176  54.671  1.00  0.00     0.167 HD
BRANCH  15  17
HETATM   17  C   UNL     1       5.221  26.825  53.057  1.00  0.00     0.036 A 
HETATM   18  C   UNL     1       5.507  28.179  52.800  1.00  0.00     0.069 A 
HETATM   19  C   UNL     1       5.585  28.611  51.490  1.00  0.00     0.107 A 
HETATM   20  C   UNL     1       5.384  27.758  50.435  1.00  0.00     0.105 A 
HETATM   21  O   UNL     1       5.861  29.880  51.088  1.00  0.00    -0.323 OA
HETATM   22  O   UNL     1       5.509  28.378  49.232  1.00  0.00    -0.323 OA
HETATM   23  C   UNL     1       5.087  26.430  50.635  1.00  0.00     0.042 A 
HETATM   24  C   UNL     1       5.810  29.724  49.653  1.00  0.00     0.352 A 
HETATM   25  C   UNL     1       5.000  25.971  51.956  1.00  0.00     0.032 A 
ENDBRANCH  15  17
ENDBRANCH  11  15
TORSDOF 2
ENDMDL
MODEL 3
REMARK VINA RESULT:      -9.6      5.521      7.817
REMARK  2 active torsions:
REMARK  status: ('A' for Active; 'I' for Inactive)
REMARK    1  A    between atoms: C_11  and  N_12 
REMARK    2  A    between atoms: N_12  and  C_13 
ROOT
HETATM    1  C   UNL     1       8.417  21.598  53.520  1.00  0.00     0.010 C 
HETATM    2  C   UNL     1       7.547  22.845  53.382  1.00  0.00    -0.014 C 
HETATM    3  C   UNL     1       7.196  23.418  54.770  1.00  0.00     0.051 C 
HETATM    4  C   UNL     1       6.559  24.768  54.632  1.00  0.00    -0.008 A 
HETATM    5  C   UNL     1       6.611  25.579  53.511  1.00  0.00    -0.028 A 
HETATM    6  C   UNL     1       5.848  26.806  53.700  1.00  0.00     0.053 A 
HETATM    7  C   UNL     1       5.335  26.852  54.993  1.00  0.00     0.114 A 
HETATM    8  N   UNL     1       4.604  27.835  55.538  1.00  0.00    -0.234 NA
HETATM    9  C   UNL     1       4.384  28.833  54.689  1.00  0.00     0.236 A 
HETATM   10  N   UNL     1       4.792  28.919  53.417  1.00  0.00    -0.223 NA
HETATM   11  C   UNL     1       5.523  27.916  52.871  1.00  0.00     0.143 A 
HETATM   12  S   UNL     1       5.706  25.471  55.916  1.00  0.00    -0.073 SA
HETATM   13  C   UNL     1       7.350  25.137  52.278  1.00  0.00     0.041 C 
HETATM   14  C   UNL     1       8.250  23.915  52.524  1.00  0.00     0.009 C 
ENDROOT
BRANCH  11  15
HETATM   15  N   UNL     1       5.944  28.002  51.534  1.00  0.00    -0.340 N 
HETATM   16  H   UNL     1       6.928  28.180  51.430  1.00  0.00     0.167 HD
BRANCH  15  17
HETATM   17  C   UNL     1       5.298  27.738  50.311  1.00  0.00     0.036 A 
HETATM   18  C   UNL     1       4.672  26.488  50.151  1.00  0.00     0.069 A 
HETATM   19  C   UNL     1       4.052  26.197  48.952  1.00  0.00     0.107 A 
HETATM   20  C   UNL     1       4.039  27.089  47.910  1.00  0.00     0.105 A 
HETATM   21  O   UNL     1       3.401  25.040  48.654  1.00  0.00    -0.323 OA
HETATM   22  O   UNL     1       3.377  26.612  46.823  1.00  0.00    -0.323 OA
HETATM   23  C   UNL     1       4.650  28.316  48.011  1.00  0.00     0.042 A 
HETATM   24  C   UNL     1       2.975  25.312  47.301  1.00  0.00     0.352 A 
HETATM   25  C   UNL     1       5.288  28.632  49.220  1.00  0.00     0.032 A 
ENDBRANCH  15  17
ENDBRANCH  11  15
TORSDOF 2
ENDMDL
MODEL 4
REMARK VINA RESULT:      -9.3      3.948      5.958
REMARK  2 active torsions:
REMARK  status: ('A' for Active; 'I' for Inactive)
REMARK    1  A    between atoms: C_11  and  N_12 
REMARK    2  A    between atoms: N_12  and  C_13 
ROOT
HETATM    1  C   UNL     1       8.758  20.449  53.504  1.00  0.00     0.010 C 
HETATM    2  C   UNL     1       8.059  21.623  54.186  1.00  0.00    -0.014 C 
HETATM    3  C   UNL     1       9.019  22.334  55.160  1.00  0.00     0.051 C 
HETATM    4  C   UNL     1       8.419  23.623  55.638  1.00  0.00    -0.008 A 
HETATM    5  C   UNL     1       7.369  24.299  55.041  1.00  0.00    -0.028 A 
HETATM    6  C   UNL     1       7.007  25.496  55.788  1.00  0.00     0.053 A 
HETATM    7  C   UNL     1       7.875  25.666  56.863  1.00  0.00     0.114 A 
HETATM    8  N   UNL     1       7.869  26.664  57.758  1.00  0.00    -0.234 NA
HETATM    9  C   UNL     1       6.899  27.543  57.529  1.00  0.00     0.236 A 
HETATM   10  N   UNL     1       5.982  27.502  56.554  1.00  0.00    -0.223 NA
HETATM   11  C   UNL     1       5.990  26.483  55.660  1.00  0.00     0.143 A 
HETATM   12  S   UNL     1       9.031  24.424  57.000  1.00  0.00    -0.073 SA
HETATM   13  C   UNL     1       6.712  23.756  53.802  1.00  0.00     0.041 C 
HETATM   14  C   UNL     1       7.517  22.621  53.146  1.00  0.00     0.009 C 
ENDROOT
BRANCH  11  15
HETATM   15  N   UNL     1       5.023  26.435  54.643  1.00  0.00    -0.340 N 
HETATM   16  H   UNL     1       4.205  25.904  54.887  1.00  0.00     0.167 HD
BRANCH  15  17
HETATM   17  C   UNL     1       4.898  27.107  53.412  1.00  0.00     0.036 A 
HETATM   18  C   UNL     1       3.868  28.057  53.279  1.00  0.00     0.069 A 
HETATM   19  C   UNL     1       3.712  28.712  52.073  1.00  0.00     0.107 A 
HETATM   20  C   UNL     1       4.526  28.454  51.000  1.00  0.00     0.105 A 
HETATM   21  O   UNL     1       2.773  29.657  51.799  1.00  0.00    -0.323 OA
HETATM   22  O   UNL     1       4.208  29.205  49.912  1.00  0.00    -0.323 OA
HETATM   23  C   UNL     1       5.535  27.524  51.074  1.00  0.00     0.042 A 
HETATM   24  C   UNL     1       3.095  29.965  50.425  1.00  0.00     0.352 A 
HETATM   25  C   UNL     1       5.711  26.845  52.289  1.00  0.00     0.032 A 
ENDBRANCH  15  17
ENDBRANCH  11  15
TORSDOF 2
ENDMDL
MODEL 5
REMARK VINA RESULT:      -9.3      3.934      6.164
REMARK  2 active torsions:
REMARK  status: ('A' for Active; 'I' for Inactive)
REMARK    1  A    between atoms: C_11  and  N_12 
REMARK    2  A    between atoms: N_12  and  C_13 
ROOT
HETATM    1  C   UNL     1       7.979  21.146  52.908  1.00  0.00     0.010 C 
HETATM    2  C   UNL     1       7.587  22.491  53.516  1.00  0.00    -0.014 C 
HETATM    3  C   UNL     1       8.162  22.631  54.939  1.00  0.00     0.051 C 
HETATM    4  C   UNL     1       7.992  24.035  55.435  1.00  0.00    -0.008 A 
HETATM    5  C   UNL     1       7.731  25.147  54.652  1.00  0.00    -0.028 A 
HETATM    6  C   UNL     1       7.581  26.350  55.459  1.00  0.00     0.053 A 
HETATM    7  C   UNL     1       7.816  26.056  56.799  1.00  0.00     0.114 A 
HETATM    8  N   UNL     1       7.792  26.911  57.831  1.00  0.00    -0.234 NA
HETATM    9  C   UNL     1       7.502  28.152  57.454  1.00  0.00     0.236 A 
HETATM   10  N   UNL     1       7.234  28.579  56.215  1.00  0.00    -0.223 NA
HETATM   11  C   UNL     1       7.250  27.705  55.178  1.00  0.00     0.143 A 
HETATM   12  S   UNL     1       8.148  24.410  57.081  1.00  0.00    -0.073 SA
HETATM   13  C   UNL     1       7.587  25.017  53.160  1.00  0.00     0.041 C 
HETATM   14  C   UNL     1       8.065  23.656  52.628  1.00  0.00     0.009 C 
ENDROOT
BRANCH  11  15
HETATM   15  N   UNL     1       6.959  28.152  53.879  1.00  0.00    -0.340 N 
HETATM   16  H   UNL     1       7.765  28.212  53.282  1.00  0.00     0.167 HD
BRANCH  15  17
HETATM   17  C   UNL     1       5.749  28.385  53.198  1.00  0.00     0.036 A 
HETATM   18  C   UNL     1       5.667  28.000  51.846  1.00  0.00     0.069 A 
HETATM   19  C   UNL     1       4.498  28.240  51.151  1.00  0.00     0.107 A 
HETATM   20  C   UNL     1       3.420  28.850  51.739  1.00  0.00     0.105 A 
HETATM   21  O   UNL     1       4.268  27.918  49.850  1.00  0.00    -0.323 OA
HETATM   22  O   UNL     1       2.371  28.989  50.886  1.00  0.00    -0.323 OA
HETATM   23  C   UNL     1       3.456  29.259  53.051  1.00  0.00     0.042 A 
HETATM   24  C   UNL     1       2.915  28.397  49.690  1.00  0.00     0.352 A 
HETATM   25  C   UNL     1       4.634  29.027  53.776  1.00  0.00     0.032 A 
ENDBRANCH  15  17
ENDBRANCH  11  15
TORSDOF 2
ENDMDL
MODEL 6
REMARK VINA RESULT:      -9.3      3.735      7.295
REMARK  2 active torsions:
REMARK  status: ('A' for Active; 'I' for Inactive)
REMARK    1  A    between atoms: C_11  and  N_12 
REMARK    2  A    between atoms: N_12  and  C_13 
ROOT
HETATM    1  C   UNL     1       8.642  30.403  59.495  1.00  0.00     0.010 C 
HETATM    2  C   UNL     1       7.954  29.500  58.474  1.00  0.00    -0.014 C 
HETATM    3  C   UNL     1       6.829  30.263  57.747  1.00  0.00     0.051 C 
HETATM    4  C   UNL     1       6.323  29.464  56.583  1.00  0.00    -0.008 A 
HETATM    5  C   UNL     1       6.979  28.403  55.981  1.00  0.00    -0.028 A 
HETATM    6  C   UNL     1       6.187  27.824  54.904  1.00  0.00     0.053 A 
HETATM    7  C   UNL     1       5.013  28.552  54.733  1.00  0.00     0.114 A 
HETATM    8  N   UNL     1       4.051  28.334  53.824  1.00  0.00    -0.234 NA
HETATM    9  C   UNL     1       4.318  27.291  53.046  1.00  0.00     0.236 A 
HETATM   10  N   UNL     1       5.388  26.488  53.105  1.00  0.00    -0.223 NA
HETATM   11  C   UNL     1       6.351  26.711  54.033  1.00  0.00     0.143 A 
HETATM   12  S   UNL     1       4.845  29.833  55.841  1.00  0.00    -0.073 SA
HETATM   13  C   UNL     1       8.321  27.946  56.483  1.00  0.00     0.041 C 
HETATM   14  C   UNL     1       8.969  28.946  57.456  1.00  0.00     0.009 C 
ENDROOT
BRANCH  11  15
HETATM   15  N   UNL     1       7.468  25.864  54.101  1.00  0.00    -0.340 N 
HETATM   16  H   UNL     1       8.331  26.346  54.286  1.00  0.00     0.167 HD
BRANCH  15  17
HETATM   17  C   UNL     1       7.605  24.462  54.116  1.00  0.00     0.036 A 
HETATM   18  C   UNL     1       7.743  23.825  55.363  1.00  0.00     0.069 A 
HETATM   19  C   UNL     1       7.902  22.454  55.402  1.00  0.00     0.107 A 
HETATM   20  C   UNL     1       7.937  21.698  54.258  1.00  0.00     0.105 A 
HETATM   21  O   UNL     1       8.037  21.702  56.527  1.00  0.00    -0.323 OA
HETATM   22  O   UNL     1       8.097  20.373  54.514  1.00  0.00    -0.323 OA
HETATM   23  C   UNL     1       7.823  22.275  53.016  1.00  0.00     0.042 A 
HETATM   24  C   UNL     1       8.161  20.382  55.954  1.00  0.00     0.352 A 
HETATM   25  C   UNL     1       7.663  23.667  52.952  1.00  0.00     0.032 A 
ENDBRANCH  15  17
ENDBRANCH  11  15
TORSDOF 2
ENDMDL
MODEL 7
REMARK VINA RESULT:      -9.2      1.612      3.746
REMARK  2 active torsions:
REMARK  status: ('A' for Active; 'I' for Inactive)
REMARK    1  A    between atoms: C_11  and  N_12 
REMARK    2  A    between atoms: N_12  and  C_13 
ROOT
HETATM    1  C   UNL     1       4.987  27.131  50.429  1.00  0.00     0.010 C 
HETATM    2  C   UNL     1       5.392  26.759  51.854  1.00  0.00    -0.014 C 
HETATM    3  C   UNL     1       6.249  25.477  51.856  1.00  0.00     0.051 C 
HETATM    4  C   UNL     1       6.850  25.253  53.212  1.00  0.00    -0.008 A 
HETATM    5  C   UNL     1       6.972  26.203  54.212  1.00  0.00    -0.028 A 
HETATM    6  C   UNL     1       7.563  25.639  55.418  1.00  0.00     0.053 A 
HETATM    7  C   UNL     1       7.909  24.308  55.201  1.00  0.00     0.114 A 
HETATM    8  N   UNL     1       8.495  23.473  56.070  1.00  0.00    -0.234 NA
HETATM    9  C   UNL     1       8.736  24.049  57.243  1.00  0.00     0.236 A 
HETATM   10  N   UNL     1       8.443  25.305  57.603  1.00  0.00    -0.223 NA
HETATM   11  C   UNL     1       7.841  26.140  56.721  1.00  0.00     0.143 A 
HETATM   12  S   UNL     1       7.498  23.748  53.647  1.00  0.00    -0.073 SA
HETATM   13  C   UNL     1       6.480  27.608  54.000  1.00  0.00     0.041 C 
HETATM   14  C   UNL     1       6.157  27.914  52.528  1.00  0.00     0.009 C 
ENDROOT
BRANCH  11  15
HETATM   15  N   UNL     1       7.526  27.454  57.102  1.00  0.00    -0.340 N 
HETATM   16  H   UNL     1       6.548  27.601  57.279  1.00  0.00     0.167 HD
BRANCH  15  17
HETATM   17  C   UNL     1       8.320  28.568  57.437  1.00  0.00     0.036 A 
HETATM   18  C   UNL     1       7.906  29.376  58.512  1.00  0.00     0.069 A 
HETATM   19  C   UNL     1       8.656  30.486  58.844  1.00  0.00     0.107 A 
HETATM   20  C   UNL     1       9.788  30.828  58.149  1.00  0.00     0.105 A 
HETATM   21  O   UNL     1       8.387  31.352  59.858  1.00  0.00    -0.323 OA
HETATM   22  O   UNL     1      10.380  31.950  58.636  1.00  0.00    -0.323 OA
HETATM   23  C   UNL     1      10.226  30.080  57.082  1.00  0.00     0.042 A 
HETATM   24  C   UNL     1       9.487  32.278  59.719  1.00  0.00     0.352 A 
HETATM   25  C   UNL     1       9.478  28.948  56.726  1.00  0.00     0.032 A 
ENDBRANCH  15  17
ENDBRANCH  11  15
TORSDOF 2
ENDMDL
MODEL 8
REMARK VINA RESULT:      -9.1      5.391      7.848
REMARK  2 active torsions:
REMARK  status: ('A' for Active; 'I' for Inactive)
REMARK    1  A    between atoms: C_11  and  N_12 
REMARK    2  A    between atoms: N_12  and  C_13 
ROOT
HETATM    1  C   UNL     1       8.375  21.591  53.659  1.00  0.00     0.010 C 
HETATM    2  C   UNL     1       7.451  22.801  53.550  1.00  0.00    -0.014 C 
HETATM    3  C   UNL     1       7.255  23.460  54.930  1.00  0.00     0.051 C 
HETATM    4  C   UNL     1       6.558  24.779  54.785  1.00  0.00    -0.008 A 
HETATM    5  C   UNL     1       6.441  25.511  53.615  1.00  0.00    -0.028 A 
HETATM    6  C   UNL     1       5.664  26.726  53.818  1.00  0.00     0.053 A 
HETATM    7  C   UNL     1       5.315  26.850  55.159  1.00  0.00     0.114 A 
HETATM    8  N   UNL     1       4.622  27.848  55.727  1.00  0.00    -0.234 NA
HETATM    9  C   UNL     1       4.262  28.777  54.848  1.00  0.00     0.236 A 
HETATM   10  N   UNL     1       4.506  28.785  53.532  1.00  0.00    -0.223 NA
HETATM   11  C   UNL     1       5.199  27.766  52.965  1.00  0.00     0.143 A 
HETATM   12  S   UNL     1       5.846  25.547  56.118  1.00  0.00    -0.073 SA
HETATM   13  C   UNL     1       7.035  25.004  52.331  1.00  0.00     0.041 C 
HETATM   14  C   UNL     1       8.003  23.827  52.541  1.00  0.00     0.009 C 
ENDROOT
BRANCH  11  15
HETATM   15  N   UNL     1       5.446  27.770  51.583  1.00  0.00    -0.340 N 
HETATM   16  H   UNL     1       6.416  27.891  51.346  1.00  0.00     0.167 HD
BRANCH  15  17
HETATM   17  C   UNL     1       4.636  27.485  50.467  1.00  0.00     0.036 A 
HETATM   18  C   UNL     1       3.697  28.454  50.067  1.00  0.00     0.069 A 
HETATM   19  C   UNL     1       2.876  28.187  48.989  1.00  0.00     0.107 A 
HETATM   20  C   UNL     1       2.945  27.001  48.305  1.00  0.00     0.105 A 
HETATM   21  O   UNL     1       1.931  29.026  48.484  1.00  0.00    -0.323 OA
HETATM   22  O   UNL     1       2.056  26.939  47.278  1.00  0.00    -0.323 OA
HETATM   23  C   UNL     1       3.835  26.017  48.666  1.00  0.00     0.042 A 
HETATM   24  C   UNL     1       1.416  28.226  47.398  1.00  0.00     0.352 A 
HETATM   25  C   UNL     1       4.677  26.266  49.759  1.00  0.00     0.032 A 
ENDBRANCH  15  17
ENDBRANCH  11  15
TORSDOF 2
ENDMDL
MODEL 9
REMARK VINA RESULT:      -9.0      5.067      7.380
REMARK  2 active torsions:
REMARK  status: ('A' for Active; 'I' for Inactive)
REMARK    1  A    between atoms: C_11  and  N_12 
REMARK    2  A    between atoms: N_12  and  C_13 
ROOT
HETATM    1  C   UNL     1       8.604  20.454  54.721  1.00  0.00     0.010 C 
HETATM    2  C   UNL     1       7.735  21.672  54.417  1.00  0.00    -0.014 C 
HETATM    3  C   UNL     1       7.601  22.567  55.664  1.00  0.00     0.051 C 
HETATM    4  C   UNL     1       6.963  23.875  55.303  1.00  0.00    -0.008 A 
HETATM    5  C   UNL     1       6.855  24.399  54.026  1.00  0.00    -0.028 A 
HETATM    6  C   UNL     1       6.140  25.669  54.025  1.00  0.00     0.053 A 
HETATM    7  C   UNL     1       5.827  26.038  55.330  1.00  0.00     0.114 A 
HETATM    8  N   UNL     1       5.194  27.153  55.725  1.00  0.00    -0.234 NA
HETATM    9  C   UNL     1       4.859  27.934  54.704  1.00  0.00     0.236 A 
HETATM   10  N   UNL     1       5.074  27.703  53.403  1.00  0.00    -0.223 NA
HETATM   11  C   UNL     1       5.706  26.568  53.012  1.00  0.00     0.143 A 
HETATM   12  S   UNL     1       6.318  24.896  56.492  1.00  0.00    -0.073 SA
HETATM   13  C   UNL     1       7.396  23.649  52.840  1.00  0.00     0.041 C 
HETATM   14  C   UNL     1       8.312  22.480  53.238  1.00  0.00     0.009 C 
ENDROOT
BRANCH  11  15
HETATM   15  N   UNL     1       5.923  26.322  51.647  1.00  0.00    -0.340 N 
HETATM   16  H   UNL     1       6.634  25.635  51.467  1.00  0.00     0.167 HD
BRANCH  15  17
HETATM   17  C   UNL     1       5.241  26.727  50.483  1.00  0.00     0.036 A 
HETATM   18  C   UNL     1       5.399  28.057  50.053  1.00  0.00     0.069 A 
HETATM   19  C   UNL     1       4.722  28.484  48.927  1.00  0.00     0.107 A 
HETATM   20  C   UNL     1       3.893  27.648  48.223  1.00  0.00     0.105 A 
HETATM   21  O   UNL     1       4.783  29.731  48.389  1.00  0.00    -0.323 OA
HETATM   22  O   UNL     1       3.327  28.259  47.150  1.00  0.00    -0.323 OA
HETATM   23  C   UNL     1       3.693  26.345  48.612  1.00  0.00     0.042 A 
HETATM   24  C   UNL     1       3.895  29.580  47.261  1.00  0.00     0.352 A 
HETATM   25  C   UNL     1       4.369  25.891  49.753  1.00  0.00     0.032 A 
ENDBRANCH  15  17
ENDBRANCH  11  15
TORSDOF 2
ENDMDL
MODEL 10
REMARK VINA RESULT:      -8.9      4.364      7.726
REMARK  2 active torsions:
REMARK  status: ('A' for Active; 'I' for Inactive)
REMARK    1  A    between atoms: C_11  and  N_12 
REMARK    2  A    between atoms: N_12  and  C_13 
ROOT
HETATM    1  C   UNL     1       3.814  28.165  48.653  1.00  0.00     0.010 C 
HETATM    2  C   UNL     1       4.591  28.007  49.958  1.00  0.00    -0.014 C 
HETATM    3  C   UNL     1       3.745  28.485  51.154  1.00  0.00     0.051 C 
HETATM    4  C   UNL     1       4.404  28.102  52.445  1.00  0.00    -0.008 A 
HETATM    5  C   UNL     1       5.391  27.144  52.599  1.00  0.00    -0.028 A 
HETATM    6  C   UNL     1       5.840  27.053  53.982  1.00  0.00     0.053 A 
HETATM    7  C   UNL     1       5.093  27.912  54.782  1.00  0.00     0.114 A 
HETATM    8  N   UNL     1       5.202  28.084  56.108  1.00  0.00    -0.234 NA
HETATM    9  C   UNL     1       6.150  27.320  56.640  1.00  0.00     0.236 A 
HETATM   10  N   UNL     1       6.958  26.467  55.999  1.00  0.00    -0.223 NA
HETATM   11  C   UNL     1       6.847  26.307  54.657  1.00  0.00     0.143 A 
HETATM   12  S   UNL     1       3.946  28.820  53.911  1.00  0.00    -0.073 SA
HETATM   13  C   UNL     1       5.908  26.377  51.413  1.00  0.00     0.041 C 
HETATM   14  C   UNL     1       5.029  26.544  50.163  1.00  0.00     0.009 C 
ENDROOT
BRANCH  11  15
HETATM   15  N   UNL     1       7.701  25.419  53.984  1.00  0.00    -0.340 N 
HETATM   16  H   UNL     1       8.427  25.874  53.458  1.00  0.00     0.167 HD
BRANCH  15  17
HETATM   17  C   UNL     1       7.842  24.018  54.019  1.00  0.00     0.036 A 
HETATM   18  C   UNL     1       8.146  23.416  55.254  1.00  0.00     0.069 A 
HETATM   19  C   UNL     1       8.312  22.046  55.309  1.00  0.00     0.107 A 
HETATM   20  C   UNL     1       8.197  21.259  54.192  1.00  0.00     0.105 A 
HETATM   21  O   UNL     1       8.598  21.324  56.426  1.00  0.00    -0.323 OA
HETATM   22  O   UNL     1       8.393  19.941  54.460  1.00  0.00    -0.323 OA
HETATM   23  C   UNL     1       7.916  21.801  52.960  1.00  0.00     0.042 A 
HETATM   24  C   UNL     1       8.648  19.989  55.878  1.00  0.00     0.352 A 
HETATM   25  C   UNL     1       7.746  23.191  52.881  1.00  0.00     0.032 A 
ENDBRANCH  15  17
ENDBRANCH  11  15
TORSDOF 2
ENDMDL
