MODEL 1
REMARK VINA RESULT:     -10.1      0.000      0.000
REMARK  2 active torsions:
REMARK  status: ('A' for Active; 'I' for Inactive)
REMARK    1  A    between atoms: C_4  and  C_5 
REMARK       I    between atoms: N_12  and  C_13 
REMARK    2  A    between atoms: C_13  and  C_14 
ROOT
HETATM    1  C   UNL     1       8.174  23.613  56.070  1.00  0.00     0.070 A 
HETATM    2  N   UNL     1       8.335  23.483  57.429  1.00  0.00    -0.277 N 
HETATM    3  H   UNL     1       8.558  22.639  57.945  1.00  0.00     0.189 HD
HETATM    4  N   UNL     1       8.193  24.632  58.117  1.00  0.00    -0.178 NA
HETATM    5  C   UNL     1       7.929  25.525  57.164  1.00  0.00     0.066 A 
HETATM    6  C   UNL     1       7.907  24.955  55.871  1.00  0.00     0.015 A 
HETATM    7  C   UNL     1       7.629  25.726  54.630  1.00  0.00     0.169 C 
HETATM    8  N   UNL     1       7.249  27.115  54.956  1.00  0.00    -0.343 N 
HETATM    9  C   UNL     1       6.354  27.876  54.211  1.00  0.00     0.254 C 
HETATM   10  O   UNL     1       5.969  28.994  54.540  1.00  0.00    -0.267 OA
HETATM   11  C   UNL     1       7.915  27.744  56.114  1.00  0.00     0.132 C 
HETATM   12  C   UNL     1       7.672  26.964  57.417  1.00  0.00     0.081 C 
ENDROOT
BRANCH   9  13
HETATM   13  C   UNL     1       5.812  27.320  52.952  1.00  0.00     0.035 A 
HETATM   14  C   UNL     1       5.742  28.108  51.796  1.00  0.00     0.056 A 
HETATM   15  C   UNL     1       5.238  27.513  50.659  1.00  0.00     0.106 A 
HETATM   16  C   UNL     1       4.793  26.210  50.655  1.00  0.00     0.105 A 
HETATM   17  O   UNL     1       5.119  28.106  49.441  1.00  0.00    -0.323 OA
HETATM   18  O   UNL     1       4.339  25.823  49.432  1.00  0.00    -0.323 OA
HETATM   19  C   UNL     1       4.818  25.425  51.789  1.00  0.00     0.041 A 
HETATM   20  C   UNL     1       4.555  27.026  48.667  1.00  0.00     0.352 A 
HETATM   21  C   UNL     1       5.333  25.993  52.957  1.00  0.00     0.020 A 
ENDBRANCH   9  13
BRANCH   1  22
HETATM   22  C   UNL     1       8.298  22.496  55.141  1.00  0.00    -0.007 A 
HETATM   23  C   UNL     1       8.727  21.240  55.588  1.00  0.00     0.014 A 
HETATM   24  C   UNL     1       8.837  20.170  54.696  1.00  0.00     0.001 A 
HETATM   25  C   UNL     1       8.521  20.347  53.351  1.00  0.00     0.000 A 
HETATM   26  C   UNL     1       8.095  21.593  52.895  1.00  0.00     0.001 A 
HETATM   27  C   UNL     1       7.984  22.662  53.787  1.00  0.00     0.014 A 
ENDBRANCH   1  22
TORSDOF 2
ENDMDL
MODEL 2
REMARK VINA RESULT:      -9.9      2.908      6.803
REMARK  2 active torsions:
REMARK  status: ('A' for Active; 'I' for Inactive)
REMARK    1  A    between atoms: C_4  and  C_5 
REMARK       I    between atoms: N_12  and  C_13 
REMARK    2  A    between atoms: C_13  and  C_14 
ROOT
HETATM    1  C   UNL     1       6.064  29.405  55.514  1.00  0.00     0.070 A 
HETATM    2  N   UNL     1       5.041  30.318  55.610  1.00  0.00    -0.277 N 
HETATM    3  H   UNL     1       4.981  31.113  56.237  1.00  0.00     0.189 HD
HETATM    4  N   UNL     1       4.032  30.114  54.742  1.00  0.00    -0.178 NA
HETATM    5  C   UNL     1       4.423  29.030  54.072  1.00  0.00     0.066 A 
HETATM    6  C   UNL     1       5.678  28.544  54.503  1.00  0.00     0.015 A 
HETATM    7  C   UNL     1       6.344  27.344  53.929  1.00  0.00     0.169 C 
HETATM    8  N   UNL     1       5.453  26.669  52.964  1.00  0.00    -0.343 N 
HETATM    9  C   UNL     1       5.434  25.294  52.748  1.00  0.00     0.254 C 
HETATM   10  O   UNL     1       4.626  24.730  52.016  1.00  0.00    -0.267 OA
HETATM   11  C   UNL     1       4.577  27.524  52.140  1.00  0.00     0.132 C 
HETATM   12  C   UNL     1       3.632  28.383  52.997  1.00  0.00     0.081 C 
ENDROOT
BRANCH   9  13
HETATM   13  C   UNL     1       6.426  24.443  53.441  1.00  0.00     0.035 A 
HETATM   14  C   UNL     1       6.415  24.328  54.837  1.00  0.00     0.056 A 
HETATM   15  C   UNL     1       7.363  23.505  55.406  1.00  0.00     0.106 A 
HETATM   16  C   UNL     1       8.303  22.842  54.649  1.00  0.00     0.105 A 
HETATM   17  O   UNL     1       7.491  23.246  56.735  1.00  0.00    -0.323 OA
HETATM   18  O   UNL     1       9.138  22.084  55.409  1.00  0.00    -0.323 OA
HETATM   19  C   UNL     1       8.356  22.968  53.276  1.00  0.00     0.041 A 
HETATM   20  C   UNL     1       8.614  22.338  56.728  1.00  0.00     0.352 A 
HETATM   21  C   UNL     1       7.403  23.786  52.665  1.00  0.00     0.020 A 
ENDBRANCH   9  13
BRANCH   1  22
HETATM   22  C   UNL     1       7.257  29.451  56.351  1.00  0.00    -0.007 A 
HETATM   23  C   UNL     1       8.530  29.285  55.789  1.00  0.00     0.014 A 
HETATM   24  C   UNL     1       9.671  29.337  56.594  1.00  0.00     0.001 A 
HETATM   25  C   UNL     1       9.550  29.555  57.965  1.00  0.00     0.000 A 
HETATM   26  C   UNL     1       8.289  29.719  58.533  1.00  0.00     0.001 A 
HETATM   27  C   UNL     1       7.148  29.668  57.730  1.00  0.00     0.014 A 
ENDBRANCH   1  22
TORSDOF 2
ENDMDL
MODEL 3
REMARK VINA RESULT:      -9.5      8.233     12.213
REMARK  2 active torsions:
REMARK  status: ('A' for Active; 'I' for Inactive)
REMARK    1  A    between atoms: C_4  and  C_5 
REMARK       I    between atoms: N_12  and  C_13 
REMARK    2  A    between atoms: C_13  and  C_14 
ROOT
HETATM    1  C   UNL     1       5.525  32.241  57.880  1.00  0.00     0.070 A 
HETATM    2  N   UNL     1       5.480  31.323  56.858  1.00  0.00    -0.277 N 
HETATM    3  H   UNL     1       4.899  31.352  56.029  1.00  0.00     0.189 HD
HETATM    4  N   UNL     1       6.334  30.291  57.002  1.00  0.00    -0.178 NA
HETATM    5  C   UNL     1       6.942  30.560  58.157  1.00  0.00     0.066 A 
HETATM    6  C   UNL     1       6.486  31.759  58.749  1.00  0.00     0.015 A 
HETATM    7  C   UNL     1       6.992  32.289  60.044  1.00  0.00     0.169 C 
HETATM    8  N   UNL     1       7.917  31.325  60.672  1.00  0.00    -0.343 N 
HETATM    9  C   UNL     1       8.056  31.158  62.047  1.00  0.00     0.254 C 
HETATM   10  O   UNL     1       8.755  30.289  62.562  1.00  0.00    -0.267 OA
HETATM   11  C   UNL     1       8.788  30.540  59.776  1.00  0.00     0.132 C 
HETATM   12  C   UNL     1       7.980  29.698  58.774  1.00  0.00     0.081 C 
ENDROOT
BRANCH   9  13
HETATM   13  C   UNL     1       7.317  32.058  62.959  1.00  0.00     0.035 A 
HETATM   14  C   UNL     1       5.918  32.105  62.935  1.00  0.00     0.056 A 
HETATM   15  C   UNL     1       5.303  32.959  63.826  1.00  0.00     0.106 A 
HETATM   16  C   UNL     1       6.022  33.756  64.687  1.00  0.00     0.105 A 
HETATM   17  O   UNL     1       3.959  33.120  63.969  1.00  0.00    -0.323 OA
HETATM   18  O   UNL     1       5.220  34.517  65.479  1.00  0.00    -0.323 OA
HETATM   19  C   UNL     1       7.402  33.753  64.705  1.00  0.00     0.041 A 
HETATM   20  C   UNL     1       3.915  34.105  65.024  1.00  0.00     0.352 A 
HETATM   21  C   UNL     1       8.058  32.892  63.822  1.00  0.00     0.020 A 
ENDBRANCH   9  13
BRANCH   1  22
HETATM   22  C   UNL     1       4.692  33.438  57.915  1.00  0.00    -0.007 A 
HETATM   23  C   UNL     1       3.759  33.627  58.942  1.00  0.00     0.014 A 
HETATM   24  C   UNL     1       2.967  34.778  58.977  1.00  0.00     0.001 A 
HETATM   25  C   UNL     1       3.102  35.748  57.985  1.00  0.00     0.000 A 
HETATM   26  C   UNL     1       4.026  35.568  56.959  1.00  0.00     0.001 A 
HETATM   27  C   UNL     1       4.817  34.418  56.924  1.00  0.00     0.014 A 
ENDBRANCH   1  22
TORSDOF 2
ENDMDL
MODEL 4
REMARK VINA RESULT:      -9.5      2.086      3.153
REMARK  2 active torsions:
REMARK  status: ('A' for Active; 'I' for Inactive)
REMARK    1  A    between atoms: C_4  and  C_5 
REMARK       I    between atoms: N_12  and  C_13 
REMARK    2  A    between atoms: C_13  and  C_14 
ROOT
HETATM    1  C   UNL     1       6.025  25.571  55.250  1.00  0.00     0.070 A 
HETATM    2  N   UNL     1       5.554  25.346  56.521  1.00  0.00    -0.277 N 
HETATM    3  H   UNL     1       5.657  24.505  57.077  1.00  0.00     0.189 HD
HETATM    4  N   UNL     1       4.904  26.393  57.065  1.00  0.00    -0.178 NA
HETATM    5  C   UNL     1       4.959  27.316  56.105  1.00  0.00     0.066 A 
HETATM    6  C   UNL     1       5.645  26.868  54.955  1.00  0.00     0.015 A 
HETATM    7  C   UNL     1       5.846  27.695  53.734  1.00  0.00     0.169 C 
HETATM    8  N   UNL     1       5.115  28.972  53.848  1.00  0.00    -0.343 N 
HETATM    9  C   UNL     1       4.551  29.649  52.771  1.00  0.00     0.254 C 
HETATM   10  O   UNL     1       3.863  30.660  52.884  1.00  0.00    -0.267 OA
HETATM   11  C   UNL     1       5.038  29.591  55.186  1.00  0.00     0.132 C 
HETATM   12  C   UNL     1       4.360  28.669  56.213  1.00  0.00     0.081 C 
ENDROOT
BRANCH   9  13
HETATM   13  C   UNL     1       4.769  29.130  51.402  1.00  0.00     0.035 A 
HETATM   14  C   UNL     1       4.201  27.914  51.002  1.00  0.00     0.056 A 
HETATM   15  C   UNL     1       4.438  27.506  49.707  1.00  0.00     0.106 A 
HETATM   16  C   UNL     1       5.221  28.238  48.844  1.00  0.00     0.105 A 
HETATM   17  O   UNL     1       3.951  26.374  49.132  1.00  0.00    -0.323 OA
HETATM   18  O   UNL     1       5.322  27.658  47.618  1.00  0.00    -0.323 OA
HETATM   19  C   UNL     1       5.820  29.421  49.226  1.00  0.00     0.041 A 
HETATM   20  C   UNL     1       4.510  26.481  47.805  1.00  0.00     0.352 A 
HETATM   21  C   UNL     1       5.592  29.870  50.529  1.00  0.00     0.020 A 
ENDBRANCH   9  13
BRANCH   1  22
HETATM   22  C   UNL     1       6.766  24.576  54.485  1.00  0.00    -0.007 A 
HETATM   23  C   UNL     1       7.116  24.817  53.150  1.00  0.00     0.014 A 
HETATM   24  C   UNL     1       7.833  23.863  52.422  1.00  0.00     0.001 A 
HETATM   25  C   UNL     1       8.204  22.661  53.022  1.00  0.00     0.000 A 
HETATM   26  C   UNL     1       7.859  22.411  54.348  1.00  0.00     0.001 A 
HETATM   27  C   UNL     1       7.144  23.364  55.076  1.00  0.00     0.014 A 
ENDBRANCH   1  22
TORSDOF 2
ENDMDL
MODEL 5
REMARK VINA RESULT:      -9.4      3.107      6.238
REMARK  2 active torsions:
REMARK  status: ('A' for Active; 'I' for Inactive)
REMARK    1  A    between atoms: C_4  and  C_5 
REMARK       I    between atoms: N_12  and  C_13 
REMARK    2  A    between atoms: C_13  and  C_14 
ROOT
HETATM    1  C   UNL     1       6.143  25.067  54.111  1.00  0.00     0.070 A 
HETATM    2  N   UNL     1       5.716  24.668  52.867  1.00  0.00    -0.277 N 
HETATM    3  H   UNL     1       5.905  23.786  52.404  1.00  0.00     0.189 HD
HETATM    4  N   UNL     1       4.943  25.569  52.230  1.00  0.00    -0.178 NA
HETATM    5  C   UNL     1       4.879  26.579  53.098  1.00  0.00     0.066 A 
HETATM    6  C   UNL     1       5.600  26.327  54.286  1.00  0.00     0.015 A 
HETATM    7  C   UNL     1       5.700  27.289  55.416  1.00  0.00     0.169 C 
HETATM    8  N   UNL     1       5.066  28.574  55.059  1.00  0.00    -0.343 N 
HETATM    9  C   UNL     1       5.496  29.813  55.524  1.00  0.00     0.254 C 
HETATM   10  O   UNL     1       5.025  30.884  55.149  1.00  0.00    -0.267 OA
HETATM   11  C   UNL     1       3.863  28.521  54.205  1.00  0.00     0.132 C 
HETATM   12  C   UNL     1       4.143  27.844  52.853  1.00  0.00     0.081 C 
ENDROOT
BRANCH   9  13
HETATM   13  C   UNL     1       6.590  29.868  56.518  1.00  0.00     0.035 A 
HETATM   14  C   UNL     1       6.392  30.478  57.763  1.00  0.00     0.056 A 
HETATM   15  C   UNL     1       7.456  30.475  58.640  1.00  0.00     0.106 A 
HETATM   16  C   UNL     1       8.674  29.927  58.307  1.00  0.00     0.105 A 
HETATM   17  O   UNL     1       7.446  30.992  59.898  1.00  0.00    -0.323 OA
HETATM   18  O   UNL     1       9.581  30.029  59.315  1.00  0.00    -0.323 OA
HETATM   19  C   UNL     1       8.904  29.353  57.074  1.00  0.00     0.041 A 
HETATM   20  C   UNL     1       8.795  30.698  60.323  1.00  0.00     0.352 A 
HETATM   21  C   UNL     1       7.844  29.327  56.164  1.00  0.00     0.020 A 
ENDBRANCH   9  13
BRANCH   1  22
HETATM   22  C   UNL     1       6.978  24.238  54.972  1.00  0.00    -0.007 A 
HETATM   23  C   UNL     1       7.512  24.755  56.160  1.00  0.00     0.014 A 
HETATM   24  C   UNL     1       8.306  23.955  56.986  1.00  0.00     0.001 A 
HETATM   25  C   UNL     1       8.573  22.634  56.632  1.00  0.00     0.000 A 
HETATM   26  C   UNL     1       8.049  22.112  55.453  1.00  0.00     0.001 A 
HETATM   27  C   UNL     1       7.255  22.910  54.627  1.00  0.00     0.014 A 
ENDBRANCH   1  22
TORSDOF 2
ENDMDL
MODEL 6
REMARK VINA RESULT:      -9.3      2.858      6.442
REMARK  2 active torsions:
REMARK  status: ('A' for Active; 'I' for Inactive)
REMARK    1  A    between atoms: C_4  and  C_5 
REMARK       I    between atoms: N_12  and  C_13 
REMARK    2  A    between atoms: C_13  and  C_14 
ROOT
HETATM    1  C   UNL     1       4.734  28.549  52.966  1.00  0.00     0.070 A 
HETATM    2  N   UNL     1       4.635  29.881  53.291  1.00  0.00    -0.277 N 
HETATM    3  H   UNL     1       4.372  30.646  52.680  1.00  0.00     0.189 HD
HETATM    4  N   UNL     1       4.905  30.159  54.581  1.00  0.00    -0.178 NA
HETATM    5  C   UNL     1       5.190  28.963  55.095  1.00  0.00     0.066 A 
HETATM    6  C   UNL     1       5.099  27.923  54.144  1.00  0.00     0.015 A 
HETATM    7  C   UNL     1       5.372  26.493  54.450  1.00  0.00     0.169 C 
HETATM    8  N   UNL     1       5.880  26.346  55.829  1.00  0.00    -0.343 N 
HETATM    9  C   UNL     1       6.793  25.374  56.226  1.00  0.00     0.254 C 
HETATM   10  O   UNL     1       7.285  25.317  57.350  1.00  0.00    -0.267 OA
HETATM   11  C   UNL     1       5.329  27.255  56.853  1.00  0.00     0.132 C 
HETATM   12  C   UNL     1       5.576  28.733  56.509  1.00  0.00     0.081 C 
ENDROOT
BRANCH   9  13
HETATM   13  C   UNL     1       7.222  24.349  55.250  1.00  0.00     0.035 A 
HETATM   14  C   UNL     1       7.273  22.997  55.613  1.00  0.00     0.056 A 
HETATM   15  C   UNL     1       7.668  22.101  54.643  1.00  0.00     0.106 A 
HETATM   16  C   UNL     1       8.027  22.507  53.377  1.00  0.00     0.105 A 
HETATM   17  O   UNL     1       7.753  20.752  54.798  1.00  0.00    -0.323 OA
HETATM   18  O   UNL     1       8.380  21.464  52.580  1.00  0.00    -0.323 OA
HETATM   19  C   UNL     1       8.018  23.836  53.007  1.00  0.00     0.041 A 
HETATM   20  C   UNL     1       8.198  20.354  53.483  1.00  0.00     0.352 A 
HETATM   21  C   UNL     1       7.612  24.771  53.962  1.00  0.00     0.020 A 
ENDBRANCH   9  13
BRANCH   1  22
HETATM   22  C   UNL     1       4.472  28.031  51.629  1.00  0.00    -0.007 A 
HETATM   23  C   UNL     1       5.137  26.890  51.162  1.00  0.00     0.014 A 
HETATM   24  C   UNL     1       4.878  26.392  49.882  1.00  0.00     0.001 A 
HETATM   25  C   UNL     1       3.953  27.032  49.059  1.00  0.00     0.000 A 
HETATM   26  C   UNL     1       3.289  28.169  49.512  1.00  0.00     0.001 A 
HETATM   27  C   UNL     1       3.546  28.666  50.791  1.00  0.00     0.014 A 
ENDBRANCH   1  22
TORSDOF 2
ENDMDL
MODEL 7
REMARK VINA RESULT:      -9.1      3.467      7.296
REMARK  2 active torsions:
REMARK  status: ('A' for Active; 'I' for Inactive)
REMARK    1  A    between atoms: C_4  and  C_5 
REMARK       I    between atoms: N_12  and  C_13 
REMARK    2  A    between atoms: C_13  and  C_14 
ROOT
HETATM    1  C   UNL     1       5.109  26.773  52.778  1.00  0.00     0.070 A 
HETATM    2  N   UNL     1       4.562  25.605  52.302  1.00  0.00    -0.277 N 
HETATM    3  H   UNL     1       3.896  25.500  51.545  1.00  0.00     0.189 HD
HETATM    4  N   UNL     1       4.999  24.493  52.925  1.00  0.00    -0.178 NA
HETATM    5  C   UNL     1       5.852  24.970  53.831  1.00  0.00     0.066 A 
HETATM    6  C   UNL     1       5.967  26.377  53.788  1.00  0.00     0.015 A 
HETATM    7  C   UNL     1       6.844  27.166  54.694  1.00  0.00     0.169 C 
HETATM    8  N   UNL     1       7.454  26.292  55.715  1.00  0.00    -0.343 N 
HETATM    9  C   UNL     1       7.758  26.698  57.011  1.00  0.00     0.254 C 
HETATM   10  O   UNL     1       8.175  25.941  57.884  1.00  0.00    -0.267 OA
HETATM   11  C   UNL     1       7.816  24.922  55.304  1.00  0.00     0.132 C 
HETATM   12  C   UNL     1       6.600  24.128  54.798  1.00  0.00     0.081 C 
ENDROOT
BRANCH   9  13
HETATM   13  C   UNL     1       7.561  28.116  57.386  1.00  0.00     0.035 A 
HETATM   14  C   UNL     1       6.272  28.658  57.470  1.00  0.00     0.056 A 
HETATM   15  C   UNL     1       6.171  29.982  57.839  1.00  0.00     0.106 A 
HETATM   16  C   UNL     1       7.282  30.757  58.088  1.00  0.00     0.105 A 
HETATM   17  O   UNL     1       5.011  30.673  58.000  1.00  0.00    -0.323 OA
HETATM   18  O   UNL     1       6.957  32.030  58.438  1.00  0.00    -0.323 OA
HETATM   19  C   UNL     1       8.562  30.254  57.977  1.00  0.00     0.041 A 
HETATM   20  C   UNL     1       5.517  31.968  58.388  1.00  0.00     0.352 A 
HETATM   21  C   UNL     1       8.702  28.912  57.616  1.00  0.00     0.020 A 
ENDBRANCH   9  13
BRANCH   1  22
HETATM   22  C   UNL     1       4.782  28.087  52.236  1.00  0.00    -0.007 A 
HETATM   23  C   UNL     1       5.644  28.720  51.332  1.00  0.00     0.014 A 
HETATM   24  C   UNL     1       5.323  29.976  50.809  1.00  0.00     0.001 A 
HETATM   25  C   UNL     1       4.140  30.608  51.187  1.00  0.00     0.000 A 
HETATM   26  C   UNL     1       3.278  29.988  52.088  1.00  0.00     0.001 A 
HETATM   27  C   UNL     1       3.597  28.732  52.610  1.00  0.00     0.014 A 
ENDBRANCH   1  22
TORSDOF 2
ENDMDL
MODEL 8
REMARK VINA RESULT:      -8.8      3.417      7.664
REMARK  2 active torsions:
REMARK  status: ('A' for Active; 'I' for Inactive)
REMARK    1  A    between atoms: C_4  and  C_5 
REMARK       I    between atoms: N_12  and  C_13 
REMARK    2  A    between atoms: C_13  and  C_14 
ROOT
HETATM    1  C   UNL     1       5.245  27.516  51.752  1.00  0.00     0.070 A 
HETATM    2  N   UNL     1       4.637  26.560  50.973  1.00  0.00    -0.277 N 
HETATM    3  H   UNL     1       4.014  26.710  50.187  1.00  0.00     0.189 HD
HETATM    4  N   UNL     1       4.945  25.293  51.309  1.00  0.00    -0.178 NA
HETATM    5  C   UNL     1       5.774  25.446  52.341  1.00  0.00     0.066 A 
HETATM    6  C   UNL     1       6.003  26.803  52.662  1.00  0.00     0.015 A 
HETATM    7  C   UNL     1       6.881  27.255  53.774  1.00  0.00     0.169 C 
HETATM    8  N   UNL     1       7.354  26.101  54.563  1.00  0.00    -0.343 N 
HETATM    9  C   UNL     1       7.607  26.140  55.931  1.00  0.00     0.254 C 
HETATM   10  O   UNL     1       7.907  25.154  56.599  1.00  0.00    -0.267 OA
HETATM   11  C   UNL     1       7.631  24.849  53.832  1.00  0.00     0.132 C 
HETATM   12  C   UNL     1       6.390  24.324  53.091  1.00  0.00     0.081 C 
ENDROOT
BRANCH   9  13
HETATM   13  C   UNL     1       7.500  27.431  56.646  1.00  0.00     0.035 A 
HETATM   14  C   UNL     1       8.650  28.102  57.081  1.00  0.00     0.056 A 
HETATM   15  C   UNL     1       8.468  29.306  57.726  1.00  0.00     0.106 A 
HETATM   16  C   UNL     1       7.215  29.824  57.964  1.00  0.00     0.105 A 
HETATM   17  O   UNL     1       9.460  30.112  58.194  1.00  0.00    -0.323 OA
HETATM   18  O   UNL     1       7.263  31.020  58.610  1.00  0.00    -0.323 OA
HETATM   19  C   UNL     1       6.067  29.165  57.577  1.00  0.00     0.041 A 
HETATM   20  C   UNL     1       8.688  31.200  58.746  1.00  0.00     0.352 A 
HETATM   21  C   UNL     1       6.214  27.946  56.910  1.00  0.00     0.020 A 
ENDBRANCH   9  13
BRANCH   1  22
HETATM   22  C   UNL     1       5.057  28.948  51.550  1.00  0.00    -0.007 A 
HETATM   23  C   UNL     1       4.297  29.702  52.453  1.00  0.00     0.014 A 
HETATM   24  C   UNL     1       4.125  31.076  52.260  1.00  0.00     0.001 A 
HETATM   25  C   UNL     1       4.711  31.705  51.164  1.00  0.00     0.000 A 
HETATM   26  C   UNL     1       5.467  30.964  50.259  1.00  0.00     0.001 A 
HETATM   27  C   UNL     1       5.640  29.591  50.452  1.00  0.00     0.014 A 
ENDBRANCH   1  22
TORSDOF 2
ENDMDL
MODEL 9
REMARK VINA RESULT:      -8.5      7.667     11.019
REMARK  2 active torsions:
REMARK  status: ('A' for Active; 'I' for Inactive)
REMARK    1  A    between atoms: C_4  and  C_5 
REMARK       I    between atoms: N_12  and  C_13 
REMARK    2  A    between atoms: C_13  and  C_14 
ROOT
HETATM    1  C   UNL     1       7.839  32.098  61.405  1.00  0.00     0.070 A 
HETATM    2  N   UNL     1       9.044  31.437  61.438  1.00  0.00    -0.277 N 
HETATM    3  H   UNL     1       9.726  31.436  62.187  1.00  0.00     0.189 HD
HETATM    4  N   UNL     1       9.303  30.701  60.339  1.00  0.00    -0.178 NA
HETATM    5  C   UNL     1       8.227  30.904  59.579  1.00  0.00     0.066 A 
HETATM    6  C   UNL     1       7.281  31.759  60.186  1.00  0.00     0.015 A 
HETATM    7  C   UNL     1       5.994  32.155  59.553  1.00  0.00     0.169 C 
HETATM    8  N   UNL     1       5.921  31.649  58.168  1.00  0.00    -0.343 N 
HETATM    9  C   UNL     1       5.266  32.304  57.130  1.00  0.00     0.254 C 
HETATM   10  O   UNL     1       5.290  31.927  55.961  1.00  0.00    -0.267 OA
HETATM   11  C   UNL     1       6.534  30.334  57.895  1.00  0.00     0.132 C 
HETATM   12  C   UNL     1       8.034  30.312  58.232  1.00  0.00     0.081 C 
ENDROOT
BRANCH   9  13
HETATM   13  C   UNL     1       4.501  33.535  57.426  1.00  0.00     0.035 A 
HETATM   14  C   UNL     1       3.347  33.484  58.219  1.00  0.00     0.056 A 
HETATM   15  C   UNL     1       2.699  34.676  58.461  1.00  0.00     0.106 A 
HETATM   16  C   UNL     1       3.138  35.867  57.929  1.00  0.00     0.105 A 
HETATM   17  O   UNL     1       1.585  34.830  59.227  1.00  0.00    -0.323 OA
HETATM   18  O   UNL     1       2.356  36.917  58.295  1.00  0.00    -0.323 OA
HETATM   19  C   UNL     1       4.251  35.937  57.116  1.00  0.00     0.041 A 
HETATM   20  C   UNL     1       1.378  36.255  59.122  1.00  0.00     0.352 A 
HETATM   21  C   UNL     1       4.940  34.749  56.858  1.00  0.00     0.020 A 
ENDBRANCH   9  13
BRANCH   1  22
HETATM   22  C   UNL     1       7.360  32.938  62.496  1.00  0.00    -0.007 A 
HETATM   23  C   UNL     1       7.805  32.728  63.808  1.00  0.00     0.014 A 
HETATM   24  C   UNL     1       7.349  33.540  64.849  1.00  0.00     0.001 A 
HETATM   25  C   UNL     1       6.445  34.567  64.589  1.00  0.00     0.000 A 
HETATM   26  C   UNL     1       5.994  34.783  63.289  1.00  0.00     0.001 A 
HETATM   27  C   UNL     1       6.449  33.973  62.247  1.00  0.00     0.014 A 
ENDBRANCH   1  22
TORSDOF 2
ENDMDL
MODEL 10
REMARK VINA RESULT:      -8.5      2.454      5.304
REMARK  2 active torsions:
REMARK  status: ('A' for Active; 'I' for Inactive)
REMARK    1  A    between atoms: C_4  and  C_5 
REMARK       I    between atoms: N_12  and  C_13 
REMARK    2  A    between atoms: C_13  and  C_14 
ROOT
HETATM    1  C   UNL     1       7.236  26.315  55.608  1.00  0.00     0.070 A 
HETATM    2  N   UNL     1       8.013  25.209  55.855  1.00  0.00    -0.277 N 
HETATM    3  H   UNL     1       8.654  25.066  56.627  1.00  0.00     0.189 HD
HETATM    4  N   UNL     1       7.863  24.214  54.960  1.00  0.00    -0.178 NA
HETATM    5  C   UNL     1       6.962  24.705  54.110  1.00  0.00     0.066 A 
HETATM    6  C   UNL     1       6.531  26.004  54.459  1.00  0.00     0.015 A 
HETATM    7  C   UNL     1       5.535  26.785  53.678  1.00  0.00     0.169 C 
HETATM    8  N   UNL     1       5.180  26.075  52.434  1.00  0.00    -0.343 N 
HETATM    9  C   UNL     1       4.845  26.708  51.241  1.00  0.00     0.254 C 
HETATM   10  O   UNL     1       4.644  26.114  50.185  1.00  0.00    -0.267 OA
HETATM   11  C   UNL     1       5.120  24.601  52.489  1.00  0.00     0.132 C 
HETATM   12  C   UNL     1       6.463  23.983  52.913  1.00  0.00     0.081 C 
ENDROOT
BRANCH   9  13
HETATM   13  C   UNL     1       4.731  28.183  51.217  1.00  0.00     0.035 A 
HETATM   14  C   UNL     1       5.724  28.965  50.613  1.00  0.00     0.056 A 
HETATM   15  C   UNL     1       5.538  30.330  50.619  1.00  0.00     0.106 A 
HETATM   16  C   UNL     1       4.443  30.915  51.214  1.00  0.00     0.105 A 
HETATM   17  O   UNL     1       6.375  31.246  50.060  1.00  0.00    -0.323 OA
HETATM   18  O   UNL     1       4.456  32.270  51.103  1.00  0.00    -0.323 OA
HETATM   19  C   UNL     1       3.470  30.168  51.846  1.00  0.00     0.041 A 
HETATM   20  C   UNL     1       5.678  32.473  50.365  1.00  0.00     0.352 A 
HETATM   21  C   UNL     1       3.621  28.780  51.850  1.00  0.00     0.020 A 
ENDBRANCH   9  13
BRANCH   1  22
HETATM   22  C   UNL     1       7.236  27.498  56.460  1.00  0.00    -0.007 A 
HETATM   23  C   UNL     1       8.423  27.953  57.048  1.00  0.00     0.014 A 
HETATM   24  C   UNL     1       8.421  29.091  57.859  1.00  0.00     0.001 A 
HETATM   25  C   UNL     1       7.233  29.783  58.089  1.00  0.00     0.000 A 
HETATM   26  C   UNL     1       6.047  29.337  57.510  1.00  0.00     0.001 A 
HETATM   27  C   UNL     1       6.048  28.200  56.699  1.00  0.00     0.014 A 
ENDBRANCH   1  22
TORSDOF 2
ENDMDL
