MODEL 1
REMARK VINA RESULT:     -11.1      0.000      0.000
REMARK  7 active torsions:
REMARK  status: ('A' for Active; 'I' for Inactive)
REMARK    1  A    between atoms: C_2  and  C_3 
REMARK       I    between atoms: C_3  and  N_4 
REMARK    2  A    between atoms: N_7  and  C_8 
REMARK    3  A    between atoms: C_11  and  N_12 
REMARK    4  A    between atoms: N_12  and  C_13 
REMARK    5  A    between atoms: C_13  and  N_14 
REMARK       I    between atoms: N_14  and  C_15 
REMARK    6  A    between atoms: C_15  and  C_16 
REMARK    7  A    between atoms: C_18  and  C_19 
ROOT
HETATM    1  C   UNL     1       9.711  29.927  57.201  1.00  0.00     0.179 C 
HETATM    2  S   UNL     1      11.374  29.738  57.272  1.00  0.00    -0.040 SA
ENDROOT
BRANCH   1   3
HETATM    3  N   UNL     1       8.958  31.019  57.560  1.00  0.00    -0.333 N 
HETATM    4  H   UNL     1       8.622  31.581  56.780  1.00  0.00     0.168 HD
BRANCH   3   5
HETATM    5  C   UNL     1       8.460  31.363  58.835  1.00  0.00     0.034 A 
HETATM    6  C   UNL     1       7.119  31.645  59.065  1.00  0.00     0.032 A 
HETATM    7  C   UNL     1       6.675  31.985  60.345  1.00  0.00     0.031 A 
HETATM    8  C   UNL     1       7.547  32.080  61.439  1.00  0.00     0.030 A 
HETATM    9  C   UNL     1       8.881  31.721  61.204  1.00  0.00     0.031 A 
HETATM   10  C   UNL     1       9.331  31.351  59.922  1.00  0.00     0.032 A 
BRANCH   8  11
HETATM   11  N   UNL     1       7.047  32.470  62.688  1.00  0.00    -0.378 N 
HETATM   12  C   UNL     1       5.698  33.090  62.646  1.00  0.00     0.143 C 
HETATM   13  C   UNL     1       5.053  33.055  64.037  1.00  0.00     0.145 C 
HETATM   14  N   UNL     1       5.906  33.618  65.089  1.00  0.00    -0.349 N 
HETATM   15  C   UNL     1       5.262  34.029  66.254  1.00  0.00     0.219 C 
HETATM   16  C   UNL     1       7.309  33.172  65.057  1.00  0.00     0.145 C 
HETATM   17  O   UNL     1       4.035  34.109  66.327  1.00  0.00    -0.273 OA
HETATM   18  C   UNL     1       7.933  33.159  63.645  1.00  0.00     0.143 C 
BRANCH  15  19
HETATM   19  C   UNL     1       6.147  34.401  67.432  1.00  0.00     0.098 C 
HETATM   20  C   UNL     1       5.464  34.151  68.768  1.00  0.00     0.014 C 
ENDBRANCH  15  19
ENDBRANCH   8  11
ENDBRANCH   3   5
ENDBRANCH   1   3
BRANCH   1  21
HETATM   21  N   UNL     1       9.009  28.841  56.734  1.00  0.00    -0.298 N 
HETATM   22  C   UNL     1       8.019  28.079  57.339  1.00  0.00     0.281 C 
HETATM   23  O   UNL     1       7.851  28.028  58.555  1.00  0.00    -0.265 OA
HETATM   24  H   UNL     1       9.105  28.702  55.734  1.00  0.00     0.171 HD
BRANCH  22  25
HETATM   25  C   UNL     1       7.254  27.319  56.371  1.00  0.00     0.144 A 
HETATM   26  O   UNL     1       7.724  26.083  56.015  1.00  0.00    -0.304 OA
HETATM   27  C   UNL     1       6.890  25.564  55.068  1.00  0.00     0.086 A 
HETATM   28  C   UNL     1       5.868  26.461  54.827  1.00  0.00     0.041 A 
HETATM   29  C   UNL     1       6.099  27.587  55.665  1.00  0.00     0.046 A 
BRANCH  27  30
HETATM   30  C   UNL     1       7.271  24.254  54.544  1.00  0.00    -0.001 A 
HETATM   31  C   UNL     1       7.331  23.131  55.384  1.00  0.00     0.038 A 
HETATM   32  C   UNL     1       7.717  21.880  54.892  1.00  0.00     0.040 A 
HETATM   33 CL   UNL     1       7.770  20.558  56.005  1.00  0.00    -0.084 Cl
HETATM   34  C   UNL     1       8.051  21.716  53.543  1.00  0.00    -0.040 A 
HETATM   35  C   UNL     1       8.485  20.388  52.989  1.00  0.00     0.050 C 
HETATM   36  C   UNL     1       7.990  22.834  52.700  1.00  0.00     0.009 A 
HETATM   37  C   UNL     1       7.603  24.086  53.194  1.00  0.00     0.015 A 
ENDBRANCH  27  30
ENDBRANCH  22  25
ENDBRANCH   1  21
TORSDOF 7
ENDMDL
MODEL 2
REMARK VINA RESULT:     -10.9      1.170      1.697
REMARK  7 active torsions:
REMARK  status: ('A' for Active; 'I' for Inactive)
REMARK    1  A    between atoms: C_2  and  C_3 
REMARK       I    between atoms: C_3  and  N_4 
REMARK    2  A    between atoms: N_7  and  C_8 
REMARK    3  A    between atoms: C_11  and  N_12 
REMARK    4  A    between atoms: N_12  and  C_13 
REMARK    5  A    between atoms: C_13  and  N_14 
REMARK       I    between atoms: N_14  and  C_15 
REMARK    6  A    between atoms: C_15  and  C_16 
REMARK    7  A    between atoms: C_18  and  C_19 
ROOT
HETATM    1  C   UNL     1       9.087  29.666  57.322  1.00  0.00     0.179 C 
HETATM    2  S   UNL     1      10.635  29.113  56.998  1.00  0.00    -0.040 SA
ENDROOT
BRANCH   1   3
HETATM    3  N   UNL     1       8.678  30.946  57.610  1.00  0.00    -0.333 N 
HETATM    4  H   UNL     1       8.575  31.554  56.799  1.00  0.00     0.168 HD
BRANCH   3   5
HETATM    5  C   UNL     1       8.234  31.472  58.841  1.00  0.00     0.034 A 
HETATM    6  C   UNL     1       9.104  31.800  59.874  1.00  0.00     0.032 A 
HETATM    7  C   UNL     1       8.616  32.314  61.078  1.00  0.00     0.031 A 
HETATM    8  C   UNL     1       7.245  32.502  61.309  1.00  0.00     0.030 A 
HETATM    9  C   UNL     1       6.390  32.237  60.231  1.00  0.00     0.031 A 
HETATM   10  C   UNL     1       6.877  31.743  59.007  1.00  0.00     0.032 A 
BRANCH   8  11
HETATM   11  N   UNL     1       6.815  32.980  62.554  1.00  0.00    -0.378 N 
HETATM   12  C   UNL     1       7.760  32.725  63.672  1.00  0.00     0.143 C 
HETATM   13  C   UNL     1       7.449  33.654  64.852  1.00  0.00     0.145 C 
HETATM   14  N   UNL     1       6.044  33.613  65.272  1.00  0.00    -0.349 N 
HETATM   15  C   UNL     1       5.771  34.055  66.565  1.00  0.00     0.219 C 
HETATM   16  C   UNL     1       5.065  33.675  64.175  1.00  0.00     0.145 C 
HETATM   17  O   UNL     1       6.667  34.275  67.381  1.00  0.00    -0.273 OA
HETATM   18  C   UNL     1       5.414  32.778  62.968  1.00  0.00     0.143 C 
BRANCH  15  19
HETATM   19  C   UNL     1       4.307  34.231  66.935  1.00  0.00     0.098 C 
HETATM   20  C   UNL     1       3.852  35.677  66.811  1.00  0.00     0.014 C 
ENDBRANCH  15  19
ENDBRANCH   8  11
ENDBRANCH   3   5
ENDBRANCH   1   3
BRANCH   1  21
HETATM   21  N   UNL     1       8.100  28.709  57.312  1.00  0.00    -0.298 N 
HETATM   22  C   UNL     1       6.978  28.579  56.505  1.00  0.00     0.281 C 
HETATM   23  O   UNL     1       6.479  29.514  55.883  1.00  0.00    -0.265 OA
HETATM   24  H   UNL     1       8.337  27.884  57.851  1.00  0.00     0.171 HD
BRANCH  22  25
HETATM   25  C   UNL     1       6.448  27.231  56.529  1.00  0.00     0.144 A 
HETATM   26  O   UNL     1       7.118  26.269  55.820  1.00  0.00    -0.304 OA
HETATM   27  C   UNL     1       6.433  25.095  55.938  1.00  0.00     0.086 A 
HETATM   28  C   UNL     1       5.327  25.297  56.741  1.00  0.00     0.041 A 
HETATM   29  C   UNL     1       5.338  26.667  57.123  1.00  0.00     0.046 A 
BRANCH  27  30
HETATM   30  C   UNL     1       6.993  23.963  55.203  1.00  0.00    -0.001 A 
HETATM   31  C   UNL     1       7.533  22.860  55.880  1.00  0.00     0.038 A 
HETATM   32  C   UNL     1       8.091  21.784  55.182  1.00  0.00     0.040 A 
HETATM   33 CL   UNL     1       8.740  20.474  56.105  1.00  0.00    -0.084 Cl
HETATM   34  C   UNL     1       8.122  21.781  53.782  1.00  0.00    -0.040 A 
HETATM   35  C   UNL     1       8.730  20.648  53.005  1.00  0.00     0.050 C 
HETATM   36  C   UNL     1       7.582  22.880  53.102  1.00  0.00     0.009 A 
HETATM   37  C   UNL     1       7.022  23.956  53.803  1.00  0.00     0.015 A 
ENDBRANCH  27  30
ENDBRANCH  22  25
ENDBRANCH   1  21
TORSDOF 7
ENDMDL
MODEL 3
REMARK VINA RESULT:     -10.9      1.082      1.456
REMARK  7 active torsions:
REMARK  status: ('A' for Active; 'I' for Inactive)
REMARK    1  A    between atoms: C_2  and  C_3 
REMARK       I    between atoms: C_3  and  N_4 
REMARK    2  A    between atoms: N_7  and  C_8 
REMARK    3  A    between atoms: C_11  and  N_12 
REMARK    4  A    between atoms: N_12  and  C_13 
REMARK    5  A    between atoms: C_13  and  N_14 
REMARK       I    between atoms: N_14  and  C_15 
REMARK    6  A    between atoms: C_15  and  C_16 
REMARK    7  A    between atoms: C_18  and  C_19 
ROOT
HETATM    1  C   UNL     1       8.711  30.682  57.972  1.00  0.00     0.179 C 
HETATM    2  S   UNL     1      10.277  31.185  58.293  1.00  0.00    -0.040 SA
ENDROOT
BRANCH   1   3
HETATM    3  N   UNL     1       7.533  31.173  58.481  1.00  0.00    -0.333 N 
HETATM    4  H   UNL     1       6.729  31.080  57.863  1.00  0.00     0.168 HD
BRANCH   3   5
HETATM    5  C   UNL     1       7.263  31.632  59.788  1.00  0.00     0.034 A 
HETATM    6  C   UNL     1       7.965  31.183  60.900  1.00  0.00     0.032 A 
HETATM    7  C   UNL     1       7.659  31.665  62.175  1.00  0.00     0.031 A 
HETATM    8  C   UNL     1       6.630  32.593  62.396  1.00  0.00     0.030 A 
HETATM    9  C   UNL     1       5.984  33.089  61.257  1.00  0.00     0.031 A 
HETATM   10  C   UNL     1       6.305  32.629  59.966  1.00  0.00     0.032 A 
BRANCH   8  11
HETATM   11  N   UNL     1       6.343  33.004  63.705  1.00  0.00    -0.378 N 
HETATM   12  C   UNL     1       5.007  33.630  63.875  1.00  0.00     0.143 C 
HETATM   13  C   UNL     1       4.600  33.619  65.354  1.00  0.00     0.145 C 
HETATM   14  N   UNL     1       5.616  34.193  66.243  1.00  0.00    -0.349 N 
HETATM   15  C   UNL     1       5.174  34.625  67.491  1.00  0.00     0.219 C 
HETATM   16  C   UNL     1       6.993  33.740  65.987  1.00  0.00     0.145 C 
HETATM   17  O   UNL     1       3.976  34.713  67.763  1.00  0.00    -0.273 OA
HETATM   18  C   UNL     1       7.376  33.702  64.492  1.00  0.00     0.143 C 
BRANCH  15  19
HETATM   19  C   UNL     1       6.242  35.011  68.501  1.00  0.00     0.098 C 
HETATM   20  C   UNL     1       6.119  34.224  69.797  1.00  0.00     0.014 C 
ENDBRANCH  15  19
ENDBRANCH   8  11
ENDBRANCH   3   5
ENDBRANCH   1   3
BRANCH   1  21
HETATM   21  N   UNL     1       8.594  29.631  57.093  1.00  0.00    -0.298 N 
HETATM   22  C   UNL     1       7.935  28.416  57.224  1.00  0.00     0.281 C 
HETATM   23  O   UNL     1       7.637  27.920  58.308  1.00  0.00    -0.265 OA
HETATM   24  H   UNL     1       8.875  29.866  56.148  1.00  0.00     0.171 HD
BRANCH  22  25
HETATM   25  C   UNL     1       7.694  27.791  55.939  1.00  0.00     0.144 A 
HETATM   26  O   UNL     1       7.802  26.427  55.863  1.00  0.00    -0.304 OA
HETATM   27  C   UNL     1       7.585  26.051  54.570  1.00  0.00     0.086 A 
HETATM   28  C   UNL     1       7.318  27.176  53.813  1.00  0.00     0.041 A 
HETATM   29  C   UNL     1       7.385  28.292  54.692  1.00  0.00     0.046 A 
BRANCH  27  30
HETATM   30  C   UNL     1       7.704  24.620  54.302  1.00  0.00    -0.001 A 
HETATM   31  C   UNL     1       7.887  23.704  55.349  1.00  0.00     0.038 A 
HETATM   32  C   UNL     1       8.024  22.335  55.096  1.00  0.00     0.040 A 
HETATM   33 CL   UNL     1       8.256  21.285  56.451  1.00  0.00    -0.084 Cl
HETATM   34  C   UNL     1       7.978  21.842  53.787  1.00  0.00    -0.040 A 
HETATM   35  C   UNL     1       8.139  20.379  53.483  1.00  0.00     0.050 C 
HETATM   36  C   UNL     1       7.793  22.754  52.739  1.00  0.00     0.009 A 
HETATM   37  C   UNL     1       7.655  24.125  52.994  1.00  0.00     0.015 A 
ENDBRANCH  27  30
ENDBRANCH  22  25
ENDBRANCH   1  21
TORSDOF 7
ENDMDL
MODEL 4
REMARK VINA RESULT:     -10.7      4.156     12.351
REMARK  7 active torsions:
REMARK  status: ('A' for Active; 'I' for Inactive)
REMARK    1  A    between atoms: C_2  and  C_3 
REMARK       I    between atoms: C_3  and  N_4 
REMARK    2  A    between atoms: N_7  and  C_8 
REMARK    3  A    between atoms: C_11  and  N_12 
REMARK    4  A    between atoms: N_12  and  C_13 
REMARK    5  A    between atoms: C_13  and  N_14 
REMARK       I    between atoms: N_14  and  C_15 
REMARK    6  A    between atoms: C_15  and  C_16 
REMARK    7  A    between atoms: C_18  and  C_19 
ROOT
HETATM    1  C   UNL     1       5.429  31.506  58.325  1.00  0.00     0.179 C 
HETATM    2  S   UNL     1       3.896  32.178  58.404  1.00  0.00    -0.040 SA
ENDROOT
BRANCH   1   3
HETATM    3  N   UNL     1       6.064  30.948  57.242  1.00  0.00    -0.333 N 
HETATM    4  H   UNL     1       6.511  31.617  56.618  1.00  0.00     0.168 HD
BRANCH   3   5
HETATM    5  C   UNL     1       6.312  29.585  56.974  1.00  0.00     0.034 A 
HETATM    6  C   UNL     1       5.293  28.650  56.840  1.00  0.00     0.032 A 
HETATM    7  C   UNL     1       5.588  27.310  56.579  1.00  0.00     0.031 A 
HETATM    8  C   UNL     1       6.907  26.844  56.461  1.00  0.00     0.030 A 
HETATM    9  C   UNL     1       7.916  27.813  56.524  1.00  0.00     0.031 A 
HETATM   10  C   UNL     1       7.625  29.169  56.761  1.00  0.00     0.032 A 
BRANCH   8  11
HETATM   11  N   UNL     1       7.138  25.479  56.242  1.00  0.00    -0.378 N 
HETATM   12  C   UNL     1       8.350  24.944  56.914  1.00  0.00     0.143 C 
HETATM   13  C   UNL     1       8.272  23.415  57.008  1.00  0.00     0.145 C 
HETATM   14  N   UNL     1       7.999  22.765  55.722  1.00  0.00    -0.349 N 
HETATM   15  C   UNL     1       8.346  21.419  55.623  1.00  0.00     0.219 C 
HETATM   16  C   UNL     1       6.923  23.381  54.930  1.00  0.00     0.145 C 
HETATM   17  O   UNL     1       9.025  20.856  56.483  1.00  0.00    -0.273 OA
HETATM   18  C   UNL     1       6.977  24.923  54.885  1.00  0.00     0.143 C 
BRANCH  15  19
HETATM   19  C   UNL     1       7.867  20.676  54.386  1.00  0.00     0.098 C 
HETATM   20  C   UNL     1       8.869  20.753  53.245  1.00  0.00     0.014 C 
ENDBRANCH  15  19
ENDBRANCH   8  11
ENDBRANCH   3   5
ENDBRANCH   1   3
BRANCH   1  21
HETATM   21  N   UNL     1       6.136  31.502  59.504  1.00  0.00    -0.298 N 
HETATM   22  C   UNL     1       7.430  31.923  59.781  1.00  0.00     0.281 C 
HETATM   23  O   UNL     1       8.301  32.046  58.923  1.00  0.00    -0.265 OA
HETATM   24  H   UNL     1       5.556  31.339  60.319  1.00  0.00     0.171 HD
BRANCH  22  25
HETATM   25  C   UNL     1       7.634  32.146  61.198  1.00  0.00     0.144 A 
HETATM   26  O   UNL     1       6.608  32.711  61.909  1.00  0.00    -0.304 OA
HETATM   27  C   UNL     1       7.020  32.876  63.199  1.00  0.00     0.086 A 
HETATM   28  C   UNL     1       8.310  32.397  63.324  1.00  0.00     0.041 A 
HETATM   29  C   UNL     1       8.703  31.926  62.041  1.00  0.00     0.046 A 
BRANCH  27  30
HETATM   30  C   UNL     1       6.052  33.509  64.093  1.00  0.00    -0.001 A 
HETATM   31  C   UNL     1       6.383  33.797  65.425  1.00  0.00     0.038 A 
HETATM   32  C   UNL     1       5.454  34.382  66.291  1.00  0.00     0.040 A 
HETATM   33 CL   UNL     1       5.951  34.690  67.918  1.00  0.00    -0.084 Cl
HETATM   34  C   UNL     1       4.165  34.699  65.846  1.00  0.00    -0.040 A 
HETATM   35  C   UNL     1       3.139  35.312  66.757  1.00  0.00     0.050 C 
HETATM   36  C   UNL     1       3.831  34.415  64.515  1.00  0.00     0.009 A 
HETATM   37  C   UNL     1       4.764  33.829  63.649  1.00  0.00     0.015 A 
ENDBRANCH  27  30
ENDBRANCH  22  25
ENDBRANCH   1  21
TORSDOF 7
ENDMDL
MODEL 5
REMARK VINA RESULT:     -10.6      2.120      2.550
REMARK  7 active torsions:
REMARK  status: ('A' for Active; 'I' for Inactive)
REMARK    1  A    between atoms: C_2  and  C_3 
REMARK       I    between atoms: C_3  and  N_4 
REMARK    2  A    between atoms: N_7  and  C_8 
REMARK    3  A    between atoms: C_11  and  N_12 
REMARK    4  A    between atoms: N_12  and  C_13 
REMARK    5  A    between atoms: C_13  and  N_14 
REMARK       I    between atoms: N_14  and  C_15 
REMARK    6  A    between atoms: C_15  and  C_16 
REMARK    7  A    between atoms: C_18  and  C_19 
ROOT
HETATM    1  C   UNL     1       5.348  30.191  55.814  1.00  0.00     0.179 C 
HETATM    2  S   UNL     1       3.902  30.244  54.971  1.00  0.00    -0.040 SA
ENDROOT
BRANCH   1   3
HETATM    3  N   UNL     1       6.012  31.218  56.441  1.00  0.00    -0.333 N 
HETATM    4  H   UNL     1       6.548  31.822  55.820  1.00  0.00     0.168 HD
BRANCH   3   5
HETATM    5  C   UNL     1       5.918  31.635  57.786  1.00  0.00     0.034 A 
HETATM    6  C   UNL     1       4.740  32.124  58.339  1.00  0.00     0.032 A 
HETATM    7  C   UNL     1       4.698  32.528  59.675  1.00  0.00     0.031 A 
HETATM    8  C   UNL     1       5.827  32.483  60.507  1.00  0.00     0.030 A 
HETATM    9  C   UNL     1       6.984  31.919  59.954  1.00  0.00     0.031 A 
HETATM   10  C   UNL     1       7.027  31.484  58.616  1.00  0.00     0.032 A 
BRANCH   8  11
HETATM   11  N   UNL     1       5.730  32.945  61.826  1.00  0.00    -0.378 N 
HETATM   12  C   UNL     1       6.864  32.553  62.702  1.00  0.00     0.143 C 
HETATM   13  C   UNL     1       6.913  33.454  63.941  1.00  0.00     0.145 C 
HETATM   14  N   UNL     1       5.637  33.527  64.661  1.00  0.00    -0.349 N 
HETATM   15  C   UNL     1       5.699  33.936  65.991  1.00  0.00     0.219 C 
HETATM   16  C   UNL     1       4.454  33.729  63.809  1.00  0.00     0.145 C 
HETATM   17  O   UNL     1       6.769  34.035  66.593  1.00  0.00    -0.273 OA
HETATM   18  C   UNL     1       4.439  32.857  62.534  1.00  0.00     0.143 C 
BRANCH  15  19
HETATM   19  C   UNL     1       4.377  34.232  66.680  1.00  0.00     0.098 C 
HETATM   20  C   UNL     1       4.086  35.723  66.751  1.00  0.00     0.014 C 
ENDBRANCH  15  19
ENDBRANCH   8  11
ENDBRANCH   3   5
ENDBRANCH   1   3
BRANCH   1  21
HETATM   21  N   UNL     1       5.956  28.959  55.875  1.00  0.00    -0.298 N 
HETATM   22  C   UNL     1       7.300  28.619  55.949  1.00  0.00     0.281 C 
HETATM   23  O   UNL     1       8.209  29.372  55.607  1.00  0.00    -0.265 OA
HETATM   24  H   UNL     1       5.312  28.205  56.083  1.00  0.00     0.171 HD
BRANCH  22  25
HETATM   25  C   UNL     1       7.489  27.263  56.423  1.00  0.00     0.144 A 
HETATM   26  O   UNL     1       7.623  26.272  55.486  1.00  0.00    -0.304 OA
HETATM   27  C   UNL     1       7.742  25.080  56.138  1.00  0.00     0.086 A 
HETATM   28  C   UNL     1       7.704  25.305  57.500  1.00  0.00     0.041 A 
HETATM   29  C   UNL     1       7.545  26.706  57.684  1.00  0.00     0.046 A 
BRANCH  27  30
HETATM   30  C   UNL     1       7.854  23.902  55.280  1.00  0.00    -0.001 A 
HETATM   31  C   UNL     1       7.984  22.619  55.831  1.00  0.00     0.038 A 
HETATM   32  C   UNL     1       8.115  21.491  55.014  1.00  0.00     0.040 A 
HETATM   33 CL   UNL     1       8.279  19.952  55.785  1.00  0.00    -0.084 Cl
HETATM   34  C   UNL     1       8.115  21.615  53.619  1.00  0.00    -0.040 A 
HETATM   35  C   UNL     1       8.270  20.424  52.716  1.00  0.00     0.050 C 
HETATM   36  C   UNL     1       7.983  22.896  53.065  1.00  0.00     0.009 A 
HETATM   37  C   UNL     1       7.852  24.024  53.885  1.00  0.00     0.015 A 
ENDBRANCH  27  30
ENDBRANCH  22  25
ENDBRANCH   1  21
TORSDOF 7
ENDMDL
MODEL 6
REMARK VINA RESULT:      -9.9      3.999     12.383
REMARK  7 active torsions:
REMARK  status: ('A' for Active; 'I' for Inactive)
REMARK    1  A    between atoms: C_2  and  C_3 
REMARK       I    between atoms: C_3  and  N_4 
REMARK    2  A    between atoms: N_7  and  C_8 
REMARK    3  A    between atoms: C_11  and  N_12 
REMARK    4  A    between atoms: N_12  and  C_13 
REMARK    5  A    between atoms: C_13  and  N_14 
REMARK       I    between atoms: N_14  and  C_15 
REMARK    6  A    between atoms: C_15  and  C_16 
REMARK    7  A    between atoms: C_18  and  C_19 
ROOT
HETATM    1  C   UNL     1       7.529  31.622  59.127  1.00  0.00     0.179 C 
HETATM    2  S   UNL     1       9.110  31.691  59.676  1.00  0.00    -0.040 SA
ENDROOT
BRANCH   1   3
HETATM    3  N   UNL     1       7.035  30.984  58.015  1.00  0.00    -0.333 N 
HETATM    4  H   UNL     1       6.648  31.602  57.305  1.00  0.00     0.168 HD
BRANCH   3   5
HETATM    5  C   UNL     1       7.141  29.621  57.664  1.00  0.00     0.034 A 
HETATM    6  C   UNL     1       8.338  28.919  57.734  1.00  0.00     0.032 A 
HETATM    7  C   UNL     1       8.394  27.572  57.372  1.00  0.00     0.031 A 
HETATM    8  C   UNL     1       7.268  26.876  56.905  1.00  0.00     0.030 A 
HETATM    9  C   UNL     1       6.056  27.578  56.912  1.00  0.00     0.031 A 
HETATM   10  C   UNL     1       5.987  28.929  57.301  1.00  0.00     0.032 A 
BRANCH   8  11
HETATM   11  N   UNL     1       7.399  25.536  56.516  1.00  0.00    -0.378 N 
HETATM   12  C   UNL     1       8.595  24.847  57.067  1.00  0.00     0.143 C 
HETATM   13  C   UNL     1       8.417  23.326  56.982  1.00  0.00     0.145 C 
HETATM   14  N   UNL     1       8.056  22.855  55.640  1.00  0.00    -0.349 N 
HETATM   15  C   UNL     1       8.306  21.513  55.368  1.00  0.00     0.219 C 
HETATM   16  C   UNL     1       6.996  23.630  54.974  1.00  0.00     0.145 C 
HETATM   17  O   UNL     1       8.975  20.808  56.124  1.00  0.00    -0.273 OA
HETATM   18  C   UNL     1       7.153  25.160  55.111  1.00  0.00     0.143 C 
BRANCH  15  19
HETATM   19  C   UNL     1       7.736  20.957  54.073  1.00  0.00     0.098 C 
HETATM   20  C   UNL     1       8.810  20.351  53.183  1.00  0.00     0.014 C 
ENDBRANCH  15  19
ENDBRANCH   8  11
ENDBRANCH   3   5
ENDBRANCH   1   3
BRANCH   1  21
HETATM   21  N   UNL     1       6.607  32.307  59.884  1.00  0.00    -0.298 N 
HETATM   22  C   UNL     1       5.251  32.521  59.679  1.00  0.00     0.281 C 
HETATM   23  O   UNL     1       4.710  32.430  58.580  1.00  0.00    -0.265 OA
HETATM   24  H   UNL     1       6.938  32.524  60.818  1.00  0.00     0.171 HD
BRANCH  22  25
HETATM   25  C   UNL     1       4.575  32.910  60.900  1.00  0.00     0.144 A 
HETATM   26  O   UNL     1       5.342  33.124  62.014  1.00  0.00    -0.304 OA
HETATM   27  C   UNL     1       4.514  33.432  63.053  1.00  0.00     0.086 A 
HETATM   28  C   UNL     1       3.208  33.434  62.602  1.00  0.00     0.041 A 
HETATM   29  C   UNL     1       3.247  33.103  61.220  1.00  0.00     0.046 A 
BRANCH  27  30
HETATM   30  C   UNL     1       5.172  33.653  64.339  1.00  0.00    -0.001 A 
HETATM   31  C   UNL     1       4.422  33.810  65.514  1.00  0.00     0.038 A 
HETATM   32  C   UNL     1       5.046  34.045  66.744  1.00  0.00     0.040 A 
HETATM   33 CL   UNL     1       4.038  34.235  68.136  1.00  0.00    -0.084 Cl
HETATM   34  C   UNL     1       6.441  34.125  66.833  1.00  0.00    -0.040 A 
HETATM   35  C   UNL     1       7.139  34.393  68.137  1.00  0.00     0.050 C 
HETATM   36  C   UNL     1       7.193  33.967  65.661  1.00  0.00     0.009 A 
HETATM   37  C   UNL     1       6.567  33.731  64.431  1.00  0.00     0.015 A 
ENDBRANCH  27  30
ENDBRANCH  22  25
ENDBRANCH   1  21
TORSDOF 7
ENDMDL
MODEL 7
REMARK VINA RESULT:      -9.9      4.291     12.421
REMARK  7 active torsions:
REMARK  status: ('A' for Active; 'I' for Inactive)
REMARK    1  A    between atoms: C_2  and  C_3 
REMARK       I    between atoms: C_3  and  N_4 
REMARK    2  A    between atoms: N_7  and  C_8 
REMARK    3  A    between atoms: C_11  and  N_12 
REMARK    4  A    between atoms: N_12  and  C_13 
REMARK    5  A    between atoms: C_13  and  N_14 
REMARK       I    between atoms: N_14  and  C_15 
REMARK    6  A    between atoms: C_15  and  C_16 
REMARK    7  A    between atoms: C_18  and  C_19 
ROOT
HETATM    1  C   UNL     1       4.393  32.455  57.036  1.00  0.00     0.179 C 
HETATM    2  S   UNL     1       4.619  33.626  55.859  1.00  0.00    -0.040 SA
ENDROOT
BRANCH   1   3
HETATM    3  N   UNL     1       3.737  31.252  56.932  1.00  0.00    -0.333 N 
HETATM    4  H   UNL     1       2.723  31.310  57.009  1.00  0.00     0.168 HD
BRANCH   3   5
HETATM    5  C   UNL     1       4.262  29.991  56.575  1.00  0.00     0.034 A 
HETATM    6  C   UNL     1       5.065  29.245  57.429  1.00  0.00     0.032 A 
HETATM    7  C   UNL     1       5.565  28.003  57.029  1.00  0.00     0.031 A 
HETATM    8  C   UNL     1       5.305  27.466  55.760  1.00  0.00     0.030 A 
HETATM    9  C   UNL     1       4.434  28.197  54.941  1.00  0.00     0.031 A 
HETATM   10  C   UNL     1       3.905  29.437  55.347  1.00  0.00     0.032 A 
BRANCH   8  11
HETATM   11  N   UNL     1       5.872  26.235  55.403  1.00  0.00    -0.378 N 
HETATM   12  C   UNL     1       7.059  25.847  56.207  1.00  0.00     0.143 C 
HETATM   13  C   UNL     1       7.319  24.341  56.076  1.00  0.00     0.145 C 
HETATM   14  N   UNL     1       7.398  23.882  54.685  1.00  0.00    -0.349 N 
HETATM   15  C   UNL     1       8.054  22.672  54.469  1.00  0.00     0.219 C 
HETATM   16  C   UNL     1       6.341  24.396  53.800  1.00  0.00     0.145 C 
HETATM   17  O   UNL     1       8.706  22.117  55.355  1.00  0.00    -0.273 OA
HETATM   18  C   UNL     1       6.047  25.902  53.977  1.00  0.00     0.143 C 
BRANCH  15  19
HETATM   19  C   UNL     1       7.948  22.074  53.076  1.00  0.00     0.098 C 
HETATM   20  C   UNL     1       7.999  20.554  53.096  1.00  0.00     0.014 C 
ENDBRANCH  15  19
ENDBRANCH   8  11
ENDBRANCH   3   5
ENDBRANCH   1   3
BRANCH   1  21
HETATM   21  N   UNL     1       4.923  32.744  58.272  1.00  0.00    -0.298 N 
HETATM   22  C   UNL     1       4.532  32.334  59.539  1.00  0.00     0.281 C 
HETATM   23  O   UNL     1       3.405  31.919  59.800  1.00  0.00    -0.265 OA
HETATM   24  H   UNL     1       5.843  33.167  58.223  1.00  0.00     0.171 HD
BRANCH  22  25
HETATM   25  C   UNL     1       5.591  32.506  60.513  1.00  0.00     0.144 A 
HETATM   26  O   UNL     1       5.235  32.871  61.785  1.00  0.00    -0.304 OA
HETATM   27  C   UNL     1       6.372  33.022  62.522  1.00  0.00     0.086 A 
HETATM   28  C   UNL     1       7.465  32.735  61.727  1.00  0.00     0.041 A 
HETATM   29  C   UNL     1       6.964  32.401  60.439  1.00  0.00     0.046 A 
BRANCH  27  30
HETATM   30  C   UNL     1       6.174  33.452  63.904  1.00  0.00    -0.001 A 
HETATM   31  C   UNL     1       4.925  33.916  64.342  1.00  0.00     0.038 A 
HETATM   32  C   UNL     1       4.735  34.350  65.658  1.00  0.00     0.040 A 
HETATM   33 CL   UNL     1       3.162  34.913  66.102  1.00  0.00    -0.084 Cl
HETATM   34  C   UNL     1       5.792  34.331  66.576  1.00  0.00    -0.040 A 
HETATM   35  C   UNL     1       5.624  34.807  67.991  1.00  0.00     0.050 C 
HETATM   36  C   UNL     1       7.042  33.867  66.142  1.00  0.00     0.009 A 
HETATM   37  C   UNL     1       7.229  33.431  64.824  1.00  0.00     0.015 A 
ENDBRANCH  27  30
ENDBRANCH  22  25
ENDBRANCH   1  21
TORSDOF 7
ENDMDL
MODEL 8
REMARK VINA RESULT:      -9.7      3.287      4.378
REMARK  7 active torsions:
REMARK  status: ('A' for Active; 'I' for Inactive)
REMARK    1  A    between atoms: C_2  and  C_3 
REMARK       I    between atoms: C_3  and  N_4 
REMARK    2  A    between atoms: N_7  and  C_8 
REMARK    3  A    between atoms: C_11  and  N_12 
REMARK    4  A    between atoms: N_12  and  C_13 
REMARK    5  A    between atoms: C_13  and  N_14 
REMARK       I    between atoms: N_14  and  C_15 
REMARK    6  A    between atoms: C_15  and  C_16 
REMARK    7  A    between atoms: C_18  and  C_19 
ROOT
HETATM    1  C   UNL     1       3.992  30.455  52.898  1.00  0.00     0.179 C 
HETATM    2  S   UNL     1       4.212  31.716  51.816  1.00  0.00    -0.040 SA
ENDROOT
BRANCH   1   3
HETATM    3  N   UNL     1       3.247  30.439  54.053  1.00  0.00    -0.333 N 
HETATM    4  H   UNL     1       2.313  30.047  53.954  1.00  0.00     0.168 HD
BRANCH   3   5
HETATM    5  C   UNL     1       3.659  30.739  55.369  1.00  0.00     0.034 A 
HETATM    6  C   UNL     1       3.581  29.818  56.408  1.00  0.00     0.032 A 
HETATM    7  C   UNL     1       3.997  30.163  57.695  1.00  0.00     0.031 A 
HETATM    8  C   UNL     1       4.486  31.441  58.006  1.00  0.00     0.030 A 
HETATM    9  C   UNL     1       4.627  32.331  56.933  1.00  0.00     0.031 A 
HETATM   10  C   UNL     1       4.235  31.982  55.628  1.00  0.00     0.032 A 
BRANCH   8  11
HETATM   11  N   UNL     1       4.846  31.738  59.328  1.00  0.00    -0.378 N 
HETATM   12  C   UNL     1       3.746  32.296  60.156  1.00  0.00     0.143 C 
HETATM   13  C   UNL     1       4.081  32.155  61.646  1.00  0.00     0.145 C 
HETATM   14  N   UNL     1       5.395  32.700  62.003  1.00  0.00    -0.349 N 
HETATM   15  C   UNL     1       5.591  33.016  63.345  1.00  0.00     0.219 C 
HETATM   16  C   UNL     1       6.491  32.323  61.095  1.00  0.00     0.145 C 
HETATM   17  O   UNL     1       4.660  33.035  64.152  1.00  0.00    -0.273 OA
HETATM   18  C   UNL     1       6.128  32.415  59.597  1.00  0.00     0.143 C 
BRANCH  15  19
HETATM   19  C   UNL     1       7.008  33.366  63.768  1.00  0.00     0.098 C 
HETATM   20  C   UNL     1       7.104  33.683  65.252  1.00  0.00     0.014 C 
ENDBRANCH  15  19
ENDBRANCH   8  11
ENDBRANCH   3   5
ENDBRANCH   1   3
BRANCH   1  21
HETATM   21  N   UNL     1       4.655  29.289  52.595  1.00  0.00    -0.298 N 
HETATM   22  C   UNL     1       5.521  28.520  53.359  1.00  0.00     0.281 C 
HETATM   23  O   UNL     1       6.131  28.953  54.335  1.00  0.00    -0.265 OA
HETATM   24  H   UNL     1       4.307  28.837  51.758  1.00  0.00     0.171 HD
BRANCH  22  25
HETATM   25  C   UNL     1       5.653  27.175  52.837  1.00  0.00     0.144 A 
HETATM   26  O   UNL     1       6.205  26.225  53.656  1.00  0.00    -0.304 OA
HETATM   27  C   UNL     1       6.280  25.053  52.962  1.00  0.00     0.086 A 
HETATM   28  C   UNL     1       5.757  25.244  51.697  1.00  0.00     0.041 A 
HETATM   29  C   UNL     1       5.352  26.604  51.618  1.00  0.00     0.046 A 
BRANCH  27  30
HETATM   30  C   UNL     1       6.887  23.934  53.680  1.00  0.00    -0.001 A 
HETATM   31  C   UNL     1       7.377  22.815  52.989  1.00  0.00     0.038 A 
HETATM   32  C   UNL     1       7.938  21.732  53.673  1.00  0.00     0.040 A 
HETATM   33 CL   UNL     1       8.506  20.394  52.736  1.00  0.00    -0.084 Cl
HETATM   34  C   UNL     1       8.027  21.738  55.070  1.00  0.00    -0.040 A 
HETATM   35  C   UNL     1       8.610  20.582  55.833  1.00  0.00     0.050 C 
HETATM   36  C   UNL     1       7.541  22.855  55.763  1.00  0.00     0.009 A 
HETATM   37  C   UNL     1       6.980  23.939  55.077  1.00  0.00     0.015 A 
ENDBRANCH  27  30
ENDBRANCH  22  25
ENDBRANCH   1  21
TORSDOF 7
ENDMDL
MODEL 9
REMARK VINA RESULT:      -9.7      4.483     12.395
REMARK  7 active torsions:
REMARK  status: ('A' for Active; 'I' for Inactive)
REMARK    1  A    between atoms: C_2  and  C_3 
REMARK       I    between atoms: C_3  and  N_4 
REMARK    2  A    between atoms: N_7  and  C_8 
REMARK    3  A    between atoms: C_11  and  N_12 
REMARK    4  A    between atoms: N_12  and  C_13 
REMARK    5  A    between atoms: C_13  and  N_14 
REMARK       I    between atoms: N_14  and  C_15 
REMARK    6  A    between atoms: C_15  and  C_16 
REMARK    7  A    between atoms: C_18  and  C_19 
ROOT
HETATM    1  C   UNL     1       5.270  31.459  57.529  1.00  0.00     0.179 C 
HETATM    2  S   UNL     1       4.965  31.751  55.908  1.00  0.00    -0.040 SA
ENDROOT
BRANCH   1   3
HETATM    3  N   UNL     1       6.146  30.559  58.086  1.00  0.00    -0.333 N 
HETATM    4  H   UNL     1       6.570  30.861  58.961  1.00  0.00     0.168 HD
BRANCH   3   5
HETATM    5  C   UNL     1       6.406  29.228  57.696  1.00  0.00     0.034 A 
HETATM    6  C   UNL     1       5.421  28.389  57.188  1.00  0.00     0.032 A 
HETATM    7  C   UNL     1       5.727  27.077  56.819  1.00  0.00     0.031 A 
HETATM    8  C   UNL     1       7.015  26.541  56.961  1.00  0.00     0.030 A 
HETATM    9  C   UNL     1       8.010  27.422  57.404  1.00  0.00     0.031 A 
HETATM   10  C   UNL     1       7.716  28.754  57.752  1.00  0.00     0.032 A 
BRANCH   8  11
HETATM   11  N   UNL     1       7.247  25.203  56.613  1.00  0.00    -0.378 N 
HETATM   12  C   UNL     1       8.523  24.644  57.131  1.00  0.00     0.143 C 
HETATM   13  C   UNL     1       8.477  23.111  57.110  1.00  0.00     0.145 C 
HETATM   14  N   UNL     1       8.100  22.557  55.805  1.00  0.00    -0.349 N 
HETATM   15  C   UNL     1       8.456  21.232  55.569  1.00  0.00     0.219 C 
HETATM   16  C   UNL     1       6.947  23.209  55.162  1.00  0.00     0.145 C 
HETATM   17  O   UNL     1       9.218  20.618  56.317  1.00  0.00    -0.273 OA
HETATM   18  C   UNL     1       6.973  24.751  55.237  1.00  0.00     0.143 C 
BRANCH  15  19
HETATM   19  C   UNL     1       7.880  20.578  54.323  1.00  0.00     0.098 C 
HETATM   20  C   UNL     1       8.853  20.607  53.155  1.00  0.00     0.014 C 
ENDBRANCH  15  19
ENDBRANCH   8  11
ENDBRANCH   3   5
ENDBRANCH   1   3
BRANCH   1  21
HETATM   21  N   UNL     1       4.537  32.211  58.416  1.00  0.00    -0.298 N 
HETATM   22  C   UNL     1       3.576  31.829  59.342  1.00  0.00     0.281 C 
HETATM   23  O   UNL     1       2.950  30.773  59.274  1.00  0.00    -0.265 OA
HETATM   24  H   UNL     1       4.893  33.153  58.532  1.00  0.00     0.171 HD
BRANCH  22  25
HETATM   25  C   UNL     1       3.369  32.844  60.356  1.00  0.00     0.144 A 
HETATM   26  O   UNL     1       4.185  32.822  61.456  1.00  0.00    -0.304 OA
HETATM   27  C   UNL     1       3.795  33.821  62.299  1.00  0.00     0.086 A 
HETATM   28  C   UNL     1       2.736  34.502  61.731  1.00  0.00     0.041 A 
HETATM   29  C   UNL     1       2.464  33.877  60.483  1.00  0.00     0.046 A 
BRANCH  27  30
HETATM   30  C   UNL     1       4.542  33.914  63.552  1.00  0.00    -0.001 A 
HETATM   31  C   UNL     1       4.027  34.626  64.645  1.00  0.00     0.038 A 
HETATM   32  C   UNL     1       4.748  34.738  65.839  1.00  0.00     0.040 A 
HETATM   33 CL   UNL     1       4.035  35.644  67.128  1.00  0.00    -0.084 Cl
HETATM   34  C   UNL     1       6.005  34.137  65.973  1.00  0.00    -0.040 A 
HETATM   35  C   UNL     1       6.810  34.253  67.237  1.00  0.00     0.050 C 
HETATM   36  C   UNL     1       6.521  33.423  64.883  1.00  0.00     0.009 A 
HETATM   37  C   UNL     1       5.798  33.311  63.689  1.00  0.00     0.015 A 
ENDBRANCH  27  30
ENDBRANCH  22  25
ENDBRANCH   1  21
TORSDOF 7
ENDMDL
MODEL 10
REMARK VINA RESULT:      -9.7      5.292     12.967
REMARK  7 active torsions:
REMARK  status: ('A' for Active; 'I' for Inactive)
REMARK    1  A    between atoms: C_2  and  C_3 
REMARK       I    between atoms: C_3  and  N_4 
REMARK    2  A    between atoms: N_7  and  C_8 
REMARK    3  A    between atoms: C_11  and  N_12 
REMARK    4  A    between atoms: N_12  and  C_13 
REMARK    5  A    between atoms: C_13  and  N_14 
REMARK       I    between atoms: N_14  and  C_15 
REMARK    6  A    between atoms: C_15  and  C_16 
REMARK    7  A    between atoms: C_18  and  C_19 
ROOT
HETATM    1  C   UNL     1       6.898  28.524  57.586  1.00  0.00     0.179 C 
HETATM    2  S   UNL     1       7.719  27.076  57.392  1.00  0.00    -0.040 SA
ENDROOT
BRANCH   1   3
HETATM    3  N   UNL     1       5.697  28.907  57.040  1.00  0.00    -0.333 N 
HETATM    4  H   UNL     1       5.135  29.517  57.630  1.00  0.00     0.168 HD
BRANCH   3   5
HETATM    5  C   UNL     1       5.222  28.701  55.728  1.00  0.00     0.034 A 
HETATM    6  C   UNL     1       5.278  27.464  55.095  1.00  0.00     0.032 A 
HETATM    7  C   UNL     1       4.797  27.311  53.793  1.00  0.00     0.031 A 
HETATM    8  C   UNL     1       4.265  28.383  53.061  1.00  0.00     0.030 A 
HETATM    9  C   UNL     1       4.148  29.602  53.740  1.00  0.00     0.031 A 
HETATM   10  C   UNL     1       4.605  29.759  55.062  1.00  0.00     0.032 A 
BRANCH   8  11
HETATM   11  N   UNL     1       3.840  28.173  51.742  1.00  0.00    -0.378 N 
HETATM   12  C   UNL     1       4.890  27.643  50.833  1.00  0.00     0.143 C 
HETATM   13  C   UNL     1       4.248  27.023  49.586  1.00  0.00     0.145 C 
HETATM   14  N   UNL     1       3.306  27.920  48.907  1.00  0.00    -0.349 N 
HETATM   15  C   UNL     1       3.029  27.631  47.573  1.00  0.00     0.219 C 
HETATM   16  C   UNL     1       2.361  28.616  49.795  1.00  0.00     0.145 C 
HETATM   17  O   UNL     1       3.682  26.803  46.936  1.00  0.00    -0.273 OA
HETATM   18  C   UNL     1       3.006  29.191  51.076  1.00  0.00     0.143 C 
BRANCH  15  19
HETATM   19  C   UNL     1       1.894  28.407  46.925  1.00  0.00     0.098 C 
HETATM   20  C   UNL     1       0.686  27.529  46.639  1.00  0.00     0.014 C 
ENDBRANCH  15  19
ENDBRANCH   8  11
ENDBRANCH   3   5
ENDBRANCH   1   3
BRANCH   1  21
HETATM   21  N   UNL     1       7.518  29.455  58.387  1.00  0.00    -0.298 N 
HETATM   22  C   UNL     1       7.202  30.784  58.635  1.00  0.00     0.281 C 
HETATM   23  O   UNL     1       6.504  31.466  57.888  1.00  0.00    -0.265 OA
HETATM   24  H   UNL     1       8.190  29.048  59.027  1.00  0.00     0.171 HD
BRANCH  22  25
HETATM   25  C   UNL     1       7.833  31.272  59.844  1.00  0.00     0.144 A 
HETATM   26  O   UNL     1       7.021  31.736  60.845  1.00  0.00    -0.304 OA
HETATM   27  C   UNL     1       7.809  32.188  61.863  1.00  0.00     0.086 A 
HETATM   28  C   UNL     1       9.135  31.996  61.524  1.00  0.00     0.041 A 
HETATM   29  C   UNL     1       9.151  31.406  60.230  1.00  0.00     0.046 A 
BRANCH  27  30
HETATM   30  C   UNL     1       7.098  32.759  63.004  1.00  0.00    -0.001 A 
HETATM   31  C   UNL     1       5.736  33.084  62.915  1.00  0.00     0.038 A 
HETATM   32  C   UNL     1       5.056  33.652  63.997  1.00  0.00     0.040 A 
HETATM   33 CL   UNL     1       3.381  34.027  63.789  1.00  0.00    -0.084 Cl
HETATM   34  C   UNL     1       5.720  33.908  65.203  1.00  0.00    -0.040 A 
HETATM   35  C   UNL     1       5.020  34.533  66.377  1.00  0.00     0.050 C 
HETATM   36  C   UNL     1       7.080  33.583  65.296  1.00  0.00     0.009 A 
HETATM   37  C   UNL     1       7.759  33.013  64.212  1.00  0.00     0.015 A 
ENDBRANCH  27  30
ENDBRANCH  22  25
ENDBRANCH   1  21
TORSDOF 7
ENDMDL
