MODEL 1
REMARK VINA RESULT:      -9.5      0.000      0.000
REMARK  3 active torsions:
REMARK  status: ('A' for Active; 'I' for Inactive)
REMARK    1  A    between atoms: C_13  and  C_14 
REMARK    2  A    between atoms: C_14  and  N_15 
REMARK       I    between atoms: N_15  and  C_16 
REMARK    3  A    between atoms: C_16  and  C_17 
ROOT
HETATM    1  C   UNL     1       8.456  20.971  56.988  1.00  0.00     0.002 A 
HETATM    2  C   UNL     1       8.525  20.395  55.707  1.00  0.00     0.018 A 
HETATM    3  C   UNL     1       8.250  21.233  54.631  1.00  0.00     0.045 A 
HETATM    4  C   UNL     1       7.926  22.561  54.862  1.00  0.00     0.017 A 
HETATM    5  C   UNL     1       7.837  23.171  56.079  1.00  0.00    -0.015 A 
HETATM    6  C   UNL     1       8.120  22.329  57.181  1.00  0.00     0.013 A 
HETATM    7  C   UNL     1       7.706  23.172  53.649  1.00  0.00     0.047 A 
HETATM    8  N   UNL     1       7.890  22.216  52.667  1.00  0.00    -0.322 N 
HETATM    9  C   UNL     1       8.234  20.968  53.206  1.00  0.00     0.257 A 
HETATM   10  O   UNL     1       8.449  19.960  52.549  1.00  0.00    -0.267 OA
HETATM   11  C   UNL     1       7.372  24.507  53.560  1.00  0.00     0.031 A 
HETATM   12  C   UNL     1       7.263  25.189  54.789  1.00  0.00     0.012 A 
HETATM   13  C   UNL     1       7.474  24.549  56.046  1.00  0.00    -0.029 A 
HETATM   14  H   UNL     1       7.797  22.365  51.674  1.00  0.00     0.169 HD
ENDROOT
BRANCH  13  15
HETATM   15  C   UNL     1       7.329  25.367  57.305  1.00  0.00     0.162 C 
BRANCH  15  16
HETATM   16  N   UNL     1       8.220  26.499  57.302  1.00  0.00    -0.351 N 
HETATM   17  C   UNL     1       7.778  27.794  57.454  1.00  0.00     0.275 C 
HETATM   18  O   UNL     1       6.598  28.073  57.647  1.00  0.00    -0.265 OA
HETATM   19  H   UNL     1       9.193  26.369  57.048  1.00  0.00     0.163 HD
BRANCH  17  20
HETATM   20  C   UNL     1       8.832  28.784  57.370  1.00  0.00     0.142 A 
HETATM   21  O   UNL     1       9.075  29.608  58.441  1.00  0.00    -0.317 OA
HETATM   22  C   UNL     1      10.092  30.436  58.086  1.00  0.00     0.143 A 
HETATM   23  C   UNL     1      10.514  30.161  56.806  1.00  0.00     0.027 A 
HETATM   24  C   UNL     1       9.705  29.097  56.344  1.00  0.00     0.045 A 
ENDBRANCH  17  20
ENDBRANCH  15  16
ENDBRANCH  13  15
TORSDOF 3
ENDMDL
MODEL 2
REMARK VINA RESULT:      -9.2      1.290      2.392
REMARK  3 active torsions:
REMARK  status: ('A' for Active; 'I' for Inactive)
REMARK    1  A    between atoms: C_13  and  C_14 
REMARK    2  A    between atoms: C_14  and  N_15 
REMARK       I    between atoms: N_15  and  C_16 
REMARK    3  A    between atoms: C_16  and  C_17 
ROOT
HETATM    1  C   UNL     1       7.483  23.323  52.479  1.00  0.00     0.002 A 
HETATM    2  C   UNL     1       7.943  22.054  52.876  1.00  0.00     0.018 A 
HETATM    3  C   UNL     1       8.243  21.895  54.225  1.00  0.00     0.045 A 
HETATM    4  C   UNL     1       8.084  22.963  55.094  1.00  0.00     0.017 A 
HETATM    5  C   UNL     1       7.650  24.214  54.765  1.00  0.00    -0.015 A 
HETATM    6  C   UNL     1       7.337  24.387  53.396  1.00  0.00     0.013 A 
HETATM    7  C   UNL     1       8.438  22.552  56.359  1.00  0.00     0.047 A 
HETATM    8  N   UNL     1       8.822  21.227  56.268  1.00  0.00    -0.322 N 
HETATM    9  C   UNL     1       8.728  20.740  54.957  1.00  0.00     0.257 A 
HETATM   10  O   UNL     1       9.010  19.601  54.613  1.00  0.00    -0.267 OA
HETATM   11  C   UNL     1       8.374  23.404  57.442  1.00  0.00     0.031 A 
HETATM   12  C   UNL     1       7.933  24.712  57.160  1.00  0.00     0.012 A 
HETATM   13  C   UNL     1       7.584  25.141  55.846  1.00  0.00    -0.029 A 
HETATM   14  H   UNL     1       9.136  20.650  57.033  1.00  0.00     0.169 HD
ENDROOT
BRANCH  13  15
HETATM   15  C   UNL     1       7.129  26.565  55.650  1.00  0.00     0.162 C 
BRANCH  15  16
HETATM   16  N   UNL     1       8.126  27.503  56.101  1.00  0.00    -0.351 N 
HETATM   17  C   UNL     1       7.876  28.442  57.077  1.00  0.00     0.275 C 
HETATM   18  O   UNL     1       6.801  28.517  57.664  1.00  0.00    -0.265 OA
HETATM   19  H   UNL     1       9.004  27.579  55.601  1.00  0.00     0.163 HD
BRANCH  17  20
HETATM   20  C   UNL     1       8.997  29.319  57.344  1.00  0.00     0.142 A 
HETATM   21  O   UNL     1       8.873  30.310  58.285  1.00  0.00    -0.317 OA
HETATM   22  C   UNL     1      10.055  30.980  58.319  1.00  0.00     0.143 A 
HETATM   23  C   UNL     1      10.943  30.438  57.421  1.00  0.00     0.027 A 
HETATM   24  C   UNL     1      10.264  29.367  56.792  1.00  0.00     0.045 A 
ENDBRANCH  17  20
ENDBRANCH  15  16
ENDBRANCH  13  15
TORSDOF 3
ENDMDL
MODEL 3
REMARK VINA RESULT:      -9.0      1.591      2.194
REMARK  3 active torsions:
REMARK  status: ('A' for Active; 'I' for Inactive)
REMARK    1  A    between atoms: C_13  and  C_14 
REMARK    2  A    between atoms: C_14  and  N_15 
REMARK       I    between atoms: N_15  and  C_16 
REMARK    3  A    between atoms: C_16  and  C_17 
ROOT
HETATM    1  C   UNL     1       8.503  20.966  57.020  1.00  0.00     0.002 A 
HETATM    2  C   UNL     1       8.483  20.389  55.738  1.00  0.00     0.018 A 
HETATM    3  C   UNL     1       8.229  21.247  54.673  1.00  0.00     0.045 A 
HETATM    4  C   UNL     1       8.010  22.595  54.914  1.00  0.00     0.017 A 
HETATM    5  C   UNL     1       8.010  23.207  56.134  1.00  0.00    -0.015 A 
HETATM    6  C   UNL     1       8.273  22.344  57.225  1.00  0.00     0.013 A 
HETATM    7  C   UNL     1       7.790  23.223  53.711  1.00  0.00     0.047 A 
HETATM    8  N   UNL     1       7.868  22.258  52.723  1.00  0.00    -0.322 N 
HETATM    9  C   UNL     1       8.141  20.988  53.249  1.00  0.00     0.257 A 
HETATM   10  O   UNL     1       8.259  19.968  52.584  1.00  0.00    -0.267 OA
HETATM   11  C   UNL     1       7.549  24.579  53.634  1.00  0.00     0.031 A 
HETATM   12  C   UNL     1       7.535  25.264  54.866  1.00  0.00     0.012 A 
HETATM   13  C   UNL     1       7.746  24.608  56.114  1.00  0.00    -0.029 A 
HETATM   14  H   UNL     1       7.749  22.416  51.734  1.00  0.00     0.169 HD
ENDROOT
BRANCH  13  15
HETATM   15  C   UNL     1       7.706  25.431  57.377  1.00  0.00     0.162 C 
BRANCH  15  16
HETATM   16  N   UNL     1       6.841  26.573  57.233  1.00  0.00    -0.351 N 
HETATM   17  C   UNL     1       7.225  27.847  57.588  1.00  0.00     0.275 C 
HETATM   18  O   UNL     1       8.348  28.107  58.010  1.00  0.00    -0.265 OA
HETATM   19  H   UNL     1       5.866  26.436  56.991  1.00  0.00     0.163 HD
BRANCH  17  20
HETATM   20  C   UNL     1       6.187  28.841  57.411  1.00  0.00     0.142 A 
HETATM   21  O   UNL     1       6.402  30.129  57.835  1.00  0.00    -0.317 OA
HETATM   22  C   UNL     1       5.273  30.834  57.562  1.00  0.00     0.143 A 
HETATM   23  C   UNL     1       4.333  30.028  56.964  1.00  0.00     0.027 A 
HETATM   24  C   UNL     1       4.920  28.744  56.865  1.00  0.00     0.045 A 
ENDBRANCH  17  20
ENDBRANCH  15  16
ENDBRANCH  13  15
TORSDOF 3
ENDMDL
MODEL 4
REMARK VINA RESULT:      -8.8      1.329      1.972
REMARK  3 active torsions:
REMARK  status: ('A' for Active; 'I' for Inactive)
REMARK    1  A    between atoms: C_13  and  C_14 
REMARK    2  A    between atoms: C_14  and  N_15 
REMARK       I    between atoms: N_15  and  C_16 
REMARK    3  A    between atoms: C_16  and  C_17 
ROOT
HETATM    1  C   UNL     1       8.043  23.940  57.085  1.00  0.00     0.002 A 
HETATM    2  C   UNL     1       8.350  22.681  56.539  1.00  0.00     0.018 A 
HETATM    3  C   UNL     1       8.313  22.578  55.152  1.00  0.00     0.045 A 
HETATM    4  C   UNL     1       7.982  23.688  54.390  1.00  0.00     0.017 A 
HETATM    5  C   UNL     1       7.669  24.929  54.864  1.00  0.00    -0.015 A 
HETATM    6  C   UNL     1       7.708  25.047  56.273  1.00  0.00     0.013 A 
HETATM    7  C   UNL     1       8.020  23.331  53.062  1.00  0.00     0.047 A 
HETATM    8  N   UNL     1       8.372  21.995  53.004  1.00  0.00    -0.322 N 
HETATM    9  C   UNL     1       8.572  21.448  54.280  1.00  0.00     0.257 A 
HETATM   10  O   UNL     1       8.889  20.288  54.500  1.00  0.00    -0.267 OA
HETATM   11  C   UNL     1       7.742  24.238  52.060  1.00  0.00     0.031 A 
HETATM   12  C   UNL     1       7.410  25.537  52.492  1.00  0.00     0.012 A 
HETATM   13  C   UNL     1       7.353  25.900  53.869  1.00  0.00    -0.029 A 
HETATM   14  H   UNL     1       8.480  21.449  52.164  1.00  0.00     0.169 HD
ENDROOT
BRANCH  13  15
HETATM   15  C   UNL     1       6.981  27.317  54.227  1.00  0.00     0.162 C 
BRANCH  15  16
HETATM   16  N   UNL     1       7.987  27.931  55.055  1.00  0.00    -0.351 N 
HETATM   17  C   UNL     1       7.740  29.049  55.820  1.00  0.00     0.275 C 
HETATM   18  O   UNL     1       6.633  29.576  55.885  1.00  0.00    -0.265 OA
HETATM   19  H   UNL     1       8.951  27.625  54.982  1.00  0.00     0.163 HD
BRANCH  17  20
HETATM   20  C   UNL     1       8.901  29.536  56.536  1.00  0.00     0.142 A 
HETATM   21  O   UNL     1       8.760  30.003  57.819  1.00  0.00    -0.317 OA
HETATM   22  C   UNL     1       9.989  30.403  58.237  1.00  0.00     0.143 A 
HETATM   23  C   UNL     1      10.925  30.199  57.250  1.00  0.00     0.027 A 
HETATM   24  C   UNL     1      10.226  29.639  56.154  1.00  0.00     0.045 A 
ENDBRANCH  17  20
ENDBRANCH  15  16
ENDBRANCH  13  15
TORSDOF 3
ENDMDL
MODEL 5
REMARK VINA RESULT:      -8.5      6.242     11.404
REMARK  3 active torsions:
REMARK  status: ('A' for Active; 'I' for Inactive)
REMARK    1  A    between atoms: C_13  and  C_14 
REMARK    2  A    between atoms: C_14  and  N_15 
REMARK       I    between atoms: N_15  and  C_16 
REMARK    3  A    between atoms: C_16  and  C_17 
ROOT
HETATM    1  C   UNL     1       7.241  33.553  65.303  1.00  0.00     0.002 A 
HETATM    2  C   UNL     1       5.870  33.847  65.417  1.00  0.00     0.018 A 
HETATM    3  C   UNL     1       5.104  33.704  64.265  1.00  0.00     0.045 A 
HETATM    4  C   UNL     1       5.708  33.291  63.087  1.00  0.00     0.017 A 
HETATM    5  C   UNL     1       7.030  32.999  62.916  1.00  0.00    -0.015 A 
HETATM    6  C   UNL     1       7.818  33.137  64.083  1.00  0.00     0.013 A 
HETATM    7  C   UNL     1       4.746  33.222  62.106  1.00  0.00     0.047 A 
HETATM    8  N   UNL     1       3.545  33.599  62.679  1.00  0.00    -0.322 N 
HETATM    9  C   UNL     1       3.688  33.919  64.037  1.00  0.00     0.257 A 
HETATM   10  O   UNL     1       2.778  34.280  64.768  1.00  0.00    -0.267 OA
HETATM   11  C   UNL     1       5.050  32.829  60.819  1.00  0.00     0.031 A 
HETATM   12  C   UNL     1       6.404  32.517  60.584  1.00  0.00     0.012 A 
HETATM   13  C   UNL     1       7.403  32.606  61.598  1.00  0.00    -0.029 A 
HETATM   14  H   UNL     1       2.656  33.648  62.207  1.00  0.00     0.169 HD
ENDROOT
BRANCH  13  15
HETATM   15  C   UNL     1       8.825  32.254  61.242  1.00  0.00     0.162 C 
BRANCH  15  16
HETATM   16  N   UNL     1       8.876  31.193  60.268  1.00  0.00    -0.351 N 
HETATM   17  C   UNL     1       9.494  31.335  59.046  1.00  0.00     0.275 C 
HETATM   18  O   UNL     1      10.083  32.360  58.715  1.00  0.00    -0.265 OA
HETATM   19  H   UNL     1       8.330  30.352  60.415  1.00  0.00     0.163 HD
BRANCH  17  20
HETATM   20  C   UNL     1       9.385  30.165  58.198  1.00  0.00     0.142 A 
HETATM   21  O   UNL     1       8.363  29.272  58.401  1.00  0.00    -0.317 OA
HETATM   22  C   UNL     1       8.511  28.279  57.486  1.00  0.00     0.143 A 
HETATM   23  C   UNL     1       9.608  28.514  56.691  1.00  0.00     0.027 A 
HETATM   24  C   UNL     1      10.172  29.729  57.147  1.00  0.00     0.045 A 
ENDBRANCH  17  20
ENDBRANCH  15  16
ENDBRANCH  13  15
TORSDOF 3
ENDMDL
MODEL 6
REMARK VINA RESULT:      -8.4      5.867     10.948
REMARK  3 active torsions:
REMARK  status: ('A' for Active; 'I' for Inactive)
REMARK    1  A    between atoms: C_13  and  C_14 
REMARK    2  A    between atoms: C_14  and  N_15 
REMARK       I    between atoms: N_15  and  C_16 
REMARK    3  A    between atoms: C_16  and  C_17 
ROOT
HETATM    1  C   UNL     1       5.082  32.714  59.707  1.00  0.00     0.002 A 
HETATM    2  C   UNL     1       4.050  32.989  60.622  1.00  0.00     0.018 A 
HETATM    3  C   UNL     1       4.414  33.087  61.962  1.00  0.00     0.045 A 
HETATM    4  C   UNL     1       5.740  32.912  62.326  1.00  0.00     0.017 A 
HETATM    5  C   UNL     1       6.780  32.637  61.486  1.00  0.00    -0.015 A 
HETATM    6  C   UNL     1       6.421  32.540  60.120  1.00  0.00     0.013 A 
HETATM    7  C   UNL     1       5.840  33.063  63.690  1.00  0.00     0.047 A 
HETATM    8  N   UNL     1       4.570  33.326  64.169  1.00  0.00    -0.322 N 
HETATM    9  C   UNL     1       3.616  33.357  63.142  1.00  0.00     0.257 A 
HETATM   10  O   UNL     1       2.423  33.570  63.304  1.00  0.00    -0.267 OA
HETATM   11  C   UNL     1       7.049  32.951  64.345  1.00  0.00     0.031 A 
HETATM   12  C   UNL     1       8.159  32.665  63.525  1.00  0.00     0.012 A 
HETATM   13  C   UNL     1       8.051  32.491  62.114  1.00  0.00    -0.029 A 
HETATM   14  H   UNL     1       4.325  33.483  65.134  1.00  0.00     0.169 HD
ENDROOT
BRANCH  13  15
HETATM   15  C   UNL     1       9.299  32.182  61.327  1.00  0.00     0.162 C 
BRANCH  15  16
HETATM   16  N   UNL     1       9.077  31.114  60.386  1.00  0.00    -0.351 N 
HETATM   17  C   UNL     1       9.468  31.190  59.068  1.00  0.00     0.275 C 
HETATM   18  O   UNL     1      10.075  32.155  58.612  1.00  0.00    -0.265 OA
HETATM   19  H   UNL     1       8.495  30.328  60.651  1.00  0.00     0.163 HD
BRANCH  17  20
HETATM   20  C   UNL     1       9.103  30.030  58.282  1.00  0.00     0.142 A 
HETATM   21  O   UNL     1       8.073  29.225  58.700  1.00  0.00    -0.317 OA
HETATM   22  C   UNL     1       7.959  28.218  57.794  1.00  0.00     0.143 A 
HETATM   23  C   UNL     1       8.894  28.359  56.796  1.00  0.00     0.027 A 
HETATM   24  C   UNL     1       9.631  29.526  57.108  1.00  0.00     0.045 A 
ENDBRANCH  17  20
ENDBRANCH  15  16
ENDBRANCH  13  15
TORSDOF 3
ENDMDL
MODEL 7
REMARK VINA RESULT:      -8.4      3.780      5.675
REMARK  3 active torsions:
REMARK  status: ('A' for Active; 'I' for Inactive)
REMARK    1  A    between atoms: C_13  and  C_14 
REMARK    2  A    between atoms: C_14  and  N_15 
REMARK       I    between atoms: N_15  and  C_16 
REMARK    3  A    between atoms: C_16  and  C_17 
ROOT
HETATM    1  C   UNL     1       8.098  24.892  57.359  1.00  0.00     0.002 A 
HETATM    2  C   UNL     1       8.486  23.541  57.354  1.00  0.00     0.018 A 
HETATM    3  C   UNL     1       8.490  22.898  56.119  1.00  0.00     0.045 A 
HETATM    4  C   UNL     1       8.119  23.597  54.981  1.00  0.00     0.017 A 
HETATM    5  C   UNL     1       7.728  24.904  54.927  1.00  0.00    -0.015 A 
HETATM    6  C   UNL     1       7.725  25.569  56.177  1.00  0.00     0.013 A 
HETATM    7  C   UNL     1       8.210  22.751  53.901  1.00  0.00     0.047 A 
HETATM    8  N   UNL     1       8.634  21.523  54.375  1.00  0.00    -0.322 N 
HETATM    9  C   UNL     1       8.831  21.535  55.763  1.00  0.00     0.257 A 
HETATM   10  O   UNL     1       9.204  20.576  56.423  1.00  0.00    -0.267 OA
HETATM   11  C   UNL     1       7.909  23.172  52.622  1.00  0.00     0.031 A 
HETATM   12  C   UNL     1       7.497  24.514  52.507  1.00  0.00     0.012 A 
HETATM   13  C   UNL     1       7.385  25.385  53.630  1.00  0.00    -0.029 A 
HETATM   14  H   UNL     1       8.793  20.698  53.818  1.00  0.00     0.169 HD
ENDROOT
BRANCH  13  15
HETATM   15  C   UNL     1       6.929  26.804  53.400  1.00  0.00     0.162 C 
BRANCH  15  16
HETATM   16  N   UNL     1       6.304  26.953  52.110  1.00  0.00    -0.351 N 
HETATM   17  C   UNL     1       4.963  27.229  51.961  1.00  0.00     0.275 C 
HETATM   18  O   UNL     1       4.214  27.413  52.916  1.00  0.00    -0.265 OA
HETATM   19  H   UNL     1       6.823  26.717  51.273  1.00  0.00     0.163 HD
BRANCH  17  20
HETATM   20  C   UNL     1       4.529  27.287  50.581  1.00  0.00     0.142 A 
HETATM   21  O   UNL     1       3.856  28.394  50.127  1.00  0.00    -0.317 OA
HETATM   22  C   UNL     1       3.561  28.175  48.819  1.00  0.00     0.143 A 
HETATM   23  C   UNL     1       4.034  26.948  48.416  1.00  0.00     0.027 A 
HETATM   24  C   UNL     1       4.658  26.375  49.549  1.00  0.00     0.045 A 
ENDBRANCH  17  20
ENDBRANCH  15  16
ENDBRANCH  13  15
TORSDOF 3
ENDMDL
MODEL 8
REMARK VINA RESULT:      -8.3      5.754     10.889
REMARK  3 active torsions:
REMARK  status: ('A' for Active; 'I' for Inactive)
REMARK    1  A    between atoms: C_13  and  C_14 
REMARK    2  A    between atoms: C_14  and  N_15 
REMARK       I    between atoms: N_15  and  C_16 
REMARK    3  A    between atoms: C_16  and  C_17 
ROOT
HETATM    1  C   UNL     1       8.235  32.659  63.388  1.00  0.00     0.002 A 
HETATM    2  C   UNL     1       7.221  32.980  64.308  1.00  0.00     0.018 A 
HETATM    3  C   UNL     1       5.922  33.033  63.811  1.00  0.00     0.045 A 
HETATM    4  C   UNL     1       5.691  32.779  62.469  1.00  0.00     0.017 A 
HETATM    5  C   UNL     1       6.633  32.470  61.531  1.00  0.00    -0.015 A 
HETATM    6  C   UNL     1       7.957  32.408  62.026  1.00  0.00     0.013 A 
HETATM    7  C   UNL     1       4.340  32.888  62.231  1.00  0.00     0.047 A 
HETATM    8  N   UNL     1       3.737  33.216  63.431  1.00  0.00    -0.322 N 
HETATM    9  C   UNL     1       4.667  33.327  64.475  1.00  0.00     0.257 A 
HETATM   10  O   UNL     1       4.387  33.608  65.631  1.00  0.00    -0.267 OA
HETATM   11  C   UNL     1       3.805  32.679  60.977  1.00  0.00     0.031 A 
HETATM   12  C   UNL     1       4.734  32.359  59.967  1.00  0.00     0.012 A 
HETATM   13  C   UNL     1       6.136  32.264  60.211  1.00  0.00    -0.029 A 
HETATM   14  H   UNL     1       2.750  33.365  63.574  1.00  0.00     0.169 HD
ENDROOT
BRANCH  13  15
HETATM   15  C   UNL     1       7.046  31.921  59.059  1.00  0.00     0.162 C 
BRANCH  15  16
HETATM   16  N   UNL     1       6.786  30.595  58.559  1.00  0.00    -0.351 N 
HETATM   17  C   UNL     1       7.755  29.619  58.498  1.00  0.00     0.275 C 
HETATM   18  O   UNL     1       8.900  29.795  58.906  1.00  0.00    -0.265 OA
HETATM   19  H   UNL     1       5.900  30.395  58.109  1.00  0.00     0.163 HD
BRANCH  17  20
HETATM   20  C   UNL     1       7.296  28.375  57.915  1.00  0.00     0.142 A 
HETATM   21  O   UNL     1       8.008  27.222  58.131  1.00  0.00    -0.317 OA
HETATM   22  C   UNL     1       7.368  26.226  57.466  1.00  0.00     0.143 A 
HETATM   23  C   UNL     1       6.252  26.712  56.826  1.00  0.00     0.027 A 
HETATM   24  C   UNL     1       6.204  28.096  57.115  1.00  0.00     0.045 A 
ENDBRANCH  17  20
ENDBRANCH  15  16
ENDBRANCH  13  15
TORSDOF 3
ENDMDL
MODEL 9
REMARK VINA RESULT:      -8.3      3.171      4.223
REMARK  3 active torsions:
REMARK  status: ('A' for Active; 'I' for Inactive)
REMARK    1  A    between atoms: C_13  and  C_14 
REMARK    2  A    between atoms: C_14  and  N_15 
REMARK       I    between atoms: N_15  and  C_16 
REMARK    3  A    between atoms: C_16  and  C_17 
ROOT
HETATM    1  C   UNL     1       7.758  23.089  52.899  1.00  0.00     0.002 A 
HETATM    2  C   UNL     1       8.033  22.222  53.972  1.00  0.00     0.018 A 
HETATM    3  C   UNL     1       8.103  22.798  55.236  1.00  0.00     0.045 A 
HETATM    4  C   UNL     1       7.907  24.163  55.380  1.00  0.00     0.017 A 
HETATM    5  C   UNL     1       7.645  25.052  54.378  1.00  0.00    -0.015 A 
HETATM    6  C   UNL     1       7.567  24.476  53.088  1.00  0.00     0.013 A 
HETATM    7  C   UNL     1       8.020  24.481  56.714  1.00  0.00     0.047 A 
HETATM    8  N   UNL     1       8.292  23.308  57.395  1.00  0.00    -0.322 N 
HETATM    9  C   UNL     1       8.361  22.204  56.534  1.00  0.00     0.257 A 
HETATM   10  O   UNL     1       8.589  21.056  56.888  1.00  0.00    -0.267 OA
HETATM   11  C   UNL     1       7.865  25.775  57.167  1.00  0.00     0.031 A 
HETATM   12  C   UNL     1       7.594  26.737  56.173  1.00  0.00     0.012 A 
HETATM   13  C   UNL     1       7.495  26.408  54.789  1.00  0.00    -0.029 A 
HETATM   14  H   UNL     1       8.430  23.222  58.390  1.00  0.00     0.169 HD
ENDROOT
BRANCH  13  15
HETATM   15  C   UNL     1       7.207  27.513  53.805  1.00  0.00     0.162 C 
BRANCH  15  16
HETATM   16  N   UNL     1       6.535  28.620  54.437  1.00  0.00    -0.351 N 
HETATM   17  C   UNL     1       5.166  28.765  54.423  1.00  0.00     0.275 C 
HETATM   18  O   UNL     1       4.417  27.938  53.909  1.00  0.00    -0.265 OA
HETATM   19  H   UNL     1       7.078  29.398  54.793  1.00  0.00     0.163 HD
BRANCH  17  20
HETATM   20  C   UNL     1       4.699  29.973  55.071  1.00  0.00     0.142 A 
HETATM   21  O   UNL     1       5.534  30.649  55.926  1.00  0.00    -0.317 OA
HETATM   22  C   UNL     1       4.843  31.720  56.396  1.00  0.00     0.143 A 
HETATM   23  C   UNL     1       3.577  31.752  55.858  1.00  0.00     0.027 A 
HETATM   24  C   UNL     1       3.483  30.628  55.004  1.00  0.00     0.045 A 
ENDBRANCH  17  20
ENDBRANCH  15  16
ENDBRANCH  13  15
TORSDOF 3
ENDMDL
MODEL 10
REMARK VINA RESULT:      -8.3      2.283      7.524
REMARK  3 active torsions:
REMARK  status: ('A' for Active; 'I' for Inactive)
REMARK    1  A    between atoms: C_13  and  C_14 
REMARK    2  A    between atoms: C_14  and  N_15 
REMARK       I    between atoms: N_15  and  C_16 
REMARK    3  A    between atoms: C_16  and  C_17 
ROOT
HETATM    1  C   UNL     1       8.831  29.348  57.337  1.00  0.00     0.002 A 
HETATM    2  C   UNL     1       7.617  30.056  57.300  1.00  0.00     0.018 A 
HETATM    3  C   UNL     1       6.456  29.297  57.193  1.00  0.00     0.045 A 
HETATM    4  C   UNL     1       6.543  27.916  57.127  1.00  0.00     0.017 A 
HETATM    5  C   UNL     1       7.690  27.177  57.151  1.00  0.00    -0.015 A 
HETATM    6  C   UNL     1       8.878  27.938  57.265  1.00  0.00     0.013 A 
HETATM    7  C   UNL     1       5.270  27.403  57.032  1.00  0.00     0.047 A 
HETATM    8  N   UNL     1       4.394  28.473  57.034  1.00  0.00    -0.322 N 
HETATM    9  C   UNL     1       5.064  29.701  57.132  1.00  0.00     0.257 A 
HETATM   10  O   UNL     1       4.518  30.794  57.154  1.00  0.00    -0.267 OA
HETATM   11  C   UNL     1       5.039  26.045  56.958  1.00  0.00     0.031 A 
HETATM   12  C   UNL     1       6.190  25.232  56.976  1.00  0.00     0.012 A 
HETATM   13  C   UNL     1       7.510  25.766  57.057  1.00  0.00    -0.029 A 
HETATM   14  H   UNL     1       3.390  28.413  56.975  1.00  0.00     0.169 HD
ENDROOT
BRANCH  13  15
HETATM   15  C   UNL     1       8.675  24.810  57.065  1.00  0.00     0.162 C 
BRANCH  15  16
HETATM   16  N   UNL     1       8.586  23.862  55.983  1.00  0.00    -0.351 N 
HETATM   17  C   UNL     1       8.481  22.505  56.190  1.00  0.00     0.275 C 
HETATM   18  O   UNL     1       8.411  22.009  57.311  1.00  0.00    -0.265 OA
HETATM   19  H   UNL     1       8.739  24.174  55.031  1.00  0.00     0.163 HD
BRANCH  17  20
HETATM   20  C   UNL     1       8.457  21.728  54.968  1.00  0.00     0.142 A 
HETATM   21  O   UNL     1       8.921  20.437  54.976  1.00  0.00    -0.317 OA
HETATM   22  C   UNL     1       8.795  19.958  53.711  1.00  0.00     0.143 A 
HETATM   23  C   UNL     1       8.253  20.914  52.884  1.00  0.00     0.027 A 
HETATM   24  C   UNL     1       8.033  22.054  53.692  1.00  0.00     0.045 A 
ENDBRANCH  17  20
ENDBRANCH  15  16
ENDBRANCH  13  15
TORSDOF 3
ENDMDL
