MODEL 1
REMARK VINA RESULT:     -10.1      0.000      0.000
REMARK  6 active torsions:
REMARK  status: ('A' for Active; 'I' for Inactive)
REMARK    1  A    between atoms: C_4  and  C_5 
REMARK    2  A    between atoms: C_5  and  O_6 
REMARK    3  A    between atoms: O_6  and  C_7 
REMARK    4  A    between atoms: C_10  and  C_11 
REMARK    5  A    between atoms: C_17  and  C_18 
REMARK    6  A    between atoms: C_27  and  N_28 
ROOT
HETATM    1  C   UNL     1       9.015  28.943  57.029  1.00  0.00     0.072 A 
HETATM    2  N   UNL     1      10.272  29.306  56.585  1.00  0.00    -0.274 N 
HETATM    3  H   UNL     1      10.849  28.821  55.906  1.00  0.00     0.189 HD
HETATM    4  N   UNL     1      10.767  30.418  57.164  1.00  0.00    -0.148 NA
HETATM    5  C   UNL     1       9.796  30.757  57.998  1.00  0.00     0.199 A 
HETATM    6  C   UNL     1       8.677  29.921  57.953  1.00  0.00     0.040 A 
HETATM    7  C   UNL     1       7.499  30.197  58.819  1.00  0.00     0.107 A 
HETATM    8  C   UNL     1       7.781  31.348  59.777  1.00  0.00     0.081 A 
HETATM    9  C   UNL     1       6.793  31.602  60.776  1.00  0.00     0.100 C 
HETATM   10  N   UNL     1       5.981  31.798  61.581  1.00  0.00    -0.191 NA
HETATM   11  C   UNL     1       8.924  32.080  59.736  1.00  0.00     0.140 A 
HETATM   12  O   UNL     1       9.937  31.827  58.801  1.00  0.00    -0.277 OA
ENDROOT
BRANCH   7  13
HETATM   13  C   UNL     1       6.335  30.479  57.888  1.00  0.00    -0.027 A 
HETATM   14  C   UNL     1       6.067  31.751  57.376  1.00  0.00     0.124 A 
HETATM   15  N   UNL     1       5.010  32.051  56.588  1.00  0.00    -0.273 NA
HETATM   16  C   UNL     1       4.168  31.040  56.289  1.00  0.00     0.116 A 
HETATM   17  C   UNL     1       4.335  29.743  56.740  1.00  0.00     0.020 A 
HETATM   18  C   UNL     1       5.431  29.462  57.551  1.00  0.00     0.011 A 
ENDBRANCH   7  13
BRANCH  11  19
HETATM   19  N   UNL     1       9.228  33.128  60.577  1.00  0.00    -0.282 NA
HETATM   20  H   UNL     1       8.509  33.382  61.250  1.00  0.00     0.126 HD
HETATM   21  H   UNL     1       9.603  33.929  60.071  1.00  0.00     0.126 HD
ENDBRANCH  11  19
BRANCH   1  22
HETATM   22  C   UNL     1       8.322  27.753  56.546  1.00  0.00    -0.007 A 
HETATM   23  C   UNL     1       7.780  27.716  55.258  1.00  0.00     0.016 A 
HETATM   24  C   UNL     1       7.119  26.573  54.799  1.00  0.00     0.037 A 
HETATM   25  C   UNL     1       6.979  25.452  55.618  1.00  0.00     0.069 A 
HETATM   26  C   UNL     1       7.501  25.487  56.909  1.00  0.00     0.037 A 
HETATM   27  C   UNL     1       8.173  26.628  57.367  1.00  0.00     0.016 A 
BRANCH  25  28
HETATM   28  O   UNL     1       6.325  24.402  55.038  1.00  0.00    -0.347 OA
BRANCH  28  29
HETATM   29  C   UNL     1       6.865  23.885  53.819  1.00  0.00     0.214 C 
BRANCH  29  30
HETATM   30  C   UNL     1       7.517  22.548  54.077  1.00  0.00    -0.034 A 
HETATM   31  C   UNL     1       7.587  22.038  55.383  1.00  0.00     0.009 A 
HETATM   32  C   UNL     1       8.168  20.793  55.630  1.00  0.00     0.001 A 
HETATM   33  C   UNL     1       8.678  20.039  54.577  1.00  0.00     0.000 A 
HETATM   34  C   UNL     1       8.602  20.525  53.273  1.00  0.00     0.001 A 
HETATM   35  C   UNL     1       8.019  21.769  53.024  1.00  0.00     0.009 A 
ENDBRANCH  29  30
ENDBRANCH  28  29
ENDBRANCH  25  28
ENDBRANCH   1  22
TORSDOF 6
ENDMDL
MODEL 2
REMARK VINA RESULT:      -9.6      1.523      2.017
REMARK  6 active torsions:
REMARK  status: ('A' for Active; 'I' for Inactive)
REMARK    1  A    between atoms: C_4  and  C_5 
REMARK    2  A    between atoms: C_5  and  O_6 
REMARK    3  A    between atoms: O_6  and  C_7 
REMARK    4  A    between atoms: C_10  and  C_11 
REMARK    5  A    between atoms: C_17  and  C_18 
REMARK    6  A    between atoms: C_27  and  N_28 
ROOT
HETATM    1  C   UNL     1       7.847  29.526  57.436  1.00  0.00     0.072 A 
HETATM    2  N   UNL     1       9.135  29.908  57.754  1.00  0.00    -0.274 N 
HETATM    3  H   UNL     1      10.000  29.458  57.469  1.00  0.00     0.189 HD
HETATM    4  N   UNL     1       9.214  30.984  58.561  1.00  0.00    -0.148 NA
HETATM    5  C   UNL     1       7.938  31.282  58.758  1.00  0.00     0.199 A 
HETATM    6  C   UNL     1       7.040  30.453  58.079  1.00  0.00     0.040 A 
HETATM    7  C   UNL     1       5.575  30.686  58.188  1.00  0.00     0.107 A 
HETATM    8  C   UNL     1       5.268  31.782  59.202  1.00  0.00     0.081 A 
HETATM    9  C   UNL     1       3.892  31.985  59.524  1.00  0.00     0.100 C 
HETATM   10  N   UNL     1       2.771  32.140  59.775  1.00  0.00    -0.191 NA
HETATM   11  C   UNL     1       6.235  32.511  59.816  1.00  0.00     0.140 A 
HETATM   12  O   UNL     1       7.598  32.306  59.561  1.00  0.00    -0.277 OA
ENDROOT
BRANCH   7  13
HETATM   13  C   UNL     1       5.086  31.023  56.792  1.00  0.00    -0.027 A 
HETATM   14  C   UNL     1       5.243  32.287  56.220  1.00  0.00     0.124 A 
HETATM   15  N   UNL     1       4.774  32.639  55.002  1.00  0.00    -0.273 NA
HETATM   16  C   UNL     1       4.109  31.691  54.309  1.00  0.00     0.116 A 
HETATM   17  C   UNL     1       3.894  30.408  54.778  1.00  0.00     0.020 A 
HETATM   18  C   UNL     1       4.387  30.072  56.035  1.00  0.00     0.011 A 
ENDBRANCH   7  13
BRANCH  11  19
HETATM   19  N   UNL     1       6.013  33.511  60.738  1.00  0.00    -0.282 NA
HETATM   20  H   UNL     1       6.735  33.633  61.444  1.00  0.00     0.126 HD
HETATM   21  H   UNL     1       5.074  33.469  61.130  1.00  0.00     0.126 HD
ENDBRANCH  11  19
BRANCH   1  22
HETATM   22  C   UNL     1       7.552  28.366  56.600  1.00  0.00    -0.007 A 
HETATM   23  C   UNL     1       7.588  28.464  55.205  1.00  0.00     0.016 A 
HETATM   24  C   UNL     1       7.308  27.350  54.409  1.00  0.00     0.037 A 
HETATM   25  C   UNL     1       6.979  26.124  54.987  1.00  0.00     0.069 A 
HETATM   26  C   UNL     1       6.924  26.022  56.375  1.00  0.00     0.037 A 
HETATM   27  C   UNL     1       7.215  27.135  57.175  1.00  0.00     0.016 A 
BRANCH  25  28
HETATM   28  O   UNL     1       6.743  25.118  54.093  1.00  0.00    -0.347 OA
BRANCH  28  29
HETATM   29  C   UNL     1       7.881  24.465  53.524  1.00  0.00     0.214 C 
BRANCH  29  30
HETATM   30  C   UNL     1       7.900  23.015  53.944  1.00  0.00    -0.034 A 
HETATM   31  C   UNL     1       7.939  22.002  52.973  1.00  0.00     0.009 A 
HETATM   32  C   UNL     1       7.978  20.658  53.349  1.00  0.00     0.001 A 
HETATM   33  C   UNL     1       7.987  20.310  54.698  1.00  0.00     0.000 A 
HETATM   34  C   UNL     1       7.964  21.306  55.672  1.00  0.00     0.001 A 
HETATM   35  C   UNL     1       7.928  22.650  55.298  1.00  0.00     0.009 A 
ENDBRANCH  29  30
ENDBRANCH  28  29
ENDBRANCH  25  28
ENDBRANCH   1  22
TORSDOF 6
ENDMDL
MODEL 3
REMARK VINA RESULT:      -9.5      1.720      2.685
REMARK  6 active torsions:
REMARK  status: ('A' for Active; 'I' for Inactive)
REMARK    1  A    between atoms: C_4  and  C_5 
REMARK    2  A    between atoms: C_5  and  O_6 
REMARK    3  A    between atoms: O_6  and  C_7 
REMARK    4  A    between atoms: C_10  and  C_11 
REMARK    5  A    between atoms: C_17  and  C_18 
REMARK    6  A    between atoms: C_27  and  N_28 
ROOT
HETATM    1  C   UNL     1       7.932  30.762  58.448  1.00  0.00     0.072 A 
HETATM    2  N   UNL     1       9.215  31.271  58.477  1.00  0.00    -0.274 N 
HETATM    3  H   UNL     1      10.006  30.982  57.910  1.00  0.00     0.189 HD
HETATM    4  N   UNL     1       9.410  32.240  59.394  1.00  0.00    -0.148 NA
HETATM    5  C   UNL     1       8.217  32.335  59.960  1.00  0.00     0.199 A 
HETATM    6  C   UNL     1       7.250  31.484  59.417  1.00  0.00     0.040 A 
HETATM    7  C   UNL     1       5.856  31.502  59.938  1.00  0.00     0.107 A 
HETATM    8  C   UNL     1       5.738  32.412  61.155  1.00  0.00     0.081 A 
HETATM    9  C   UNL     1       4.492  32.385  61.852  1.00  0.00     0.100 C 
HETATM   10  N   UNL     1       3.475  32.354  62.407  1.00  0.00    -0.191 NA
HETATM   11  C   UNL     1       6.763  33.182  61.603  1.00  0.00     0.140 A 
HETATM   12  O   UNL     1       8.015  33.196  60.974  1.00  0.00    -0.277 OA
ENDROOT
BRANCH   7  13
HETATM   13  C   UNL     1       4.970  31.941  58.788  1.00  0.00    -0.027 A 
HETATM   14  C   UNL     1       3.872  31.197  58.351  1.00  0.00     0.124 A 
HETATM   15  N   UNL     1       3.093  31.529  57.297  1.00  0.00    -0.273 NA
HETATM   16  C   UNL     1       3.415  32.659  56.635  1.00  0.00     0.116 A 
HETATM   17  C   UNL     1       4.480  33.473  56.979  1.00  0.00     0.020 A 
HETATM   18  C   UNL     1       5.266  33.107  58.067  1.00  0.00     0.011 A 
ENDBRANCH   7  13
BRANCH  11  19
HETATM   19  N   UNL     1       6.710  34.020  62.696  1.00  0.00    -0.282 NA
HETATM   20  H   UNL     1       5.939  33.862  63.340  1.00  0.00     0.126 HD
HETATM   21  H   UNL     1       6.818  34.998  62.434  1.00  0.00     0.126 HD
ENDBRANCH  11  19
BRANCH   1  22
HETATM   22  C   UNL     1       7.530  29.687  57.547  1.00  0.00    -0.007 A 
HETATM   23  C   UNL     1       7.923  28.367  57.790  1.00  0.00     0.016 A 
HETATM   24  C   UNL     1       7.534  27.341  56.925  1.00  0.00     0.037 A 
HETATM   25  C   UNL     1       6.755  27.612  55.800  1.00  0.00     0.069 A 
HETATM   26  C   UNL     1       6.373  28.927  55.540  1.00  0.00     0.037 A 
HETATM   27  C   UNL     1       6.754  29.956  56.412  1.00  0.00     0.016 A 
BRANCH  25  28
HETATM   28  O   UNL     1       6.435  26.515  55.050  1.00  0.00    -0.347 OA
BRANCH  28  29
HETATM   29  C   UNL     1       7.369  26.112  54.045  1.00  0.00     0.214 C 
BRANCH  29  30
HETATM   30  C   UNL     1       7.538  24.612  54.078  1.00  0.00    -0.034 A 
HETATM   31  C   UNL     1       7.405  23.915  55.290  1.00  0.00     0.009 A 
HETATM   32  C   UNL     1       7.537  22.526  55.329  1.00  0.00     0.001 A 
HETATM   33  C   UNL     1       7.795  21.816  54.159  1.00  0.00     0.000 A 
HETATM   34  C   UNL     1       7.914  22.493  52.947  1.00  0.00     0.001 A 
HETATM   35  C   UNL     1       7.780  23.882  52.906  1.00  0.00     0.009 A 
ENDBRANCH  29  30
ENDBRANCH  28  29
ENDBRANCH  25  28
ENDBRANCH   1  22
TORSDOF 6
ENDMDL
MODEL 4
REMARK VINA RESULT:      -9.4      5.147      7.515
REMARK  6 active torsions:
REMARK  status: ('A' for Active; 'I' for Inactive)
REMARK    1  A    between atoms: C_4  and  C_5 
REMARK    2  A    between atoms: C_5  and  O_6 
REMARK    3  A    between atoms: O_6  and  C_7 
REMARK    4  A    between atoms: C_10  and  C_11 
REMARK    5  A    between atoms: C_17  and  C_18 
REMARK    6  A    between atoms: C_27  and  N_28 
ROOT
HETATM    1  C   UNL     1       4.946  26.371  50.651  1.00  0.00     0.072 A 
HETATM    2  N   UNL     1       4.239  25.548  49.797  1.00  0.00    -0.274 N 
HETATM    3  H   UNL     1       4.061  24.555  49.904  1.00  0.00     0.189 HD
HETATM    4  N   UNL     1       3.771  26.162  48.692  1.00  0.00    -0.148 NA
HETATM    5  C   UNL     1       4.204  27.403  48.855  1.00  0.00     0.199 A 
HETATM    6  C   UNL     1       4.906  27.618  50.045  1.00  0.00     0.040 A 
HETATM    7  C   UNL     1       5.430  28.972  50.373  1.00  0.00     0.107 A 
HETATM    8  C   UNL     1       5.217  29.938  49.213  1.00  0.00     0.081 A 
HETATM    9  C   UNL     1       5.825  31.223  49.335  1.00  0.00     0.100 C 
HETATM   10  N   UNL     1       6.324  32.264  49.448  1.00  0.00    -0.191 NA
HETATM   11  C   UNL     1       4.529  29.604  48.091  1.00  0.00     0.140 A 
HETATM   12  O   UNL     1       3.960  28.335  47.916  1.00  0.00    -0.277 OA
ENDROOT
BRANCH   7  13
HETATM   13  C   UNL     1       4.724  29.413  51.641  1.00  0.00    -0.027 A 
HETATM   14  C   UNL     1       3.550  30.170  51.630  1.00  0.00     0.124 A 
HETATM   15  N   UNL     1       2.923  30.625  52.738  1.00  0.00    -0.273 NA
HETATM   16  C   UNL     1       3.487  30.319  53.925  1.00  0.00     0.116 A 
HETATM   17  C   UNL     1       4.647  29.576  54.055  1.00  0.00     0.020 A 
HETATM   18  C   UNL     1       5.272  29.121  52.898  1.00  0.00     0.011 A 
ENDBRANCH   7  13
BRANCH  11  19
HETATM   19  N   UNL     1       4.308  30.437  47.016  1.00  0.00    -0.282 NA
HETATM   20  H   UNL     1       4.179  31.421  47.235  1.00  0.00     0.126 HD
HETATM   21  H   UNL     1       3.595  30.070  46.387  1.00  0.00     0.126 HD
ENDBRANCH  11  19
BRANCH   1  22
HETATM   22  C   UNL     1       5.558  25.888  51.885  1.00  0.00    -0.007 A 
HETATM   23  C   UNL     1       4.770  25.361  52.913  1.00  0.00     0.016 A 
HETATM   24  C   UNL     1       5.361  24.897  54.092  1.00  0.00     0.037 A 
HETATM   25  C   UNL     1       6.743  24.957  54.269  1.00  0.00     0.069 A 
HETATM   26  C   UNL     1       7.534  25.496  53.257  1.00  0.00     0.037 A 
HETATM   27  C   UNL     1       6.945  25.953  52.071  1.00  0.00     0.016 A 
BRANCH  25  28
HETATM   28  O   UNL     1       7.186  24.457  55.461  1.00  0.00    -0.347 OA
BRANCH  28  29
HETATM   29  C   UNL     1       8.533  23.977  55.512  1.00  0.00     0.214 C 
BRANCH  29  30
HETATM   30  C   UNL     1       8.569  22.518  55.125  1.00  0.00    -0.034 A 
HETATM   31  C   UNL     1       8.762  22.150  53.784  1.00  0.00     0.009 A 
HETATM   32  C   UNL     1       8.819  20.804  53.417  1.00  0.00     0.001 A 
HETATM   33  C   UNL     1       8.693  19.811  54.385  1.00  0.00     0.000 A 
HETATM   34  C   UNL     1       8.517  20.162  55.722  1.00  0.00     0.001 A 
HETATM   35  C   UNL     1       8.462  21.507  56.091  1.00  0.00     0.009 A 
ENDBRANCH  29  30
ENDBRANCH  28  29
ENDBRANCH  25  28
ENDBRANCH   1  22
TORSDOF 6
ENDMDL
MODEL 5
REMARK VINA RESULT:      -9.1      3.216      8.931
REMARK  6 active torsions:
REMARK  status: ('A' for Active; 'I' for Inactive)
REMARK    1  A    between atoms: C_4  and  C_5 
REMARK    2  A    between atoms: C_5  and  O_6 
REMARK    3  A    between atoms: O_6  and  C_7 
REMARK    4  A    between atoms: C_10  and  C_11 
REMARK    5  A    between atoms: C_17  and  C_18 
REMARK    6  A    between atoms: C_27  and  N_28 
ROOT
HETATM    1  C   UNL     1       4.847  29.587  56.377  1.00  0.00     0.072 A 
HETATM    2  N   UNL     1       4.052  29.586  55.248  1.00  0.00    -0.274 N 
HETATM    3  H   UNL     1       3.355  30.276  54.984  1.00  0.00     0.189 HD
HETATM    4  N   UNL     1       4.226  28.518  54.445  1.00  0.00    -0.148 NA
HETATM    5  C   UNL     1       5.153  27.828  55.093  1.00  0.00     0.199 A 
HETATM    6  C   UNL     1       5.605  28.431  56.270  1.00  0.00     0.040 A 
HETATM    7  C   UNL     1       6.664  27.780  57.088  1.00  0.00     0.107 A 
HETATM    8  C   UNL     1       7.008  26.400  56.540  1.00  0.00     0.081 A 
HETATM    9  C   UNL     1       7.888  25.601  57.332  1.00  0.00     0.100 C 
HETATM   10  N   UNL     1       8.604  24.965  57.985  1.00  0.00    -0.191 NA
HETATM   11  C   UNL     1       6.484  25.911  55.387  1.00  0.00     0.140 A 
HETATM   12  O   UNL     1       5.579  26.647  54.609  1.00  0.00    -0.277 OA
ENDROOT
BRANCH   7  13
HETATM   13  C   UNL     1       7.852  28.724  57.088  1.00  0.00    -0.027 A 
HETATM   14  C   UNL     1       8.598  29.003  55.941  1.00  0.00     0.124 A 
HETATM   15  N   UNL     1       9.693  29.795  55.914  1.00  0.00    -0.273 NA
HETATM   16  C   UNL     1      10.076  30.343  57.086  1.00  0.00     0.116 A 
HETATM   17  C   UNL     1       9.413  30.136  58.282  1.00  0.00     0.020 A 
HETATM   18  C   UNL     1       8.290  29.314  58.282  1.00  0.00     0.011 A 
ENDBRANCH   7  13
BRANCH  11  19
HETATM   19  N   UNL     1       6.760  24.673  54.849  1.00  0.00    -0.282 NA
HETATM   20  H   UNL     1       7.741  24.410  54.820  1.00  0.00     0.126 HD
HETATM   21  H   UNL     1       6.279  24.525  53.963  1.00  0.00     0.126 HD
ENDBRANCH  11  19
BRANCH   1  22
HETATM   22  C   UNL     1       4.784  30.642  57.385  1.00  0.00    -0.007 A 
HETATM   23  C   UNL     1       5.767  31.634  57.443  1.00  0.00     0.016 A 
HETATM   24  C   UNL     1       5.700  32.643  58.408  1.00  0.00     0.037 A 
HETATM   25  C   UNL     1       4.659  32.675  59.336  1.00  0.00     0.069 A 
HETATM   26  C   UNL     1       3.685  31.680  59.298  1.00  0.00     0.037 A 
HETATM   27  C   UNL     1       3.744  30.674  58.324  1.00  0.00     0.016 A 
BRANCH  25  28
HETATM   28  O   UNL     1       4.710  33.723  60.212  1.00  0.00    -0.347 OA
BRANCH  28  29
HETATM   29  C   UNL     1       4.375  33.455  61.576  1.00  0.00     0.214 C 
BRANCH  29  30
HETATM   30  C   UNL     1       5.637  33.293  62.389  1.00  0.00    -0.034 A 
HETATM   31  C   UNL     1       5.762  33.934  63.631  1.00  0.00     0.009 A 
HETATM   32  C   UNL     1       6.916  33.775  64.401  1.00  0.00     0.001 A 
HETATM   33  C   UNL     1       7.954  32.967  63.944  1.00  0.00     0.000 A 
HETATM   34  C   UNL     1       7.837  32.311  62.720  1.00  0.00     0.001 A 
HETATM   35  C   UNL     1       6.683  32.468  61.950  1.00  0.00     0.009 A 
ENDBRANCH  29  30
ENDBRANCH  28  29
ENDBRANCH  25  28
ENDBRANCH   1  22
TORSDOF 6
ENDMDL
MODEL 6
REMARK VINA RESULT:      -8.9      6.959      9.449
REMARK  6 active torsions:
REMARK  status: ('A' for Active; 'I' for Inactive)
REMARK    1  A    between atoms: C_4  and  C_5 
REMARK    2  A    between atoms: C_5  and  O_6 
REMARK    3  A    between atoms: O_6  and  C_7 
REMARK    4  A    between atoms: C_10  and  C_11 
REMARK    5  A    between atoms: C_17  and  C_18 
REMARK    6  A    between atoms: C_27  and  N_28 
ROOT
HETATM    1  C   UNL     1       3.182  28.043  49.206  1.00  0.00     0.072 A 
HETATM    2  N   UNL     1       1.940  27.455  49.063  1.00  0.00    -0.274 N 
HETATM    3  H   UNL     1       1.560  26.679  49.596  1.00  0.00     0.189 HD
HETATM    4  N   UNL     1       1.188  27.977  48.075  1.00  0.00    -0.148 NA
HETATM    5  C   UNL     1       1.983  28.914  47.580  1.00  0.00     0.199 A 
HETATM    6  C   UNL     1       3.211  29.036  48.238  1.00  0.00     0.040 A 
HETATM    7  C   UNL     1       4.194  30.065  47.806  1.00  0.00     0.107 A 
HETATM    8  C   UNL     1       3.725  30.776  46.542  1.00  0.00     0.081 A 
HETATM    9  C   UNL     1       4.656  31.667  45.929  1.00  0.00     0.100 C 
HETATM   10  N   UNL     1       5.422  32.389  45.443  1.00  0.00    -0.191 NA
HETATM   11  C   UNL     1       2.508  30.556  45.981  1.00  0.00     0.140 A 
HETATM   12  O   UNL     1       1.587  29.651  46.527  1.00  0.00    -0.277 OA
ENDROOT
BRANCH   7  13
HETATM   13  C   UNL     1       4.374  31.010  48.978  1.00  0.00    -0.027 A 
HETATM   14  C   UNL     1       3.308  31.681  49.581  1.00  0.00     0.124 A 
HETATM   15  N   UNL     1       3.436  32.570  50.591  1.00  0.00    -0.273 NA
HETATM   16  C   UNL     1       4.687  32.814  51.032  1.00  0.00     0.116 A 
HETATM   17  C   UNL     1       5.816  32.208  50.510  1.00  0.00     0.020 A 
HETATM   18  C   UNL     1       5.656  31.298  49.469  1.00  0.00     0.011 A 
ENDBRANCH   7  13
BRANCH  11  19
HETATM   19  N   UNL     1       2.035  31.170  44.841  1.00  0.00    -0.282 NA
HETATM   20  H   UNL     1       2.593  31.038  44.001  1.00  0.00     0.126 HD
HETATM   21  H   UNL     1       1.785  32.143  45.006  1.00  0.00     0.126 HD
ENDBRANCH  11  19
BRANCH   1  22
HETATM   22  C   UNL     1       4.155  27.599  50.199  1.00  0.00    -0.007 A 
HETATM   23  C   UNL     1       4.822  26.379  50.050  1.00  0.00     0.016 A 
HETATM   24  C   UNL     1       5.754  25.959  51.003  1.00  0.00     0.037 A 
HETATM   25  C   UNL     1       6.031  26.742  52.124  1.00  0.00     0.069 A 
HETATM   26  C   UNL     1       5.359  27.950  52.290  1.00  0.00     0.037 A 
HETATM   27  C   UNL     1       4.431  28.378  51.330  1.00  0.00     0.016 A 
BRANCH  25  28
HETATM   28  O   UNL     1       6.973  26.219  52.965  1.00  0.00    -0.347 OA
BRANCH  28  29
HETATM   29  C   UNL     1       7.838  25.210  52.436  1.00  0.00     0.214 C 
BRANCH  29  30
HETATM   30  C   UNL     1       7.822  24.001  53.340  1.00  0.00    -0.034 A 
HETATM   31  C   UNL     1       7.622  24.156  54.720  1.00  0.00     0.009 A 
HETATM   32  C   UNL     1       7.584  23.043  55.563  1.00  0.00     0.001 A 
HETATM   33  C   UNL     1       7.737  21.763  55.036  1.00  0.00     0.000 A 
HETATM   34  C   UNL     1       7.920  21.593  53.665  1.00  0.00     0.001 A 
HETATM   35  C   UNL     1       7.956  22.704  52.821  1.00  0.00     0.009 A 
ENDBRANCH  29  30
ENDBRANCH  28  29
ENDBRANCH  25  28
ENDBRANCH   1  22
TORSDOF 6
ENDMDL
MODEL 7
REMARK VINA RESULT:      -8.4      6.417      8.749
REMARK  6 active torsions:
REMARK  status: ('A' for Active; 'I' for Inactive)
REMARK    1  A    between atoms: C_4  and  C_5 
REMARK    2  A    between atoms: C_5  and  O_6 
REMARK    3  A    between atoms: O_6  and  C_7 
REMARK    4  A    between atoms: C_10  and  C_11 
REMARK    5  A    between atoms: C_17  and  C_18 
REMARK    6  A    between atoms: C_27  and  N_28 
ROOT
HETATM    1  C   UNL     1       5.084  29.715  50.635  1.00  0.00     0.072 A 
HETATM    2  N   UNL     1       6.108  30.641  50.602  1.00  0.00    -0.274 N 
HETATM    3  H   UNL     1       6.949  30.651  51.171  1.00  0.00     0.189 HD
HETATM    4  N   UNL     1       5.921  31.647  49.725  1.00  0.00    -0.148 NA
HETATM    5  C   UNL     1       4.744  31.347  49.199  1.00  0.00     0.199 A 
HETATM    6  C   UNL     1       4.180  30.162  49.683  1.00  0.00     0.040 A 
HETATM    7  C   UNL     1       2.870  29.687  49.161  1.00  0.00     0.107 A 
HETATM    8  C   UNL     1       2.251  30.712  48.219  1.00  0.00     0.081 A 
HETATM    9  C   UNL     1       0.916  30.453  47.783  1.00  0.00     0.100 C 
HETATM   10  N   UNL     1      -0.167  30.228  47.436  1.00  0.00    -0.191 NA
HETATM   11  C   UNL     1       2.894  31.845  47.834  1.00  0.00     0.140 A 
HETATM   12  O   UNL     1       4.185  32.157  48.281  1.00  0.00    -0.277 OA
ENDROOT
BRANCH   7  13
HETATM   13  C   UNL     1       3.131  28.353  48.488  1.00  0.00    -0.027 A 
HETATM   14  C   UNL     1       4.236  28.123  47.665  1.00  0.00     0.124 A 
HETATM   15  N   UNL     1       4.472  26.966  47.007  1.00  0.00    -0.273 NA
HETATM   16  C   UNL     1       3.566  25.979  47.167  1.00  0.00     0.116 A 
HETATM   17  C   UNL     1       2.437  26.096  47.957  1.00  0.00     0.020 A 
HETATM   18  C   UNL     1       2.217  27.298  48.623  1.00  0.00     0.011 A 
ENDBRANCH   7  13
BRANCH  11  19
HETATM   19  N   UNL     1       2.381  32.803  46.987  1.00  0.00    -0.282 NA
HETATM   20  H   UNL     1       1.461  33.163  47.228  1.00  0.00     0.126 HD
HETATM   21  H   UNL     1       2.460  32.531  46.009  1.00  0.00     0.126 HD
ENDBRANCH  11  19
BRANCH   1  22
HETATM   22  C   UNL     1       5.086  28.570  51.539  1.00  0.00    -0.007 A 
HETATM   23  C   UNL     1       5.390  27.288  51.068  1.00  0.00     0.016 A 
HETATM   24  C   UNL     1       5.393  26.195  51.939  1.00  0.00     0.037 A 
HETATM   25  C   UNL     1       5.086  26.358  53.290  1.00  0.00     0.069 A 
HETATM   26  C   UNL     1       4.765  27.627  53.765  1.00  0.00     0.037 A 
HETATM   27  C   UNL     1       4.772  28.726  52.895  1.00  0.00     0.016 A 
BRANCH  25  28
HETATM   28  O   UNL     1       5.141  25.209  54.028  1.00  0.00    -0.347 OA
BRANCH  28  29
HETATM   29  C   UNL     1       6.269  25.035  54.889  1.00  0.00     0.214 C 
BRANCH  29  30
HETATM   30  C   UNL     1       6.978  23.747  54.546  1.00  0.00    -0.034 A 
HETATM   31  C   UNL     1       7.296  22.827  55.558  1.00  0.00     0.009 A 
HETATM   32  C   UNL     1       7.931  21.623  55.251  1.00  0.00     0.001 A 
HETATM   33  C   UNL     1       8.249  21.319  53.929  1.00  0.00     0.000 A 
HETATM   34  C   UNL     1       7.925  22.215  52.913  1.00  0.00     0.001 A 
HETATM   35  C   UNL     1       7.288  23.419  53.218  1.00  0.00     0.009 A 
ENDBRANCH  29  30
ENDBRANCH  28  29
ENDBRANCH  25  28
ENDBRANCH   1  22
TORSDOF 6
ENDMDL
MODEL 8
REMARK VINA RESULT:      -8.2      5.263      8.019
REMARK  6 active torsions:
REMARK  status: ('A' for Active; 'I' for Inactive)
REMARK    1  A    between atoms: C_4  and  C_5 
REMARK    2  A    between atoms: C_5  and  O_6 
REMARK    3  A    between atoms: O_6  and  C_7 
REMARK    4  A    between atoms: C_10  and  C_11 
REMARK    5  A    between atoms: C_17  and  C_18 
REMARK    6  A    between atoms: C_27  and  N_28 
ROOT
HETATM    1  C   UNL     1       6.139  32.718  62.327  1.00  0.00     0.072 A 
HETATM    2  N   UNL     1       7.424  32.232  62.467  1.00  0.00    -0.274 N 
HETATM    3  H   UNL     1       7.952  31.684  61.795  1.00  0.00     0.189 HD
HETATM    4  N   UNL     1       7.999  32.511  63.653  1.00  0.00    -0.148 NA
HETATM    5  C   UNL     1       7.044  33.185  64.277  1.00  0.00     0.199 A 
HETATM    6  C   UNL     1       5.885  33.379  63.520  1.00  0.00     0.040 A 
HETATM    7  C   UNL     1       4.739  34.142  64.084  1.00  0.00     0.107 A 
HETATM    8  C   UNL     1       4.982  34.494  65.547  1.00  0.00     0.081 A 
HETATM    9  C   UNL     1       3.887  35.078  66.252  1.00  0.00     0.100 C 
HETATM   10  N   UNL     1       2.990  35.553  66.812  1.00  0.00    -0.191 NA
HETATM   11  C   UNL     1       6.153  34.235  66.183  1.00  0.00     0.140 A 
HETATM   12  O   UNL     1       7.233  33.618  65.536  1.00  0.00    -0.277 OA
ENDROOT
BRANCH   7  13
HETATM   13  C   UNL     1       4.561  35.366  63.207  1.00  0.00    -0.027 A 
HETATM   14  C   UNL     1       3.396  35.611  62.476  1.00  0.00     0.124 A 
HETATM   15  N   UNL     1       3.222  36.662  61.643  1.00  0.00    -0.273 NA
HETATM   16  C   UNL     1       4.256  37.520  61.523  1.00  0.00     0.116 A 
HETATM   17  C   UNL     1       5.455  37.376  62.197  1.00  0.00     0.020 A 
HETATM   18  C   UNL     1       5.608  36.284  63.047  1.00  0.00     0.011 A 
ENDBRANCH   7  13
BRANCH  11  19
HETATM   19  N   UNL     1       6.425  34.531  67.502  1.00  0.00    -0.282 NA
HETATM   20  H   UNL     1       6.947  33.827  68.017  1.00  0.00     0.126 HD
HETATM   21  H   UNL     1       5.599  34.860  67.998  1.00  0.00     0.126 HD
ENDBRANCH  11  19
BRANCH   1  22
HETATM   22  C   UNL     1       5.337  32.493  61.128  1.00  0.00    -0.007 A 
HETATM   23  C   UNL     1       5.893  32.662  59.856  1.00  0.00     0.016 A 
HETATM   24  C   UNL     1       5.122  32.443  58.711  1.00  0.00     0.037 A 
HETATM   25  C   UNL     1       3.784  32.062  58.813  1.00  0.00     0.069 A 
HETATM   26  C   UNL     1       3.217  31.909  60.076  1.00  0.00     0.037 A 
HETATM   27  C   UNL     1       3.991  32.118  61.225  1.00  0.00     0.016 A 
BRANCH  25  28
HETATM   28  O   UNL     1       3.154  31.869  57.615  1.00  0.00    -0.347 OA
BRANCH  28  29
HETATM   29  C   UNL     1       3.934  32.038  56.429  1.00  0.00     0.214 C 
BRANCH  29  30
HETATM   30  C   UNL     1       3.978  30.740  55.658  1.00  0.00    -0.034 A 
HETATM   31  C   UNL     1       3.654  30.722  54.292  1.00  0.00     0.009 A 
HETATM   32  C   UNL     1       3.712  29.532  53.564  1.00  0.00     0.001 A 
HETATM   33  C   UNL     1       4.101  28.350  54.189  1.00  0.00     0.000 A 
HETATM   34  C   UNL     1       4.440  28.356  55.540  1.00  0.00     0.001 A 
HETATM   35  C   UNL     1       4.385  29.545  56.269  1.00  0.00     0.009 A 
ENDBRANCH  29  30
ENDBRANCH  28  29
ENDBRANCH  25  28
ENDBRANCH   1  22
TORSDOF 6
ENDMDL
MODEL 9
REMARK VINA RESULT:      -8.2      4.694      7.915
REMARK  6 active torsions:
REMARK  status: ('A' for Active; 'I' for Inactive)
REMARK    1  A    between atoms: C_4  and  C_5 
REMARK    2  A    between atoms: C_5  and  O_6 
REMARK    3  A    between atoms: O_6  and  C_7 
REMARK    4  A    between atoms: C_10  and  C_11 
REMARK    5  A    between atoms: C_17  and  C_18 
REMARK    6  A    between atoms: C_27  and  N_28 
ROOT
HETATM    1  C   UNL     1       4.965  33.136  62.224  1.00  0.00     0.072 A 
HETATM    2  N   UNL     1       5.121  32.944  63.583  1.00  0.00    -0.274 N 
HETATM    3  H   UNL     1       5.932  32.565  64.063  1.00  0.00     0.189 HD
HETATM    4  N   UNL     1       4.045  33.281  64.320  1.00  0.00    -0.148 NA
HETATM    5  C   UNL     1       3.188  33.690  63.396  1.00  0.00     0.199 A 
HETATM    6  C   UNL     1       3.688  33.659  62.091  1.00  0.00     0.040 A 
HETATM    7  C   UNL     1       2.843  34.114  60.953  1.00  0.00     0.107 A 
HETATM    8  C   UNL     1       1.427  34.433  61.416  1.00  0.00     0.081 A 
HETATM    9  C   UNL     1       0.472  34.718  60.393  1.00  0.00     0.100 C 
HETATM   10  N   UNL     1      -0.292  34.949  59.553  1.00  0.00    -0.191 NA
HETATM   11  C   UNL     1       1.053  34.409  62.721  1.00  0.00     0.140 A 
HETATM   12  O   UNL     1       1.951  34.085  63.747  1.00  0.00    -0.277 OA
ENDROOT
BRANCH   7  13
HETATM   13  C   UNL     1       3.547  35.312  60.345  1.00  0.00    -0.027 A 
HETATM   14  C   UNL     1       3.990  36.396  61.106  1.00  0.00     0.124 A 
HETATM   15  N   UNL     1       4.572  37.504  60.594  1.00  0.00    -0.273 NA
HETATM   16  C   UNL     1       4.724  37.547  59.254  1.00  0.00     0.116 A 
HETATM   17  C   UNL     1       4.322  36.532  58.404  1.00  0.00     0.020 A 
HETATM   18  C   UNL     1       3.724  35.404  58.958  1.00  0.00     0.011 A 
ENDBRANCH   7  13
BRANCH  11  19
HETATM   19  N   UNL     1      -0.211  34.688  63.192  1.00  0.00    -0.282 NA
HETATM   20  H   UNL     1      -0.844  35.132  62.531  1.00  0.00     0.126 HD
HETATM   21  H   UNL     1      -0.189  35.153  64.098  1.00  0.00     0.126 HD
ENDBRANCH  11  19
BRANCH   1  22
HETATM   22  C   UNL     1       6.006  32.802  61.256  1.00  0.00    -0.007 A 
HETATM   23  C   UNL     1       7.358  32.898  61.600  1.00  0.00     0.016 A 
HETATM   24  C   UNL     1       8.351  32.575  60.671  1.00  0.00     0.037 A 
HETATM   25  C   UNL     1       8.014  32.159  59.382  1.00  0.00     0.069 A 
HETATM   26  C   UNL     1       6.670  32.078  59.025  1.00  0.00     0.037 A 
HETATM   27  C   UNL     1       5.673  32.392  59.959  1.00  0.00     0.016 A 
BRANCH  25  28
HETATM   28  O   UNL     1       9.082  31.862  58.583  1.00  0.00    -0.347 OA
BRANCH  28  29
HETATM   29  C   UNL     1       9.639  30.549  58.693  1.00  0.00     0.214 C 
BRANCH  29  30
HETATM   30  C   UNL     1       8.966  29.626  57.705  1.00  0.00    -0.034 A 
HETATM   31  C   UNL     1       7.974  28.734  58.139  1.00  0.00     0.009 A 
HETATM   32  C   UNL     1       7.329  27.891  57.231  1.00  0.00     0.001 A 
HETATM   33  C   UNL     1       7.662  27.936  55.880  1.00  0.00     0.000 A 
HETATM   34  C   UNL     1       8.635  28.828  55.433  1.00  0.00     0.001 A 
HETATM   35  C   UNL     1       9.278  29.673  56.338  1.00  0.00     0.009 A 
ENDBRANCH  29  30
ENDBRANCH  28  29
ENDBRANCH  25  28
ENDBRANCH   1  22
TORSDOF 6
ENDMDL
MODEL 10
REMARK VINA RESULT:      -8.2      2.711      4.444
REMARK  6 active torsions:
REMARK  status: ('A' for Active; 'I' for Inactive)
REMARK    1  A    between atoms: C_4  and  C_5 
REMARK    2  A    between atoms: C_5  and  O_6 
REMARK    3  A    between atoms: O_6  and  C_7 
REMARK    4  A    between atoms: C_10  and  C_11 
REMARK    5  A    between atoms: C_17  and  C_18 
REMARK    6  A    between atoms: C_27  and  N_28 
ROOT
HETATM    1  C   UNL     1       5.624  30.528  56.715  1.00  0.00     0.072 A 
HETATM    2  N   UNL     1       6.520  31.159  57.555  1.00  0.00    -0.274 N 
HETATM    3  H   UNL     1       7.375  30.775  57.945  1.00  0.00     0.189 HD
HETATM    4  N   UNL     1       6.172  32.415  57.898  1.00  0.00    -0.148 NA
HETATM    5  C   UNL     1       5.023  32.573  57.260  1.00  0.00     0.199 A 
HETATM    6  C   UNL     1       4.633  31.472  56.490  1.00  0.00     0.040 A 
HETATM    7  C   UNL     1       3.374  31.519  55.698  1.00  0.00     0.107 A 
HETATM    8  C   UNL     1       2.593  32.795  55.985  1.00  0.00     0.081 A 
HETATM    9  C   UNL     1       1.286  32.883  55.418  1.00  0.00     0.100 C 
HETATM   10  N   UNL     1       0.227  32.942  54.949  1.00  0.00    -0.191 NA
HETATM   11  C   UNL     1       3.072  33.793  56.773  1.00  0.00     0.140 A 
HETATM   12  O   UNL     1       4.330  33.719  57.386  1.00  0.00    -0.277 OA
ENDROOT
BRANCH   7  13
HETATM   13  C   UNL     1       3.775  31.390  54.241  1.00  0.00    -0.027 A 
HETATM   14  C   UNL     1       4.235  32.470  53.484  1.00  0.00     0.124 A 
HETATM   15  N   UNL     1       4.550  32.405  52.171  1.00  0.00    -0.273 NA
HETATM   16  C   UNL     1       4.402  31.207  51.569  1.00  0.00     0.116 A 
HETATM   17  C   UNL     1       3.955  30.071  52.220  1.00  0.00     0.020 A 
HETATM   18  C   UNL     1       3.636  30.166  53.571  1.00  0.00     0.011 A 
ENDBRANCH   7  13
BRANCH  11  19
HETATM   19  N   UNL     1       2.408  34.965  57.064  1.00  0.00    -0.282 NA
HETATM   20  H   UNL     1       2.704  35.444  57.911  1.00  0.00     0.126 HD
HETATM   21  H   UNL     1       1.397  34.859  56.996  1.00  0.00     0.126 HD
ENDBRANCH  11  19
BRANCH   1  22
HETATM   22  C   UNL     1       5.807  29.155  56.255  1.00  0.00    -0.007 A 
HETATM   23  C   UNL     1       6.912  28.805  55.472  1.00  0.00     0.016 A 
HETATM   24  C   UNL     1       7.084  27.488  55.037  1.00  0.00     0.037 A 
HETATM   25  C   UNL     1       6.155  26.500  55.366  1.00  0.00     0.069 A 
HETATM   26  C   UNL     1       5.043  26.843  56.130  1.00  0.00     0.037 A 
HETATM   27  C   UNL     1       4.874  28.161  56.577  1.00  0.00     0.016 A 
BRANCH  25  28
HETATM   28  O   UNL     1       6.455  25.256  54.887  1.00  0.00    -0.347 OA
BRANCH  28  29
HETATM   29  C   UNL     1       7.369  24.462  55.648  1.00  0.00     0.214 C 
BRANCH  29  30
HETATM   30  C   UNL     1       7.601  23.143  54.951  1.00  0.00    -0.034 A 
HETATM   31  C   UNL     1       7.673  21.956  55.696  1.00  0.00     0.009 A 
HETATM   32  C   UNL     1       7.865  20.728  55.061  1.00  0.00     0.001 A 
HETATM   33  C   UNL     1       7.979  20.670  53.674  1.00  0.00     0.000 A 
HETATM   34  C   UNL     1       7.894  21.838  52.920  1.00  0.00     0.001 A 
HETATM   35  C   UNL     1       7.699  23.067  53.554  1.00  0.00     0.009 A 
ENDBRANCH  29  30
ENDBRANCH  28  29
ENDBRANCH  25  28
ENDBRANCH   1  22
TORSDOF 6
ENDMDL
