MODEL 1
REMARK VINA RESULT:     -10.1      0.000      0.000
REMARK  7 active torsions:
REMARK  status: ('A' for Active; 'I' for Inactive)
REMARK    1  A    between atoms: O_2  and  C_3 
REMARK    2  A    between atoms: C_6  and  C_7 
REMARK    3  A    between atoms: C_7  and  C_8 
REMARK    4  A    between atoms: C_7  and  C_14 
REMARK    5  A    between atoms: C_14  and  C_15 
REMARK       I    between atoms: C_15  and  N_16 
REMARK    6  A    between atoms: N_16  and  C_17 
REMARK    7  A    between atoms: C_17  and  C_18 
ROOT
HETATM    1  C   UNL     1       7.677  24.205  55.174  1.00  0.00     0.060 C 
ENDROOT
BRANCH   1   2
HETATM    2  C   UNL     1       6.933  24.654  53.906  1.00  0.00    -0.049 A 
HETATM    3  C   UNL     1       7.592  25.046  52.731  1.00  0.00     0.010 A 
HETATM    4  C   UNL     1       6.876  25.464  51.604  1.00  0.00     0.037 A 
HETATM    5  C   UNL     1       5.484  25.516  51.619  1.00  0.00     0.068 A 
HETATM    6  C   UNL     1       4.812  25.164  52.785  1.00  0.00     0.037 A 
HETATM    7  C   UNL     1       5.529  24.748  53.915  1.00  0.00     0.010 A 
BRANCH   5   8
HETATM    8  O   UNL     1       4.909  25.935  50.451  1.00  0.00    -0.356 OA
HETATM    9  C   UNL     1       5.048  27.312  50.126  1.00  0.00     0.210 C 
ENDBRANCH   5   8
ENDBRANCH   1   2
BRANCH   1  10
HETATM   10  C   UNL     1       7.944  22.702  55.272  1.00  0.00    -0.049 A 
HETATM   11  C   UNL     1       8.326  22.096  56.481  1.00  0.00     0.008 A 
HETATM   12  C   UNL     1       8.581  20.725  56.542  1.00  0.00     0.001 A 
HETATM   13  C   UNL     1       8.458  19.940  55.398  1.00  0.00     0.000 A 
HETATM   14  C   UNL     1       8.080  20.526  54.191  1.00  0.00     0.001 A 
HETATM   15  C   UNL     1       7.823  21.896  54.128  1.00  0.00     0.008 A 
ENDBRANCH   1  10
BRANCH   1  16
HETATM   16  C   UNL     1       7.002  24.734  56.462  1.00  0.00     0.116 C 
BRANCH  16  17
HETATM   17  C   UNL     1       7.814  25.768  57.218  1.00  0.00     0.218 C 
HETATM   18  N   UNL     1       7.873  27.006  56.637  1.00  0.00    -0.355 N 
HETATM   19  H   UNL     1       7.589  27.159  55.677  1.00  0.00     0.162 HD
HETATM   20  O   UNL     1       8.316  25.524  58.313  1.00  0.00    -0.274 OA
BRANCH  18  21
HETATM   21  C   UNL     1       8.735  28.039  57.163  1.00  0.00     0.184 C 
BRANCH  21  22
HETATM   22  C   UNL     1       7.887  29.116  57.764  1.00  0.00     0.080 A 
HETATM   23  N   UNL     1       6.547  29.160  57.556  1.00  0.00    -0.177 NA
HETATM   24  N   UNL     1       6.129  30.254  58.243  1.00  0.00    -0.281 N 
HETATM   25  H   UNL     1       5.141  30.492  58.231  1.00  0.00     0.189 HD
HETATM   26  C   UNL     1       7.154  30.870  58.860  1.00  0.00     0.036 A 
HETATM   27  C   UNL     1       8.290  30.178  58.578  1.00  0.00    -0.006 A 
HETATM   28  C   UNL     1       7.325  32.044  59.724  1.00  0.00     0.059 C 
HETATM   29  C   UNL     1       9.470  30.778  59.220  1.00  0.00     0.043 C 
HETATM   30  C   UNL     1       8.892  32.143  59.747  1.00  0.00     0.011 C 
ENDBRANCH  21  22
ENDBRANCH  18  21
ENDBRANCH  16  17
ENDBRANCH   1  16
TORSDOF 7
ENDMDL
MODEL 2
REMARK VINA RESULT:      -9.7      1.078      1.570
REMARK  7 active torsions:
REMARK  status: ('A' for Active; 'I' for Inactive)
REMARK    1  A    between atoms: O_2  and  C_3 
REMARK    2  A    between atoms: C_6  and  C_7 
REMARK    3  A    between atoms: C_7  and  C_8 
REMARK    4  A    between atoms: C_7  and  C_14 
REMARK    5  A    between atoms: C_14  and  C_15 
REMARK       I    between atoms: C_15  and  N_16 
REMARK    6  A    between atoms: N_16  and  C_17 
REMARK    7  A    between atoms: C_17  and  C_18 
ROOT
HETATM    1  C   UNL     1       7.626  24.286  55.160  1.00  0.00     0.060 C 
ENDROOT
BRANCH   1   2
HETATM    2  C   UNL     1       6.864  24.723  53.898  1.00  0.00    -0.049 A 
HETATM    3  C   UNL     1       7.507  25.179  52.737  1.00  0.00     0.010 A 
HETATM    4  C   UNL     1       6.774  25.584  51.615  1.00  0.00     0.037 A 
HETATM    5  C   UNL     1       5.382  25.557  51.622  1.00  0.00     0.068 A 
HETATM    6  C   UNL     1       4.724  25.140  52.774  1.00  0.00     0.037 A 
HETATM    7  C   UNL     1       5.457  24.737  53.899  1.00  0.00     0.010 A 
BRANCH   5   8
HETATM    8  O   UNL     1       4.791  25.972  50.461  1.00  0.00    -0.356 OA
HETATM    9  C   UNL     1       5.176  27.248  49.965  1.00  0.00     0.210 C 
ENDBRANCH   5   8
ENDBRANCH   1   2
BRANCH   1  10
HETATM   10  C   UNL     1       7.873  22.781  55.280  1.00  0.00    -0.049 A 
HETATM   11  C   UNL     1       8.185  22.179  56.511  1.00  0.00     0.008 A 
HETATM   12  C   UNL     1       8.423  20.806  56.593  1.00  0.00     0.001 A 
HETATM   13  C   UNL     1       8.355  20.016  55.448  1.00  0.00     0.000 A 
HETATM   14  C   UNL     1       8.047  20.598  54.220  1.00  0.00     0.001 A 
HETATM   15  C   UNL     1       7.806  21.970  54.135  1.00  0.00     0.008 A 
ENDBRANCH   1  10
BRANCH   1  16
HETATM   16  C   UNL     1       6.982  24.848  56.451  1.00  0.00     0.116 C 
BRANCH  16  17
HETATM   17  C   UNL     1       7.815  25.893  57.165  1.00  0.00     0.218 C 
HETATM   18  N   UNL     1       7.943  27.089  56.511  1.00  0.00    -0.355 N 
HETATM   19  H   UNL     1       7.692  27.192  55.535  1.00  0.00     0.162 HD
HETATM   20  O   UNL     1       8.277  25.698  58.288  1.00  0.00    -0.274 OA
BRANCH  18  21
HETATM   21  C   UNL     1       8.833  28.116  56.999  1.00  0.00     0.184 C 
BRANCH  21  22
HETATM   22  C   UNL     1       8.026  29.161  57.703  1.00  0.00     0.080 A 
HETATM   23  N   UNL     1       8.301  29.526  58.981  1.00  0.00    -0.177 NA
HETATM   24  N   UNL     1       7.377  30.477  59.273  1.00  0.00    -0.281 N 
HETATM   25  H   UNL     1       7.387  30.902  60.195  1.00  0.00     0.189 HD
HETATM   26  C   UNL     1       6.559  30.707  58.229  1.00  0.00     0.036 A 
HETATM   27  C   UNL     1       6.938  29.889  57.211  1.00  0.00    -0.006 A 
HETATM   28  C   UNL     1       5.422  31.590  57.943  1.00  0.00     0.059 C 
HETATM   29  C   UNL     1       6.100  30.077  56.017  1.00  0.00     0.043 C 
HETATM   30  C   UNL     1       4.945  30.988  56.573  1.00  0.00     0.011 C 
ENDBRANCH  21  22
ENDBRANCH  18  21
ENDBRANCH  16  17
ENDBRANCH   1  16
TORSDOF 7
ENDMDL
MODEL 3
REMARK VINA RESULT:      -9.6      2.928      5.580
REMARK  7 active torsions:
REMARK  status: ('A' for Active; 'I' for Inactive)
REMARK    1  A    between atoms: O_2  and  C_3 
REMARK    2  A    between atoms: C_6  and  C_7 
REMARK    3  A    between atoms: C_7  and  C_8 
REMARK    4  A    between atoms: C_7  and  C_14 
REMARK    5  A    between atoms: C_14  and  C_15 
REMARK       I    between atoms: C_15  and  N_16 
REMARK    6  A    between atoms: N_16  and  C_17 
REMARK    7  A    between atoms: C_17  and  C_18 
ROOT
HETATM    1  C   UNL     1       6.522  24.034  53.875  1.00  0.00     0.060 C 
ENDROOT
BRANCH   1   2
HETATM    2  C   UNL     1       6.550  25.160  54.921  1.00  0.00    -0.049 A 
HETATM    3  C   UNL     1       5.608  25.266  55.956  1.00  0.00     0.010 A 
HETATM    4  C   UNL     1       5.660  26.318  56.877  1.00  0.00     0.037 A 
HETATM    5  C   UNL     1       6.643  27.301  56.787  1.00  0.00     0.068 A 
HETATM    6  C   UNL     1       7.568  27.232  55.750  1.00  0.00     0.037 A 
HETATM    7  C   UNL     1       7.514  26.181  54.825  1.00  0.00     0.010 A 
BRANCH   5   8
HETATM    8  O   UNL     1       6.584  28.266  57.754  1.00  0.00    -0.356 OA
HETATM    9  C   UNL     1       7.786  28.975  58.027  1.00  0.00     0.210 C 
ENDBRANCH   5   8
ENDBRANCH   1   2
BRANCH   1  10
HETATM   10  C   UNL     1       7.335  22.790  54.240  1.00  0.00    -0.049 A 
HETATM   11  C   UNL     1       7.575  22.430  55.577  1.00  0.00     0.008 A 
HETATM   12  C   UNL     1       8.334  21.300  55.885  1.00  0.00     0.001 A 
HETATM   13  C   UNL     1       8.864  20.514  54.864  1.00  0.00     0.000 A 
HETATM   14  C   UNL     1       8.634  20.857  53.533  1.00  0.00     0.001 A 
HETATM   15  C   UNL     1       7.874  21.986  53.222  1.00  0.00     0.008 A 
ENDBRANCH   1  10
BRANCH   1  16
HETATM   16  C   UNL     1       6.891  24.544  52.461  1.00  0.00     0.116 C 
BRANCH  16  17
HETATM   17  C   UNL     1       5.759  25.235  51.728  1.00  0.00     0.218 C 
HETATM   18  N   UNL     1       6.122  26.317  50.973  1.00  0.00    -0.355 N 
HETATM   19  H   UNL     1       7.030  26.756  51.072  1.00  0.00     0.162 HD
HETATM   20  O   UNL     1       4.609  24.799  51.754  1.00  0.00    -0.274 OA
BRANCH  18  21
HETATM   21  C   UNL     1       5.130  27.160  50.348  1.00  0.00     0.184 C 
BRANCH  21  22
HETATM   22  C   UNL     1       5.002  28.424  51.139  1.00  0.00     0.080 A 
HETATM   23  N   UNL     1       5.326  29.629  50.605  1.00  0.00    -0.177 NA
HETATM   24  N   UNL     1       5.085  30.521  51.600  1.00  0.00    -0.281 N 
HETATM   25  H   UNL     1       5.261  31.506  51.427  1.00  0.00     0.189 HD
HETATM   26  C   UNL     1       4.626  29.912  52.708  1.00  0.00     0.036 A 
HETATM   27  C   UNL     1       4.560  28.577  52.457  1.00  0.00    -0.006 A 
HETATM   28  C   UNL     1       4.196  30.325  54.049  1.00  0.00     0.059 C 
HETATM   29  C   UNL     1       4.059  27.825  53.617  1.00  0.00     0.043 C 
HETATM   30  C   UNL     1       4.073  28.922  54.744  1.00  0.00     0.011 C 
ENDBRANCH  21  22
ENDBRANCH  18  21
ENDBRANCH  16  17
ENDBRANCH   1  16
TORSDOF 7
ENDMDL
MODEL 4
REMARK VINA RESULT:      -9.3      2.528      6.939
REMARK  7 active torsions:
REMARK  status: ('A' for Active; 'I' for Inactive)
REMARK    1  A    between atoms: O_2  and  C_3 
REMARK    2  A    between atoms: C_6  and  C_7 
REMARK    3  A    between atoms: C_7  and  C_8 
REMARK    4  A    between atoms: C_7  and  C_14 
REMARK    5  A    between atoms: C_14  and  C_15 
REMARK       I    between atoms: C_15  and  N_16 
REMARK    6  A    between atoms: N_16  and  C_17 
REMARK    7  A    between atoms: C_17  and  C_18 
ROOT
HETATM    1  C   UNL     1       6.704  23.640  54.245  1.00  0.00     0.060 C 
ENDROOT
BRANCH   1   2
HETATM    2  C   UNL     1       6.974  24.657  55.366  1.00  0.00    -0.049 A 
HETATM    3  C   UNL     1       6.041  24.951  56.372  1.00  0.00     0.010 A 
HETATM    4  C   UNL     1       6.321  25.897  57.365  1.00  0.00     0.037 A 
HETATM    5  C   UNL     1       7.532  26.585  57.377  1.00  0.00     0.068 A 
HETATM    6  C   UNL     1       8.458  26.333  56.370  1.00  0.00     0.037 A 
HETATM    7  C   UNL     1       8.176  25.388  55.373  1.00  0.00     0.010 A 
BRANCH   5   8
HETATM    8  O   UNL     1       7.680  27.475  58.405  1.00  0.00    -0.356 OA
HETATM    9  C   UNL     1       7.746  28.852  58.056  1.00  0.00     0.210 C 
ENDBRANCH   5   8
ENDBRANCH   1   2
BRANCH   1  10
HETATM   10  C   UNL     1       7.488  22.330  54.355  1.00  0.00    -0.049 A 
HETATM   11  C   UNL     1       8.001  21.679  53.220  1.00  0.00     0.008 A 
HETATM   12  C   UNL     1       8.698  20.476  53.343  1.00  0.00     0.001 A 
HETATM   13  C   UNL     1       8.892  19.907  54.600  1.00  0.00     0.000 A 
HETATM   14  C   UNL     1       8.390  20.540  55.734  1.00  0.00     0.001 A 
HETATM   15  C   UNL     1       7.694  21.745  55.614  1.00  0.00     0.008 A 
ENDBRANCH   1  10
BRANCH   1  16
HETATM   16  C   UNL     1       6.866  24.268  52.840  1.00  0.00     0.116 C 
BRANCH  16  17
HETATM   17  C   UNL     1       5.762  25.232  52.452  1.00  0.00     0.218 C 
HETATM   18  N   UNL     1       6.099  26.558  52.493  1.00  0.00    -0.355 N 
HETATM   19  H   UNL     1       6.940  26.880  52.957  1.00  0.00     0.162 HD
HETATM   20  O   UNL     1       4.666  24.838  52.056  1.00  0.00    -0.274 OA
BRANCH  18  21
HETATM   21  C   UNL     1       5.106  27.589  52.301  1.00  0.00     0.184 C 
BRANCH  21  22
HETATM   22  C   UNL     1       5.316  28.218  50.960  1.00  0.00     0.080 A 
HETATM   23  N   UNL     1       5.822  29.473  50.838  1.00  0.00    -0.177 NA
HETATM   24  N   UNL     1       5.866  29.697  49.500  1.00  0.00    -0.281 N 
HETATM   25  H   UNL     1       6.215  30.589  49.165  1.00  0.00     0.189 HD
HETATM   26  C   UNL     1       5.416  28.635  48.807  1.00  0.00     0.036 A 
HETATM   27  C   UNL     1       5.055  27.674  49.699  1.00  0.00    -0.006 A 
HETATM   28  C   UNL     1       5.238  28.285  47.393  1.00  0.00     0.059 C 
HETATM   29  C   UNL     1       4.553  26.465  49.029  1.00  0.00     0.043 C 
HETATM   30  C   UNL     1       4.418  26.954  47.540  1.00  0.00     0.011 C 
ENDBRANCH  21  22
ENDBRANCH  18  21
ENDBRANCH  16  17
ENDBRANCH   1  16
TORSDOF 7
ENDMDL
MODEL 5
REMARK VINA RESULT:      -9.2      3.473      7.175
REMARK  7 active torsions:
REMARK  status: ('A' for Active; 'I' for Inactive)
REMARK    1  A    between atoms: O_2  and  C_3 
REMARK    2  A    between atoms: C_6  and  C_7 
REMARK    3  A    between atoms: C_7  and  C_8 
REMARK    4  A    between atoms: C_7  and  C_14 
REMARK    5  A    between atoms: C_14  and  C_15 
REMARK       I    between atoms: C_15  and  N_16 
REMARK    6  A    between atoms: N_16  and  C_17 
REMARK    7  A    between atoms: C_17  and  C_18 
ROOT
HETATM    1  C   UNL     1       6.210  27.501  55.807  1.00  0.00     0.060 C 
ENDROOT
BRANCH   1   2
HETATM    2  C   UNL     1       5.195  28.647  55.946  1.00  0.00    -0.049 A 
HETATM    3  C   UNL     1       4.508  29.197  54.852  1.00  0.00     0.010 A 
HETATM    4  C   UNL     1       3.604  30.252  55.021  1.00  0.00     0.037 A 
HETATM    5  C   UNL     1       3.368  30.798  56.280  1.00  0.00     0.068 A 
HETATM    6  C   UNL     1       4.062  30.290  57.373  1.00  0.00     0.037 A 
HETATM    7  C   UNL     1       4.970  29.235  57.204  1.00  0.00     0.010 A 
BRANCH   5   8
HETATM    8  O   UNL     1       2.458  31.818  56.305  1.00  0.00    -0.356 OA
HETATM    9  C   UNL     1       2.082  32.372  55.051  1.00  0.00     0.210 C 
ENDBRANCH   5   8
ENDBRANCH   1   2
BRANCH   1  10
HETATM   10  C   UNL     1       6.078  26.668  54.530  1.00  0.00    -0.049 A 
HETATM   11  C   UNL     1       5.060  25.712  54.374  1.00  0.00     0.008 A 
HETATM   12  C   UNL     1       4.969  24.952  53.206  1.00  0.00     0.001 A 
HETATM   13  C   UNL     1       5.893  25.136  52.180  1.00  0.00     0.000 A 
HETATM   14  C   UNL     1       6.909  26.079  52.320  1.00  0.00     0.001 A 
HETATM   15  C   UNL     1       7.001  26.842  53.486  1.00  0.00     0.008 A 
ENDBRANCH   1  10
BRANCH   1  16
HETATM   16  C   UNL     1       6.237  26.594  57.061  1.00  0.00     0.116 C 
BRANCH  16  17
HETATM   17  C   UNL     1       7.518  25.802  57.235  1.00  0.00     0.218 C 
HETATM   18  N   UNL     1       7.394  24.447  57.089  1.00  0.00    -0.355 N 
HETATM   19  H   UNL     1       6.489  23.991  57.088  1.00  0.00     0.162 HD
HETATM   20  O   UNL     1       8.601  26.353  57.419  1.00  0.00    -0.274 OA
BRANCH  18  21
HETATM   21  C   UNL     1       8.495  23.559  57.380  1.00  0.00     0.184 C 
BRANCH  21  22
HETATM   22  C   UNL     1       8.342  22.315  56.563  1.00  0.00     0.080 A 
HETATM   23  N   UNL     1       8.356  21.085  57.138  1.00  0.00    -0.177 NA
HETATM   24  N   UNL     1       8.195  20.221  56.103  1.00  0.00    -0.281 N 
HETATM   25  H   UNL     1       8.176  19.224  56.296  1.00  0.00     0.189 HD
HETATM   26  C   UNL     1       8.080  20.872  54.931  1.00  0.00     0.036 A 
HETATM   27  C   UNL     1       8.170  22.205  55.180  1.00  0.00    -0.006 A 
HETATM   28  C   UNL     1       7.884  20.502  53.524  1.00  0.00     0.059 C 
HETATM   29  C   UNL     1       8.048  23.002  53.950  1.00  0.00     0.043 C 
HETATM   30  C   UNL     1       8.130  21.893  52.838  1.00  0.00     0.011 C 
ENDBRANCH  21  22
ENDBRANCH  18  21
ENDBRANCH  16  17
ENDBRANCH   1  16
TORSDOF 7
ENDMDL
MODEL 6
REMARK VINA RESULT:      -9.1      3.326      7.804
REMARK  7 active torsions:
REMARK  status: ('A' for Active; 'I' for Inactive)
REMARK    1  A    between atoms: O_2  and  C_3 
REMARK    2  A    between atoms: C_6  and  C_7 
REMARK    3  A    between atoms: C_7  and  C_8 
REMARK    4  A    between atoms: C_7  and  C_14 
REMARK    5  A    between atoms: C_14  and  C_15 
REMARK       I    between atoms: C_15  and  N_16 
REMARK    6  A    between atoms: N_16  and  C_17 
REMARK    7  A    between atoms: C_17  and  C_18 
ROOT
HETATM    1  C   UNL     1       6.626  24.217  54.007  1.00  0.00     0.060 C 
ENDROOT
BRANCH   1   2
HETATM    2  C   UNL     1       6.984  25.194  55.139  1.00  0.00    -0.049 A 
HETATM    3  C   UNL     1       6.714  24.931  56.491  1.00  0.00     0.010 A 
HETATM    4  C   UNL     1       7.041  25.856  57.488  1.00  0.00     0.037 A 
HETATM    5  C   UNL     1       7.634  27.075  57.167  1.00  0.00     0.068 A 
HETATM    6  C   UNL     1       7.880  27.371  55.831  1.00  0.00     0.037 A 
HETATM    7  C   UNL     1       7.550  26.445  54.831  1.00  0.00     0.010 A 
BRANCH   5   8
HETATM    8  O   UNL     1       7.907  27.883  58.236  1.00  0.00    -0.356 OA
HETATM    9  C   UNL     1       7.639  29.270  58.077  1.00  0.00     0.210 C 
ENDBRANCH   5   8
ENDBRANCH   1   2
BRANCH   1  10
HETATM   10  C   UNL     1       7.312  22.851  54.089  1.00  0.00    -0.049 A 
HETATM   11  C   UNL     1       7.815  22.207  52.946  1.00  0.00     0.008 A 
HETATM   12  C   UNL     1       8.422  20.954  53.043  1.00  0.00     0.001 A 
HETATM   13  C   UNL     1       8.534  20.326  54.281  1.00  0.00     0.000 A 
HETATM   14  C   UNL     1       8.039  20.951  55.424  1.00  0.00     0.001 A 
HETATM   15  C   UNL     1       7.434  22.206  55.331  1.00  0.00     0.008 A 
ENDBRANCH   1  10
BRANCH   1  16
HETATM   16  C   UNL     1       6.818  24.852  52.609  1.00  0.00     0.116 C 
BRANCH  16  17
HETATM   17  C   UNL     1       5.688  25.764  52.174  1.00  0.00     0.218 C 
HETATM   18  N   UNL     1       5.882  26.411  50.983  1.00  0.00    -0.355 N 
HETATM   19  H   UNL     1       6.792  26.453  50.542  1.00  0.00     0.162 HD
HETATM   20  O   UNL     1       4.642  25.850  52.814  1.00  0.00    -0.274 OA
BRANCH  18  21
HETATM   21  C   UNL     1       4.961  27.425  50.525  1.00  0.00     0.184 C 
BRANCH  21  22
HETATM   22  C   UNL     1       4.075  26.834  49.474  1.00  0.00     0.080 A 
HETATM   23  N   UNL     1       4.110  25.509  49.182  1.00  0.00    -0.177 NA
HETATM   24  N   UNL     1       3.187  25.349  48.199  1.00  0.00    -0.281 N 
HETATM   25  H   UNL     1       3.037  24.422  47.814  1.00  0.00     0.189 HD
HETATM   26  C   UNL     1       2.592  26.516  47.888  1.00  0.00     0.036 A 
HETATM   27  C   UNL     1       3.130  27.485  48.675  1.00  0.00    -0.006 A 
HETATM   28  C   UNL     1       1.551  26.963  46.955  1.00  0.00     0.059 C 
HETATM   29  C   UNL     1       2.532  28.802  48.409  1.00  0.00     0.043 C 
HETATM   30  C   UNL     1       1.696  28.519  47.107  1.00  0.00     0.011 C 
ENDBRANCH  21  22
ENDBRANCH  18  21
ENDBRANCH  16  17
ENDBRANCH   1  16
TORSDOF 7
ENDMDL
MODEL 7
REMARK VINA RESULT:      -8.9      2.687      6.196
REMARK  7 active torsions:
REMARK  status: ('A' for Active; 'I' for Inactive)
REMARK    1  A    between atoms: O_2  and  C_3 
REMARK    2  A    between atoms: C_6  and  C_7 
REMARK    3  A    between atoms: C_7  and  C_8 
REMARK    4  A    between atoms: C_7  and  C_14 
REMARK    5  A    between atoms: C_14  and  C_15 
REMARK       I    between atoms: C_15  and  N_16 
REMARK    6  A    between atoms: N_16  and  C_17 
REMARK    7  A    between atoms: C_17  and  C_18 
ROOT
HETATM    1  C   UNL     1       4.917  27.238  51.647  1.00  0.00     0.060 C 
ENDROOT
BRANCH   1   2
HETATM    2  C   UNL     1       5.762  26.088  52.221  1.00  0.00    -0.049 A 
HETATM    3  C   UNL     1       5.217  25.048  52.990  1.00  0.00     0.010 A 
HETATM    4  C   UNL     1       6.025  24.030  53.508  1.00  0.00     0.037 A 
HETATM    5  C   UNL     1       7.400  24.025  53.286  1.00  0.00     0.068 A 
HETATM    6  C   UNL     1       7.966  25.064  52.555  1.00  0.00     0.037 A 
HETATM    7  C   UNL     1       7.157  26.086  52.038  1.00  0.00     0.010 A 
BRANCH   5   8
HETATM    8  O   UNL     1       8.070  22.971  53.842  1.00  0.00    -0.356 OA
HETATM    9  C   UNL     1       8.037  21.742  53.128  1.00  0.00     0.210 C 
ENDBRANCH   5   8
ENDBRANCH   1   2
BRANCH   1  10
HETATM   10  C   UNL     1       4.897  27.327  50.120  1.00  0.00    -0.049 A 
HETATM   11  C   UNL     1       4.408  26.277  49.324  1.00  0.00     0.008 A 
HETATM   12  C   UNL     1       4.415  26.375  47.932  1.00  0.00     0.001 A 
HETATM   13  C   UNL     1       4.911  27.521  47.315  1.00  0.00     0.000 A 
HETATM   14  C   UNL     1       5.399  28.571  48.090  1.00  0.00     0.001 A 
HETATM   15  C   UNL     1       5.392  28.477  49.483  1.00  0.00     0.008 A 
ENDBRANCH   1  10
BRANCH   1  16
HETATM   16  C   UNL     1       5.286  28.601  52.279  1.00  0.00     0.116 C 
BRANCH  16  17
HETATM   17  C   UNL     1       5.022  28.694  53.769  1.00  0.00     0.218 C 
HETATM   18  N   UNL     1       5.913  29.455  54.477  1.00  0.00    -0.355 N 
HETATM   19  H   UNL     1       6.798  29.746  54.080  1.00  0.00     0.162 HD
HETATM   20  O   UNL     1       4.030  28.182  54.285  1.00  0.00    -0.274 OA
BRANCH  18  21
HETATM   21  C   UNL     1       5.874  29.505  55.919  1.00  0.00     0.184 C 
BRANCH  21  22
HETATM   22  C   UNL     1       6.927  28.591  56.463  1.00  0.00     0.080 A 
HETATM   23  N   UNL     1       8.158  29.052  56.803  1.00  0.00    -0.177 NA
HETATM   24  N   UNL     1       8.825  27.956  57.246  1.00  0.00    -0.281 N 
HETATM   25  H   UNL     1       9.786  28.061  57.559  1.00  0.00     0.189 HD
HETATM   26  C   UNL     1       8.054  26.855  57.194  1.00  0.00     0.036 A 
HETATM   27  C   UNL     1       6.839  27.216  56.700  1.00  0.00    -0.006 A 
HETATM   28  C   UNL     1       8.203  25.435  57.533  1.00  0.00     0.059 C 
HETATM   29  C   UNL     1       5.921  26.070  56.613  1.00  0.00     0.043 C 
HETATM   30  C   UNL     1       6.885  24.861  56.900  1.00  0.00     0.011 C 
ENDBRANCH  21  22
ENDBRANCH  18  21
ENDBRANCH  16  17
ENDBRANCH   1  16
TORSDOF 7
ENDMDL
MODEL 8
REMARK VINA RESULT:      -8.9      3.467      8.237
REMARK  7 active torsions:
REMARK  status: ('A' for Active; 'I' for Inactive)
REMARK    1  A    between atoms: O_2  and  C_3 
REMARK    2  A    between atoms: C_6  and  C_7 
REMARK    3  A    between atoms: C_7  and  C_8 
REMARK    4  A    between atoms: C_7  and  C_14 
REMARK    5  A    between atoms: C_14  and  C_15 
REMARK       I    between atoms: C_15  and  N_16 
REMARK    6  A    between atoms: N_16  and  C_17 
REMARK    7  A    between atoms: C_17  and  C_18 
ROOT
HETATM    1  C   UNL     1       6.605  25.830  53.900  1.00  0.00     0.060 C 
ENDROOT
BRANCH   1   2
HETATM    2  C   UNL     1       7.057  24.381  54.144  1.00  0.00    -0.049 A 
HETATM    3  C   UNL     1       7.069  23.787  55.415  1.00  0.00     0.010 A 
HETATM    4  C   UNL     1       7.505  22.470  55.595  1.00  0.00     0.037 A 
HETATM    5  C   UNL     1       7.953  21.710  54.517  1.00  0.00     0.068 A 
HETATM    6  C   UNL     1       7.981  22.290  53.253  1.00  0.00     0.037 A 
HETATM    7  C   UNL     1       7.547  23.611  53.072  1.00  0.00     0.010 A 
BRANCH   5   8
HETATM    8  O   UNL     1       8.344  20.438  54.830  1.00  0.00    -0.356 OA
HETATM    9  C   UNL     1       9.286  20.298  55.885  1.00  0.00     0.210 C 
ENDBRANCH   5   8
ENDBRANCH   1   2
BRANCH   1  10
HETATM   10  C   UNL     1       6.571  26.718  55.145  1.00  0.00    -0.049 A 
HETATM   11  C   UNL     1       7.743  27.274  55.688  1.00  0.00     0.008 A 
HETATM   12  C   UNL     1       7.689  28.067  56.835  1.00  0.00     0.001 A 
HETATM   13  C   UNL     1       6.467  28.315  57.457  1.00  0.00     0.000 A 
HETATM   14  C   UNL     1       5.297  27.771  56.931  1.00  0.00     0.001 A 
HETATM   15  C   UNL     1       5.347  26.980  55.782  1.00  0.00     0.008 A 
ENDBRANCH   1  10
BRANCH   1  16
HETATM   16  C   UNL     1       5.262  25.898  53.133  1.00  0.00     0.116 C 
BRANCH  16  17
HETATM   17  C   UNL     1       5.362  26.501  51.746  1.00  0.00     0.218 C 
HETATM   18  N   UNL     1       5.105  27.843  51.670  1.00  0.00    -0.355 N 
HETATM   19  H   UNL     1       4.667  28.346  52.432  1.00  0.00     0.162 HD
HETATM   20  O   UNL     1       5.724  25.839  50.775  1.00  0.00    -0.274 OA
BRANCH  18  21
HETATM   21  C   UNL     1       5.011  28.516  50.395  1.00  0.00     0.184 C 
BRANCH  21  22
HETATM   22  C   UNL     1       3.650  28.276  49.821  1.00  0.00     0.080 A 
HETATM   23  N   UNL     1       2.543  28.847  50.361  1.00  0.00    -0.177 NA
HETATM   24  N   UNL     1       1.517  28.406  49.587  1.00  0.00    -0.281 N 
HETATM   25  H   UNL     1       0.573  28.709  49.808  1.00  0.00     0.189 HD
HETATM   26  C   UNL     1       1.954  27.599  48.603  1.00  0.00     0.036 A 
HETATM   27  C   UNL     1       3.304  27.490  48.718  1.00  0.00    -0.006 A 
HETATM   28  C   UNL     1       1.350  26.856  47.491  1.00  0.00     0.059 C 
HETATM   29  C   UNL     1       3.874  26.627  47.672  1.00  0.00     0.043 C 
HETATM   30  C   UNL     1       2.583  25.997  47.033  1.00  0.00     0.011 C 
ENDBRANCH  21  22
ENDBRANCH  18  21
ENDBRANCH  16  17
ENDBRANCH   1  16
TORSDOF 7
ENDMDL
MODEL 9
REMARK VINA RESULT:      -8.8      3.371      7.046
REMARK  7 active torsions:
REMARK  status: ('A' for Active; 'I' for Inactive)
REMARK    1  A    between atoms: O_2  and  C_3 
REMARK    2  A    between atoms: C_6  and  C_7 
REMARK    3  A    between atoms: C_7  and  C_8 
REMARK    4  A    between atoms: C_7  and  C_14 
REMARK    5  A    between atoms: C_14  and  C_15 
REMARK       I    between atoms: C_15  and  N_16 
REMARK    6  A    between atoms: N_16  and  C_17 
REMARK    7  A    between atoms: C_17  and  C_18 
ROOT
HETATM    1  C   UNL     1       6.614  24.850  54.089  1.00  0.00     0.060 C 
ENDROOT
BRANCH   1   2
HETATM    2  C   UNL     1       7.023  25.791  55.234  1.00  0.00    -0.049 A 
HETATM    3  C   UNL     1       6.868  25.461  56.589  1.00  0.00     0.010 A 
HETATM    4  C   UNL     1       7.239  26.355  57.600  1.00  0.00     0.037 A 
HETATM    5  C   UNL     1       7.764  27.607  57.291  1.00  0.00     0.068 A 
HETATM    6  C   UNL     1       7.896  27.968  55.954  1.00  0.00     0.037 A 
HETATM    7  C   UNL     1       7.522  27.074  54.941  1.00  0.00     0.010 A 
BRANCH   5   8
HETATM    8  O   UNL     1       8.090  28.379  58.371  1.00  0.00    -0.356 OA
HETATM    9  C   UNL     1       7.657  29.732  58.348  1.00  0.00     0.210 C 
ENDBRANCH   5   8
ENDBRANCH   1   2
BRANCH   1  10
HETATM   10  C   UNL     1       7.228  23.450  54.149  1.00  0.00    -0.049 A 
HETATM   11  C   UNL     1       7.654  22.780  52.989  1.00  0.00     0.008 A 
HETATM   12  C   UNL     1       8.197  21.497  53.067  1.00  0.00     0.001 A 
HETATM   13  C   UNL     1       8.321  20.864  54.302  1.00  0.00     0.000 A 
HETATM   14  C   UNL     1       7.903  21.515  55.461  1.00  0.00     0.001 A 
HETATM   15  C   UNL     1       7.363  22.800  55.387  1.00  0.00     0.008 A 
ENDBRANCH   1  10
BRANCH   1  16
HETATM   16  C   UNL     1       6.834  25.495  52.700  1.00  0.00     0.116 C 
BRANCH  16  17
HETATM   17  C   UNL     1       5.625  25.448  51.787  1.00  0.00     0.218 C 
HETATM   18  N   UNL     1       5.743  26.153  50.620  1.00  0.00    -0.355 N 
HETATM   19  H   UNL     1       6.482  26.831  50.479  1.00  0.00     0.162 HD
HETATM   20  O   UNL     1       4.642  24.758  52.049  1.00  0.00    -0.274 OA
BRANCH  18  21
HETATM   21  C   UNL     1       4.617  26.324  49.732  1.00  0.00     0.184 C 
BRANCH  21  22
HETATM   22  C   UNL     1       4.770  27.619  49.000  1.00  0.00     0.080 A 
HETATM   23  N   UNL     1       4.682  27.682  47.646  1.00  0.00    -0.177 NA
HETATM   24  N   UNL     1       4.871  28.994  47.350  1.00  0.00    -0.281 N 
HETATM   25  H   UNL     1       4.849  29.284  46.377  1.00  0.00     0.189 HD
HETATM   26  C   UNL     1       5.064  29.727  48.462  1.00  0.00     0.036 A 
HETATM   27  C   UNL     1       5.009  28.890  49.532  1.00  0.00    -0.006 A 
HETATM   28  C   UNL     1       5.299  31.141  48.775  1.00  0.00     0.059 C 
HETATM   29  C   UNL     1       5.204  29.609  50.800  1.00  0.00     0.043 C 
HETATM   30  C   UNL     1       5.659  31.029  50.300  1.00  0.00     0.011 C 
ENDBRANCH  21  22
ENDBRANCH  18  21
ENDBRANCH  16  17
ENDBRANCH   1  16
TORSDOF 7
ENDMDL
MODEL 10
REMARK VINA RESULT:      -8.5      2.313      5.346
REMARK  7 active torsions:
REMARK  status: ('A' for Active; 'I' for Inactive)
REMARK    1  A    between atoms: O_2  and  C_3 
REMARK    2  A    between atoms: C_6  and  C_7 
REMARK    3  A    between atoms: C_7  and  C_8 
REMARK    4  A    between atoms: C_7  and  C_14 
REMARK    5  A    between atoms: C_14  and  C_15 
REMARK       I    between atoms: C_15  and  N_16 
REMARK    6  A    between atoms: N_16  and  C_17 
REMARK    7  A    between atoms: C_17  and  C_18 
ROOT
HETATM    1  C   UNL     1       5.403  26.952  52.459  1.00  0.00     0.060 C 
ENDROOT
BRANCH   1   2
HETATM    2  C   UNL     1       6.261  25.713  52.765  1.00  0.00    -0.049 A 
HETATM    3  C   UNL     1       7.377  25.348  51.996  1.00  0.00     0.010 A 
HETATM    4  C   UNL     1       8.121  24.202  52.300  1.00  0.00     0.037 A 
HETATM    5  C   UNL     1       7.768  23.381  53.369  1.00  0.00     0.068 A 
HETATM    6  C   UNL     1       6.646  23.707  54.123  1.00  0.00     0.037 A 
HETATM    7  C   UNL     1       5.899  24.853  53.818  1.00  0.00     0.010 A 
BRANCH   5   8
HETATM    8  O   UNL     1       8.582  22.299  53.559  1.00  0.00    -0.356 OA
HETATM    9  C   UNL     1       8.022  21.020  53.293  1.00  0.00     0.210 C 
ENDBRANCH   5   8
ENDBRANCH   1   2
BRANCH   1  10
HETATM   10  C   UNL     1       5.183  27.238  50.972  1.00  0.00    -0.049 A 
HETATM   11  C   UNL     1       4.657  26.268  50.102  1.00  0.00     0.008 A 
HETATM   12  C   UNL     1       4.482  26.547  48.746  1.00  0.00     0.001 A 
HETATM   13  C   UNL     1       4.829  27.797  48.240  1.00  0.00     0.000 A 
HETATM   14  C   UNL     1       5.352  28.770  49.089  1.00  0.00     0.001 A 
HETATM   15  C   UNL     1       5.527  28.495  50.446  1.00  0.00     0.008 A 
ENDBRANCH   1  10
BRANCH   1  16
HETATM   16  C   UNL     1       5.916  28.211  53.198  1.00  0.00     0.116 C 
BRANCH  16  17
HETATM   17  C   UNL     1       5.487  28.306  54.649  1.00  0.00     0.218 C 
HETATM   18  N   UNL     1       6.430  28.800  55.509  1.00  0.00    -0.355 N 
HETATM   19  H   UNL     1       7.404  28.883  55.242  1.00  0.00     0.162 HD
HETATM   20  O   UNL     1       4.343  28.030  55.006  1.00  0.00    -0.274 OA
BRANCH  18  21
HETATM   21  C   UNL     1       6.214  28.800  56.937  1.00  0.00     0.184 C 
BRANCH  21  22
HETATM   22  C   UNL     1       7.165  29.767  57.570  1.00  0.00     0.080 A 
HETATM   23  N   UNL     1       6.721  30.801  58.329  1.00  0.00    -0.177 NA
HETATM   24  N   UNL     1       7.850  31.446  58.723  1.00  0.00    -0.281 N 
HETATM   25  H   UNL     1       7.763  32.270  59.311  1.00  0.00     0.189 HD
HETATM   26  C   UNL     1       8.954  30.847  58.241  1.00  0.00     0.036 A 
HETATM   27  C   UNL     1       8.561  29.776  57.501  1.00  0.00    -0.006 A 
HETATM   28  C   UNL     1      10.403  31.061  58.326  1.00  0.00     0.059 C 
HETATM   29  C   UNL     1       9.709  29.051  56.935  1.00  0.00     0.043 C 
HETATM   30  C   UNL     1      10.897  30.034  57.245  1.00  0.00     0.011 C 
ENDBRANCH  21  22
ENDBRANCH  18  21
ENDBRANCH  16  17
ENDBRANCH   1  16
TORSDOF 7
ENDMDL
