MODEL 1
REMARK VINA RESULT:      -8.3      0.000      0.000
REMARK  6 active torsions:
REMARK  status: ('A' for Active; 'I' for Inactive)
REMARK    1  A    between atoms: C_3  and  N_4 
REMARK       I    between atoms: N_4  and  C_5 
REMARK       I    between atoms: C_5  and  N_6 
REMARK    2  A    between atoms: N_6  and  C_7 
REMARK    3  A    between atoms: C_7  and  C_8 
REMARK    4  A    between atoms: C_8  and  N_9 
REMARK    5  A    between atoms: C_8  and  C_13 
REMARK    6  A    between atoms: C_20  and  C_21 
ROOT
HETATM    1  N   UNL     1       7.762  26.902  56.467  1.00  0.00    -0.309 N 
HETATM    2  C   UNL     1       7.383  25.632  56.821  1.00  0.00     0.320 C 
HETATM    3  N   UNL     1       8.243  24.690  56.302  1.00  0.00    -0.340 N 
HETATM    4  O   UNL     1       6.433  25.296  57.515  1.00  0.00    -0.247 OA
HETATM    5  H   UNL     1       8.236  26.941  55.575  1.00  0.00     0.170 HD
HETATM    6  H   UNL     1       9.078  24.999  55.817  1.00  0.00     0.164 HD
ENDROOT
BRANCH   1   7
HETATM    7  C   UNL     1       7.166  28.125  56.864  1.00  0.00     0.043 A 
HETATM    8  C   UNL     1       5.924  28.624  56.440  1.00  0.00    -0.035 A 
HETATM    9  C   UNL     1       4.960  27.896  55.547  1.00  0.00     0.050 C 
HETATM   10  C   UNL     1       5.512  29.892  56.900  1.00  0.00     0.010 A 
HETATM   11  C   UNL     1       6.278  30.626  57.808  1.00  0.00     0.016 A 
HETATM   12  C   UNL     1       7.480  30.110  58.290  1.00  0.00     0.019 A 
HETATM   13  C   UNL     1       7.905  28.861  57.812  1.00  0.00     0.046 A 
BRANCH  12  14
HETATM   14  C   UNL     1       8.304  30.824  59.259  1.00  0.00     0.179 A 
HETATM   15  O   UNL     1       8.687  30.135  60.381  1.00  0.00    -0.302 OA
HETATM   16  C   UNL     1       9.433  31.031  61.085  1.00  0.00     0.163 A 
HETATM   17  C   UNL     1       9.471  32.202  60.373  1.00  0.00     0.144 A 
HETATM   18  N   UNL     1       8.753  32.066  59.212  1.00  0.00    -0.234 NA
ENDBRANCH  12  14
ENDBRANCH   1   7
BRANCH   3  19
HETATM   19  C   UNL     1       7.952  23.265  56.350  1.00  0.00     0.164 C 
BRANCH  19  20
HETATM   20  C   UNL     1       7.618  22.568  55.001  1.00  0.00     0.261 C 
BRANCH  20  21
HETATM   21  N   UNL     1       8.556  21.430  54.591  1.00  0.00    -0.067 N 
HETATM   22  H   UNL     1       9.322  21.907  54.101  1.00  0.00     0.280 HD
HETATM   23  C   UNL     1       9.235  20.681  55.701  1.00  0.00     0.270 C 
HETATM   24  C   UNL     1       7.949  20.491  53.587  1.00  0.00     0.270 C 
ENDBRANCH  20  21
BRANCH  20  25
HETATM   25  C   UNL     1       7.377  23.559  53.899  1.00  0.00     0.085 A 
HETATM   26  O   UNL     1       6.197  24.246  53.922  1.00  0.00    -0.325 OA
HETATM   27  C   UNL     1       6.194  25.072  52.843  1.00  0.00     0.142 A 
HETATM   28  C   UNL     1       7.356  24.925  52.124  1.00  0.00     0.027 A 
HETATM   29  C   UNL     1       8.123  23.948  52.804  1.00  0.00     0.037 A 
ENDBRANCH  20  25
ENDBRANCH  19  20
ENDBRANCH   3  19
TORSDOF 6
ENDMDL
MODEL 2
REMARK VINA RESULT:      -8.3      1.879      2.732
REMARK  6 active torsions:
REMARK  status: ('A' for Active; 'I' for Inactive)
REMARK    1  A    between atoms: C_3  and  N_4 
REMARK       I    between atoms: N_4  and  C_5 
REMARK       I    between atoms: C_5  and  N_6 
REMARK    2  A    between atoms: N_6  and  C_7 
REMARK    3  A    between atoms: C_7  and  C_8 
REMARK    4  A    between atoms: C_8  and  N_9 
REMARK    5  A    between atoms: C_8  and  C_13 
REMARK    6  A    between atoms: C_20  and  C_21 
ROOT
HETATM    1  N   UNL     1       7.716  28.508  56.778  1.00  0.00    -0.309 N 
HETATM    2  C   UNL     1       7.496  27.218  57.189  1.00  0.00     0.320 C 
HETATM    3  N   UNL     1       6.939  26.461  56.182  1.00  0.00    -0.340 N 
HETATM    4  O   UNL     1       7.746  26.722  58.278  1.00  0.00    -0.247 OA
HETATM    5  H   UNL     1       7.055  28.821  56.079  1.00  0.00     0.170 HD
HETATM    6  H   UNL     1       6.836  26.868  55.259  1.00  0.00     0.164 HD
ENDROOT
BRANCH   1   7
HETATM    7  C   UNL     1       8.331  29.555  57.509  1.00  0.00     0.043 A 
HETATM    8  C   UNL     1       9.663  29.984  57.393  1.00  0.00    -0.035 A 
HETATM    9  C   UNL     1      10.656  29.456  56.398  1.00  0.00     0.050 C 
HETATM   10  C   UNL     1      10.119  31.010  58.245  1.00  0.00     0.010 A 
HETATM   11  C   UNL     1       9.266  31.646  59.148  1.00  0.00     0.016 A 
HETATM   12  C   UNL     1       7.924  31.277  59.224  1.00  0.00     0.019 A 
HETATM   13  C   UNL     1       7.474  30.235  58.397  1.00  0.00     0.046 A 
BRANCH  12  14
HETATM   14  C   UNL     1       6.984  31.927  60.132  1.00  0.00     0.179 A 
HETATM   15  O   UNL     1       7.158  31.705  61.474  1.00  0.00    -0.302 OA
HETATM   16  C   UNL     1       6.163  32.425  62.063  1.00  0.00     0.163 A 
HETATM   17  C   UNL     1       5.443  33.042  61.072  1.00  0.00     0.144 A 
HETATM   18  N   UNL     1       5.970  32.725  59.846  1.00  0.00    -0.234 NA
ENDBRANCH  12  14
ENDBRANCH   1   7
BRANCH   3  19
HETATM   19  C   UNL     1       6.414  25.124  56.417  1.00  0.00     0.164 C 
BRANCH  19  20
HETATM   20  C   UNL     1       6.846  24.013  55.417  1.00  0.00     0.261 C 
BRANCH  20  21
HETATM   21  N   UNL     1       8.014  23.131  55.869  1.00  0.00    -0.067 N 
HETATM   22  H   UNL     1       8.773  23.381  55.225  1.00  0.00     0.280 HD
HETATM   23  C   UNL     1       8.578  23.404  57.233  1.00  0.00     0.270 C 
HETATM   24  C   UNL     1       7.766  21.664  55.662  1.00  0.00     0.270 C 
ENDBRANCH  20  21
BRANCH  20  25
HETATM   25  C   UNL     1       7.013  24.542  54.023  1.00  0.00     0.085 A 
HETATM   26  O   UNL     1       6.065  25.413  53.566  1.00  0.00    -0.325 OA
HETATM   27  C   UNL     1       6.412  25.754  52.298  1.00  0.00     0.142 A 
HETATM   28  C   UNL     1       7.570  25.113  51.930  1.00  0.00     0.027 A 
HETATM   29  C   UNL     1       7.962  24.330  53.043  1.00  0.00     0.037 A 
ENDBRANCH  20  25
ENDBRANCH  19  20
ENDBRANCH   3  19
TORSDOF 6
ENDMDL
MODEL 3
REMARK VINA RESULT:      -8.2      2.103      8.218
REMARK  6 active torsions:
REMARK  status: ('A' for Active; 'I' for Inactive)
REMARK    1  A    between atoms: C_3  and  N_4 
REMARK       I    between atoms: N_4  and  C_5 
REMARK       I    between atoms: C_5  and  N_6 
REMARK    2  A    between atoms: N_6  and  C_7 
REMARK    3  A    between atoms: C_7  and  C_8 
REMARK    4  A    between atoms: C_8  and  N_9 
REMARK    5  A    between atoms: C_8  and  C_13 
REMARK    6  A    between atoms: C_20  and  C_21 
ROOT
HETATM    1  N   UNL     1       5.723  27.139  55.949  1.00  0.00    -0.309 N 
HETATM    2  C   UNL     1       6.327  28.361  56.105  1.00  0.00     0.320 C 
HETATM    3  N   UNL     1       6.179  28.832  57.390  1.00  0.00    -0.340 N 
HETATM    4  O   UNL     1       6.948  29.004  55.271  1.00  0.00    -0.247 OA
HETATM    5  H   UNL     1       4.920  27.013  56.552  1.00  0.00     0.170 HD
HETATM    6  H   UNL     1       5.750  28.234  58.088  1.00  0.00     0.164 HD
ENDROOT
BRANCH   1   7
HETATM    7  C   UNL     1       5.719  26.316  54.795  1.00  0.00     0.043 A 
HETATM    8  C   UNL     1       4.946  26.506  53.638  1.00  0.00    -0.035 A 
HETATM    9  C   UNL     1       4.041  27.678  53.386  1.00  0.00     0.050 C 
HETATM   10  C   UNL     1       5.032  25.551  52.605  1.00  0.00     0.010 A 
HETATM   11  C   UNL     1       5.908  24.466  52.680  1.00  0.00     0.016 A 
HETATM   12  C   UNL     1       6.731  24.305  53.794  1.00  0.00     0.019 A 
HETATM   13  C   UNL     1       6.626  25.239  54.836  1.00  0.00     0.046 A 
BRANCH  12  14
HETATM   14  C   UNL     1       7.681  23.204  53.911  1.00  0.00     0.179 A 
HETATM   15  O   UNL     1       8.437  23.150  55.054  1.00  0.00    -0.302 OA
HETATM   16  C   UNL     1       9.212  22.042  54.890  1.00  0.00     0.163 A 
HETATM   17  C   UNL     1       8.898  21.482  53.679  1.00  0.00     0.144 A 
HETATM   18  N   UNL     1       7.923  22.222  53.059  1.00  0.00    -0.234 NA
ENDBRANCH  12  14
ENDBRANCH   1   7
BRANCH   3  19
HETATM   19  C   UNL     1       6.541  30.191  57.764  1.00  0.00     0.164 C 
BRANCH  19  20
HETATM   20  C   UNL     1       7.683  30.353  58.807  1.00  0.00     0.261 C 
BRANCH  20  21
HETATM   21  N   UNL     1       7.538  31.533  59.772  1.00  0.00    -0.067 N 
HETATM   22  H   UNL     1       8.224  32.216  59.431  1.00  0.00     0.280 HD
HETATM   23  C   UNL     1       6.231  32.273  59.743  1.00  0.00     0.270 C 
HETATM   24  C   UNL     1       7.949  31.205  61.179  1.00  0.00     0.270 C 
ENDBRANCH  20  21
BRANCH  20  25
HETATM   25  C   UNL     1       9.041  30.275  58.173  1.00  0.00     0.085 A 
HETATM   26  O   UNL     1       9.325  29.162  57.435  1.00  0.00    -0.325 OA
HETATM   27  C   UNL     1      10.593  29.304  56.967  1.00  0.00     0.142 A 
HETATM   28  C   UNL     1      11.130  30.494  57.395  1.00  0.00     0.027 A 
HETATM   29  C   UNL     1      10.130  31.125  58.174  1.00  0.00     0.037 A 
ENDBRANCH  20  25
ENDBRANCH  19  20
ENDBRANCH   3  19
TORSDOF 6
ENDMDL
MODEL 4
REMARK VINA RESULT:      -8.2      2.146      3.806
REMARK  6 active torsions:
REMARK  status: ('A' for Active; 'I' for Inactive)
REMARK    1  A    between atoms: C_3  and  N_4 
REMARK       I    between atoms: N_4  and  C_5 
REMARK       I    between atoms: C_5  and  N_6 
REMARK    2  A    between atoms: N_6  and  C_7 
REMARK    3  A    between atoms: C_7  and  C_8 
REMARK    4  A    between atoms: C_8  and  N_9 
REMARK    5  A    between atoms: C_8  and  C_13 
REMARK    6  A    between atoms: C_20  and  C_21 
ROOT
HETATM    1  N   UNL     1       8.121  28.290  57.720  1.00  0.00    -0.309 N 
HETATM    2  C   UNL     1       7.110  28.142  56.805  1.00  0.00     0.320 C 
HETATM    3  N   UNL     1       6.710  26.827  56.711  1.00  0.00    -0.340 N 
HETATM    4  O   UNL     1       6.569  29.009  56.133  1.00  0.00    -0.247 OA
HETATM    5  H   UNL     1       8.709  27.471  57.800  1.00  0.00     0.170 HD
HETATM    6  H   UNL     1       7.103  26.146  57.351  1.00  0.00     0.164 HD
ENDROOT
BRANCH   1   7
HETATM    7  C   UNL     1       8.743  29.495  58.134  1.00  0.00     0.043 A 
HETATM    8  C   UNL     1       9.800  30.154  57.486  1.00  0.00    -0.035 A 
HETATM    9  C   UNL     1      10.407  29.735  56.178  1.00  0.00     0.050 C 
HETATM   10  C   UNL     1      10.332  31.319  58.076  1.00  0.00     0.010 A 
HETATM   11  C   UNL     1       9.792  31.862  59.243  1.00  0.00     0.016 A 
HETATM   12  C   UNL     1       8.697  31.255  59.857  1.00  0.00     0.019 A 
HETATM   13  C   UNL     1       8.184  30.079  59.288  1.00  0.00     0.046 A 
BRANCH  12  14
HETATM   14  C   UNL     1       8.078  31.796  61.063  1.00  0.00     0.179 A 
HETATM   15  O   UNL     1       8.864  31.878  62.184  1.00  0.00    -0.302 OA
HETATM   16  C   UNL     1       8.042  32.412  63.130  1.00  0.00     0.163 A 
HETATM   17  C   UNL     1       6.817  32.628  62.553  1.00  0.00     0.144 A 
HETATM   18  N   UNL     1       6.845  32.237  61.238  1.00  0.00    -0.234 NA
ENDBRANCH  12  14
ENDBRANCH   1   7
BRANCH   3  19
HETATM   19  C   UNL     1       5.804  26.365  55.670  1.00  0.00     0.164 C 
BRANCH  19  20
HETATM   20  C   UNL     1       6.445  25.940  54.318  1.00  0.00     0.261 C 
BRANCH  20  21
HETATM   21  N   UNL     1       5.551  26.092  53.084  1.00  0.00    -0.067 N 
HETATM   22  H   UNL     1       6.215  26.111  52.301  1.00  0.00     0.280 HD
HETATM   23  C   UNL     1       4.635  24.946  52.767  1.00  0.00     0.270 C 
HETATM   24  C   UNL     1       4.822  27.405  53.036  1.00  0.00     0.270 C 
ENDBRANCH  20  21
BRANCH  20  25
HETATM   25  C   UNL     1       7.105  24.595  54.404  1.00  0.00     0.085 A 
HETATM   26  O   UNL     1       6.845  23.839  55.512  1.00  0.00    -0.325 OA
HETATM   27  C   UNL     1       7.542  22.681  55.379  1.00  0.00     0.142 A 
HETATM   28  C   UNL     1       8.248  22.680  54.201  1.00  0.00     0.027 A 
HETATM   29  C   UNL     1       7.968  23.915  53.568  1.00  0.00     0.037 A 
ENDBRANCH  20  25
ENDBRANCH  19  20
ENDBRANCH   3  19
TORSDOF 6
ENDMDL
MODEL 5
REMARK VINA RESULT:      -8.2      2.047      3.591
REMARK  6 active torsions:
REMARK  status: ('A' for Active; 'I' for Inactive)
REMARK    1  A    between atoms: C_3  and  N_4 
REMARK       I    between atoms: N_4  and  C_5 
REMARK       I    between atoms: C_5  and  N_6 
REMARK    2  A    between atoms: N_6  and  C_7 
REMARK    3  A    between atoms: C_7  and  C_8 
REMARK    4  A    between atoms: C_8  and  N_9 
REMARK    5  A    between atoms: C_8  and  C_13 
REMARK    6  A    between atoms: C_20  and  C_21 
ROOT
HETATM    1  N   UNL     1       7.713  28.638  56.758  1.00  0.00    -0.309 N 
HETATM    2  C   UNL     1       7.765  27.276  56.914  1.00  0.00     0.320 C 
HETATM    3  N   UNL     1       7.096  26.631  55.898  1.00  0.00    -0.340 N 
HETATM    4  O   UNL     1       8.324  26.641  57.797  1.00  0.00    -0.247 OA
HETATM    5  H   UNL     1       6.873  28.953  56.290  1.00  0.00     0.170 HD
HETATM    6  H   UNL     1       6.730  27.175  55.125  1.00  0.00     0.164 HD
ENDROOT
BRANCH   1   7
HETATM    7  C   UNL     1       8.336  29.625  57.562  1.00  0.00     0.043 A 
HETATM    8  C   UNL     1       9.668  30.061  57.466  1.00  0.00    -0.035 A 
HETATM    9  C   UNL     1      10.651  29.610  56.424  1.00  0.00     0.050 C 
HETATM   10  C   UNL     1      10.133  31.018  58.390  1.00  0.00     0.010 A 
HETATM   11  C   UNL     1       9.289  31.583  59.348  1.00  0.00     0.016 A 
HETATM   12  C   UNL     1       7.948  31.210  59.408  1.00  0.00     0.019 A 
HETATM   13  C   UNL     1       7.489  30.236  58.508  1.00  0.00     0.046 A 
BRANCH  12  14
HETATM   14  C   UNL     1       7.018  31.789  60.373  1.00  0.00     0.179 A 
HETATM   15  O   UNL     1       7.219  31.483  61.694  1.00  0.00    -0.302 OA
HETATM   16  C   UNL     1       6.227  32.152  62.346  1.00  0.00     0.163 A 
HETATM   17  C   UNL     1       5.482  32.821  61.410  1.00  0.00     0.144 A 
HETATM   18  N   UNL     1       5.989  32.590  60.156  1.00  0.00    -0.234 NA
ENDBRANCH  12  14
ENDBRANCH   1   7
BRANCH   3  19
HETATM   19  C   UNL     1       6.821  25.202  55.936  1.00  0.00     0.164 C 
BRANCH  19  20
HETATM   20  C   UNL     1       7.556  24.316  54.891  1.00  0.00     0.261 C 
BRANCH  20  21
HETATM   21  N   UNL     1       6.962  24.323  53.480  1.00  0.00    -0.067 N 
HETATM   22  H   UNL     1       6.930  23.331  53.221  1.00  0.00     0.280 HD
HETATM   23  C   UNL     1       5.541  24.789  53.347  1.00  0.00     0.270 C 
HETATM   24  C   UNL     1       7.851  24.983  52.464  1.00  0.00     0.270 C 
ENDBRANCH  20  21
BRANCH  20  25
HETATM   25  C   UNL     1       7.822  22.934  55.411  1.00  0.00     0.085 A 
HETATM   26  O   UNL     1       8.155  22.813  56.730  1.00  0.00    -0.325 OA
HETATM   27  C   UNL     1       8.352  21.492  56.974  1.00  0.00     0.142 A 
HETATM   28  C   UNL     1       8.151  20.758  55.830  1.00  0.00     0.027 A 
HETATM   29  C   UNL     1       7.809  21.687  54.817  1.00  0.00     0.037 A 
ENDBRANCH  20  25
ENDBRANCH  19  20
ENDBRANCH   3  19
TORSDOF 6
ENDMDL
MODEL 6
REMARK VINA RESULT:      -8.1      4.350      8.257
REMARK  6 active torsions:
REMARK  status: ('A' for Active; 'I' for Inactive)
REMARK    1  A    between atoms: C_3  and  N_4 
REMARK       I    between atoms: N_4  and  C_5 
REMARK       I    between atoms: C_5  and  N_6 
REMARK    2  A    between atoms: N_6  and  C_7 
REMARK    3  A    between atoms: C_7  and  C_8 
REMARK    4  A    between atoms: C_8  and  N_9 
REMARK    5  A    between atoms: C_8  and  C_13 
REMARK    6  A    between atoms: C_20  and  C_21 
ROOT
HETATM    1  N   UNL     1       4.770  26.123  53.448  1.00  0.00    -0.309 N 
HETATM    2  C   UNL     1       5.054  27.283  52.774  1.00  0.00     0.320 C 
HETATM    3  N   UNL     1       4.004  27.665  51.969  1.00  0.00    -0.340 N 
HETATM    4  O   UNL     1       6.072  27.959  52.835  1.00  0.00    -0.247 OA
HETATM    5  H   UNL     1       4.142  25.513  52.942  1.00  0.00     0.170 HD
HETATM    6  H   UNL     1       3.135  27.145  52.014  1.00  0.00     0.164 HD
ENDROOT
BRANCH   1   7
HETATM    7  C   UNL     1       5.574  25.462  54.410  1.00  0.00     0.043 A 
HETATM    8  C   UNL     1       5.779  25.859  55.741  1.00  0.00    -0.035 A 
HETATM    9  C   UNL     1       5.103  27.022  56.409  1.00  0.00     0.050 C 
HETATM   10  C   UNL     1       6.660  25.106  56.543  1.00  0.00     0.010 A 
HETATM   11  C   UNL     1       7.277  23.948  56.065  1.00  0.00     0.016 A 
HETATM   12  C   UNL     1       7.027  23.505  54.767  1.00  0.00     0.019 A 
HETATM   13  C   UNL     1       6.173  24.269  53.958  1.00  0.00     0.046 A 
BRANCH  12  14
HETATM   14  C   UNL     1       7.626  22.288  54.228  1.00  0.00     0.179 A 
HETATM   15  O   UNL     1       7.946  21.300  55.124  1.00  0.00    -0.302 OA
HETATM   16  C   UNL     1       8.471  20.308  54.353  1.00  0.00     0.163 A 
HETATM   17  C   UNL     1       8.446  20.727  53.048  1.00  0.00     0.144 A 
HETATM   18  N   UNL     1       7.907  21.987  52.972  1.00  0.00    -0.234 NA
ENDBRANCH  12  14
ENDBRANCH   1   7
BRANCH   3  19
HETATM   19  C   UNL     1       4.124  28.738  50.994  1.00  0.00     0.164 C 
BRANCH  19  20
HETATM   20  C   UNL     1       4.906  28.418  49.688  1.00  0.00     0.261 C 
BRANCH  20  21
HETATM   21  N   UNL     1       5.413  29.632  48.904  1.00  0.00    -0.067 N 
HETATM   22  H   UNL     1       6.238  29.277  48.409  1.00  0.00     0.280 HD
HETATM   23  C   UNL     1       4.520  30.153  47.815  1.00  0.00     0.270 C 
HETATM   24  C   UNL     1       5.908  30.744  49.785  1.00  0.00     0.270 C 
ENDBRANCH  20  21
BRANCH  20  25
HETATM   25  C   UNL     1       4.185  27.422  48.829  1.00  0.00     0.085 A 
HETATM   26  O   UNL     1       2.822  27.392  48.912  1.00  0.00    -0.325 OA
HETATM   27  C   UNL     1       2.389  26.425  48.062  1.00  0.00     0.142 A 
HETATM   28  C   UNL     1       3.455  25.830  47.432  1.00  0.00     0.027 A 
HETATM   29  C   UNL     1       4.617  26.471  47.925  1.00  0.00     0.037 A 
ENDBRANCH  20  25
ENDBRANCH  19  20
ENDBRANCH   3  19
TORSDOF 6
ENDMDL
MODEL 7
REMARK VINA RESULT:      -7.9      3.807     10.209
REMARK  6 active torsions:
REMARK  status: ('A' for Active; 'I' for Inactive)
REMARK    1  A    between atoms: C_3  and  N_4 
REMARK       I    between atoms: N_4  and  C_5 
REMARK       I    between atoms: C_5  and  N_6 
REMARK    2  A    between atoms: N_6  and  C_7 
REMARK    3  A    between atoms: C_7  and  C_8 
REMARK    4  A    between atoms: C_8  and  N_9 
REMARK    5  A    between atoms: C_8  and  C_13 
REMARK    6  A    between atoms: C_20  and  C_21 
ROOT
HETATM    1  N   UNL     1       7.987  30.208  59.746  1.00  0.00    -0.309 N 
HETATM    2  C   UNL     1       7.556  31.474  60.053  1.00  0.00     0.320 C 
HETATM    3  N   UNL     1       7.408  31.635  61.413  1.00  0.00    -0.340 N 
HETATM    4  O   UNL     1       7.327  32.397  59.286  1.00  0.00    -0.247 OA
HETATM    5  H   UNL     1       7.675  29.510  60.409  1.00  0.00     0.170 HD
HETATM    6  H   UNL     1       7.701  30.889  62.033  1.00  0.00     0.164 HD
ENDROOT
BRANCH   1   7
HETATM    7  C   UNL     1       8.312  29.691  58.467  1.00  0.00     0.043 A 
HETATM    8  C   UNL     1       9.373  30.106  57.646  1.00  0.00    -0.035 A 
HETATM    9  C   UNL     1      10.411  31.123  58.023  1.00  0.00     0.050 C 
HETATM   10  C   UNL     1       9.513  29.514  56.374  1.00  0.00     0.010 A 
HETATM   11  C   UNL     1       8.666  28.490  55.945  1.00  0.00     0.016 A 
HETATM   12  C   UNL     1       7.653  28.022  56.780  1.00  0.00     0.019 A 
HETATM   13  C   UNL     1       7.494  28.630  58.035  1.00  0.00     0.046 A 
BRANCH  12  14
HETATM   14  C   UNL     1       6.758  26.936  56.390  1.00  0.00     0.179 A 
HETATM   15  O   UNL     1       6.100  26.278  57.397  1.00  0.00    -0.302 OA
HETATM   16  C   UNL     1       5.351  25.343  56.751  1.00  0.00     0.163 A 
HETATM   17  C   UNL     1       5.582  25.472  55.405  1.00  0.00     0.144 A 
HETATM   18  N   UNL     1       6.476  26.488  55.180  1.00  0.00    -0.234 NA
ENDBRANCH  12  14
ENDBRANCH   1   7
BRANCH   3  19
HETATM   19  C   UNL     1       6.766  32.808  61.989  1.00  0.00     0.164 C 
BRANCH  19  20
HETATM   20  C   UNL     1       5.524  32.559  62.891  1.00  0.00     0.261 C 
BRANCH  20  21
HETATM   21  N   UNL     1       4.170  32.905  62.266  1.00  0.00    -0.067 N 
HETATM   22  H   UNL     1       3.520  32.886  63.060  1.00  0.00     0.280 HD
HETATM   23  C   UNL     1       4.021  34.287  61.697  1.00  0.00     0.270 C 
HETATM   24  C   UNL     1       3.674  31.862  61.306  1.00  0.00     0.270 C 
ENDBRANCH  20  21
BRANCH  20  25
HETATM   25  C   UNL     1       5.702  33.133  64.266  1.00  0.00     0.085 A 
HETATM   26  O   UNL     1       4.589  33.234  65.052  1.00  0.00    -0.325 OA
HETATM   27  C   UNL     1       4.981  33.776  66.234  1.00  0.00     0.142 A 
HETATM   28  C   UNL     1       6.331  34.028  66.221  1.00  0.00     0.027 A 
HETATM   29  C   UNL     1       6.801  33.614  64.951  1.00  0.00     0.037 A 
ENDBRANCH  20  25
ENDBRANCH  19  20
ENDBRANCH   3  19
TORSDOF 6
ENDMDL
MODEL 8
REMARK VINA RESULT:      -7.7      4.492      8.261
REMARK  6 active torsions:
REMARK  status: ('A' for Active; 'I' for Inactive)
REMARK    1  A    between atoms: C_3  and  N_4 
REMARK       I    between atoms: N_4  and  C_5 
REMARK       I    between atoms: C_5  and  N_6 
REMARK    2  A    between atoms: N_6  and  C_7 
REMARK    3  A    between atoms: C_7  and  C_8 
REMARK    4  A    between atoms: C_8  and  N_9 
REMARK    5  A    between atoms: C_8  and  C_13 
REMARK    6  A    between atoms: C_20  and  C_21 
ROOT
HETATM    1  N   UNL     1       6.379  26.046  52.525  1.00  0.00    -0.309 N 
HETATM    2  C   UNL     1       5.463  25.686  51.568  1.00  0.00     0.320 C 
HETATM    3  N   UNL     1       5.634  26.416  50.413  1.00  0.00    -0.340 N 
HETATM    4  O   UNL     1       4.591  24.832  51.645  1.00  0.00    -0.247 OA
HETATM    5  H   UNL     1       6.666  27.013  52.456  1.00  0.00     0.170 HD
HETATM    6  H   UNL     1       6.426  27.044  50.340  1.00  0.00     0.164 HD
ENDROOT
BRANCH   1   7
HETATM    7  C   UNL     1       6.556  25.475  53.810  1.00  0.00     0.043 A 
HETATM    8  C   UNL     1       6.224  26.068  55.039  1.00  0.00    -0.035 A 
HETATM    9  C   UNL     1       5.533  27.392  55.201  1.00  0.00     0.050 C 
HETATM   10  C   UNL     1       6.524  25.371  56.227  1.00  0.00     0.010 A 
HETATM   11  C   UNL     1       7.080  24.091  56.206  1.00  0.00     0.016 A 
HETATM   12  C   UNL     1       7.350  23.464  54.991  1.00  0.00     0.019 A 
HETATM   13  C   UNL     1       7.079  24.167  53.807  1.00  0.00     0.046 A 
BRANCH  12  14
HETATM   14  C   UNL     1       7.907  22.117  54.913  1.00  0.00     0.179 A 
HETATM   15  O   UNL     1       7.905  21.511  53.683  1.00  0.00    -0.302 OA
HETATM   16  C   UNL     1       8.476  20.295  53.909  1.00  0.00     0.163 A 
HETATM   17  C   UNL     1       8.794  20.218  55.240  1.00  0.00     0.144 A 
HETATM   18  N   UNL     1       8.433  21.379  55.875  1.00  0.00    -0.234 NA
ENDBRANCH  12  14
ENDBRANCH   1   7
BRANCH   3  19
HETATM   19  C   UNL     1       4.669  26.381  49.324  1.00  0.00     0.164 C 
BRANCH  19  20
HETATM   20  C   UNL     1       3.700  27.591  49.204  1.00  0.00     0.261 C 
BRANCH  20  21
HETATM   21  N   UNL     1       2.736  27.553  48.014  1.00  0.00    -0.067 N 
HETATM   22  H   UNL     1       3.041  28.336  47.426  1.00  0.00     0.280 HD
HETATM   23  C   UNL     1       2.821  26.355  47.114  1.00  0.00     0.270 C 
HETATM   24  C   UNL     1       1.313  27.854  48.392  1.00  0.00     0.270 C 
ENDBRANCH  20  21
BRANCH  20  25
HETATM   25  C   UNL     1       4.415  28.903  49.339  1.00  0.00     0.085 A 
HETATM   26  O   UNL     1       4.952  29.201  50.560  1.00  0.00    -0.325 OA
HETATM   27  C   UNL     1       5.539  30.421  50.452  1.00  0.00     0.142 A 
HETATM   28  C   UNL     1       5.388  30.914  49.179  1.00  0.00     0.027 A 
HETATM   29  C   UNL     1       4.662  29.936  48.457  1.00  0.00     0.037 A 
ENDBRANCH  20  25
ENDBRANCH  19  20
ENDBRANCH   3  19
TORSDOF 6
ENDMDL
MODEL 9
REMARK VINA RESULT:      -7.7      3.880      8.083
REMARK  6 active torsions:
REMARK  status: ('A' for Active; 'I' for Inactive)
REMARK    1  A    between atoms: C_3  and  N_4 
REMARK       I    between atoms: N_4  and  C_5 
REMARK       I    between atoms: C_5  and  N_6 
REMARK    2  A    between atoms: N_6  and  C_7 
REMARK    3  A    between atoms: C_7  and  C_8 
REMARK    4  A    between atoms: C_8  and  N_9 
REMARK    5  A    between atoms: C_8  and  C_13 
REMARK    6  A    between atoms: C_20  and  C_21 
ROOT
HETATM    1  N   UNL     1       7.237  27.112  54.178  1.00  0.00    -0.309 N 
HETATM    2  C   UNL     1       6.114  27.434  53.458  1.00  0.00     0.320 C 
HETATM    3  N   UNL     1       6.335  28.526  52.648  1.00  0.00    -0.340 N 
HETATM    4  O   UNL     1       5.029  26.871  53.465  1.00  0.00    -0.247 OA
HETATM    5  H   UNL     1       7.819  27.912  54.385  1.00  0.00     0.170 HD
HETATM    6  H   UNL     1       7.271  28.911  52.585  1.00  0.00     0.164 HD
ENDROOT
BRANCH   1   7
HETATM    7  C   UNL     1       7.413  26.019  55.062  1.00  0.00     0.043 A 
HETATM    8  C   UNL     1       7.396  26.070  56.465  1.00  0.00    -0.035 A 
HETATM    9  C   UNL     1       7.099  27.295  57.282  1.00  0.00     0.050 C 
HETATM   10  C   UNL     1       7.645  24.884  57.187  1.00  0.00     0.010 A 
HETATM   11  C   UNL     1       7.843  23.662  56.543  1.00  0.00     0.016 A 
HETATM   12  C   UNL     1       7.792  23.586  55.152  1.00  0.00     0.019 A 
HETATM   13  C   UNL     1       7.573  24.770  54.430  1.00  0.00     0.046 A 
BRANCH  12  14
HETATM   14  C   UNL     1       7.965  22.329  54.431  1.00  0.00     0.179 A 
HETATM   15  O   UNL     1       8.419  21.254  55.151  1.00  0.00    -0.302 OA
HETATM   16  C   UNL     1       8.478  20.243  54.241  1.00  0.00     0.163 A 
HETATM   17  C   UNL     1       8.064  20.738  53.031  1.00  0.00     0.144 A 
HETATM   18  N   UNL     1       7.737  22.065  53.156  1.00  0.00    -0.234 NA
ENDBRANCH  12  14
ENDBRANCH   1   7
BRANCH   3  19
HETATM   19  C   UNL     1       5.255  29.199  51.942  1.00  0.00     0.164 C 
BRANCH  19  20
HETATM   20  C   UNL     1       5.496  29.535  50.443  1.00  0.00     0.261 C 
BRANCH  20  21
HETATM   21  N   UNL     1       4.920  30.869  49.961  1.00  0.00    -0.067 N 
HETATM   22  H   UNL     1       4.314  30.606  49.176  1.00  0.00     0.280 HD
HETATM   23  C   UNL     1       4.008  31.593  50.909  1.00  0.00     0.270 C 
HETATM   24  C   UNL     1       5.958  31.792  49.387  1.00  0.00     0.270 C 
ENDBRANCH  20  21
BRANCH  20  25
HETATM   25  C   UNL     1       5.147  28.384  49.545  1.00  0.00     0.085 A 
HETATM   26  O   UNL     1       4.653  27.256  50.135  1.00  0.00    -0.325 OA
HETATM   27  C   UNL     1       4.415  26.357  49.144  1.00  0.00     0.142 A 
HETATM   28  C   UNL     1       4.750  26.891  47.923  1.00  0.00     0.027 A 
HETATM   29  C   UNL     1       5.223  28.201  48.178  1.00  0.00     0.037 A 
ENDBRANCH  20  25
ENDBRANCH  19  20
ENDBRANCH   3  19
TORSDOF 6
ENDMDL
MODEL 10
REMARK VINA RESULT:      -7.4      4.644      6.764
REMARK  6 active torsions:
REMARK  status: ('A' for Active; 'I' for Inactive)
REMARK    1  A    between atoms: C_3  and  N_4 
REMARK       I    between atoms: N_4  and  C_5 
REMARK       I    between atoms: C_5  and  N_6 
REMARK    2  A    between atoms: N_6  and  C_7 
REMARK    3  A    between atoms: C_7  and  C_8 
REMARK    4  A    between atoms: C_8  and  N_9 
REMARK    5  A    between atoms: C_8  and  C_13 
REMARK    6  A    between atoms: C_20  and  C_21 
ROOT
HETATM    1  N   UNL     1       6.824  26.247  52.190  1.00  0.00    -0.309 N 
HETATM    2  C   UNL     1       5.730  25.829  51.475  1.00  0.00     0.320 C 
HETATM    3  N   UNL     1       5.743  26.341  50.197  1.00  0.00    -0.340 N 
HETATM    4  O   UNL     1       4.830  25.088  51.842  1.00  0.00    -0.247 OA
HETATM    5  H   UNL     1       7.160  27.158  51.905  1.00  0.00     0.170 HD
HETATM    6  H   UNL     1       6.551  26.868  49.885  1.00  0.00     0.164 HD
ENDROOT
BRANCH   1   7
HETATM    7  C   UNL     1       7.188  25.878  53.509  1.00  0.00     0.043 A 
HETATM    8  C   UNL     1       7.613  24.609  53.933  1.00  0.00    -0.035 A 
HETATM    9  C   UNL     1       7.841  23.429  53.032  1.00  0.00     0.050 C 
HETATM   10  C   UNL     1       7.882  24.410  55.303  1.00  0.00     0.010 A 
HETATM   11  C   UNL     1       7.797  25.454  56.226  1.00  0.00     0.016 A 
HETATM   12  C   UNL     1       7.444  26.735  55.805  1.00  0.00     0.019 A 
HETATM   13  C   UNL     1       7.147  26.929  54.447  1.00  0.00     0.046 A 
BRANCH  12  14
HETATM   14  C   UNL     1       7.366  27.866  56.724  1.00  0.00     0.179 A 
HETATM   15  O   UNL     1       8.364  27.981  57.658  1.00  0.00    -0.302 OA
HETATM   16  C   UNL     1       8.039  29.104  58.357  1.00  0.00     0.163 A 
HETATM   17  C   UNL     1       6.882  29.612  57.826  1.00  0.00     0.144 A 
HETATM   18  N   UNL     1       6.457  28.824  56.787  1.00  0.00    -0.234 NA
ENDBRANCH  12  14
ENDBRANCH   1   7
BRANCH   3  19
HETATM   19  C   UNL     1       4.599  26.225  49.303  1.00  0.00     0.164 C 
BRANCH  19  20
HETATM   20  C   UNL     1       3.519  27.340  49.394  1.00  0.00     0.261 C 
BRANCH  20  21
HETATM   21  N   UNL     1       2.187  27.030  48.705  1.00  0.00    -0.067 N 
HETATM   22  H   UNL     1       1.705  26.412  49.367  1.00  0.00     0.280 HD
HETATM   23  C   UNL     1       1.242  28.181  48.514  1.00  0.00     0.270 C 
HETATM   24  C   UNL     1       2.343  26.234  47.440  1.00  0.00     0.270 C 
ENDBRANCH  20  21
BRANCH  20  25
HETATM   25  C   UNL     1       4.069  28.688  49.033  1.00  0.00     0.085 A 
HETATM   26  O   UNL     1       4.022  29.661  49.990  1.00  0.00    -0.325 OA
HETATM   27  C   UNL     1       4.563  30.783  49.449  1.00  0.00     0.142 A 
HETATM   28  C   UNL     1       4.958  30.547  48.154  1.00  0.00     0.027 A 
HETATM   29  C   UNL     1       4.641  29.194  47.881  1.00  0.00     0.037 A 
ENDBRANCH  20  25
ENDBRANCH  19  20
ENDBRANCH   3  19
TORSDOF 6
ENDMDL
