MODEL 1
REMARK VINA RESULT:      -8.4      0.000      0.000
REMARK  10 active torsions:
REMARK  status: ('A' for Active; 'I' for Inactive)
REMARK    1  A    between atoms: C_2  and  C_3 
REMARK    2  A    between atoms: C_3  and  C_4 
REMARK    3  A    between atoms: C_4  and  N_5 
REMARK    4  A    between atoms: N_5  and  C_7 
REMARK    5  A    between atoms: C_7  and  C_8 
REMARK    6  A    between atoms: C_8  and  C_9 
REMARK    7  A    between atoms: C_9  and  N_10 
REMARK       I    between atoms: N_10  and  C_11 
REMARK    8  A    between atoms: C_11  and  C_12 
REMARK    9  A    between atoms: C_12  and  O_13 
REMARK   10  A    between atoms: N_14  and  C_15 
ROOT
HETATM    1  C   UNL     1       6.179  26.609  54.267  1.00  0.00     0.256 C 
HETATM    2  N   UNL     1       6.888  25.409  53.784  1.00  0.00    -0.254 N 
HETATM    3  C   UNL     1       7.289  25.381  52.451  1.00  0.00     0.330 C 
HETATM    4  O   UNL     1       8.262  24.760  52.017  1.00  0.00    -0.246 OA
HETATM    5  N   UNL     1       6.592  26.147  51.566  1.00  0.00    -0.308 N 
HETATM    6  C   UNL     1       5.516  26.959  51.886  1.00  0.00     0.048 A 
HETATM    7  C   UNL     1       5.240  27.197  53.228  1.00  0.00     0.034 A 
HETATM    8  C   UNL     1       4.749  27.533  50.870  1.00  0.00     0.030 A 
HETATM    9  C   UNL     1       3.674  28.354  51.198  1.00  0.00     0.002 A 
HETATM   10  C   UNL     1       3.377  28.606  52.535  1.00  0.00     0.001 A 
HETATM   11  C   UNL     1       4.158  28.037  53.544  1.00  0.00     0.015 A 
HETATM   12  H   UNL     1       6.829  25.991  50.593  1.00  0.00     0.170 HD
ENDROOT
BRANCH   1  13
HETATM   13  C   UNL     1       7.233  27.724  54.694  1.00  0.00     0.279 C 
HETATM   14  N   UNL     1       7.162  28.187  56.004  1.00  0.00    -0.356 N 
HETATM   15  H   UNL     1       6.236  28.101  56.420  1.00  0.00     0.162 HD
HETATM   16  O   UNL     1       8.084  28.142  53.907  1.00  0.00    -0.268 OA
BRANCH  14  17
HETATM   17  C   UNL     1       7.990  29.294  56.431  1.00  0.00     0.124 C 
BRANCH  17  18
HETATM   18  C   UNL     1       8.232  29.271  57.937  1.00  0.00     0.047 C 
BRANCH  18  19
HETATM   19  C   UNL     1       9.250  30.330  58.351  1.00  0.00     0.236 C 
BRANCH  19  20
HETATM   20  N   UNL     1       8.762  31.205  59.495  1.00  0.00    -0.075 N 
HETATM   21  H   UNL     1       9.298  32.079  59.410  1.00  0.00     0.279 HD
HETATM   22  C   UNL     1       7.323  31.628  59.332  1.00  0.00     0.269 C 
BRANCH  20  23
HETATM   23  C   UNL     1       9.028  30.689  60.895  1.00  0.00     0.234 C 
BRANCH  23  24
HETATM   24  C   UNL     1       9.086  31.798  61.943  1.00  0.00     0.027 C 
BRANCH  24  25
HETATM   25  C   UNL     1       8.032  31.658  63.043  1.00  0.00    -0.003 C 
HETATM   26  C   UNL     1       7.841  32.965  63.799  1.00  0.00     0.005 C 
ENDBRANCH  24  25
ENDBRANCH  23  24
ENDBRANCH  20  23
ENDBRANCH  19  20
ENDBRANCH  18  19
ENDBRANCH  17  18
ENDBRANCH  14  17
ENDBRANCH   1  13
BRANCH   1  27
HETATM   27  O   UNL     1       5.367  26.261  55.389  1.00  0.00    -0.359 OA
HETATM   28  H   UNL     1       4.588  25.806  55.024  1.00  0.00     0.213 HD
ENDBRANCH   1  27
BRANCH   2  29
HETATM   29  C   UNL     1       7.389  24.409  54.704  1.00  0.00     0.042 A 
HETATM   30  C   UNL     1       8.116  24.732  55.861  1.00  0.00     0.030 A 
HETATM   31  C   UNL     1       8.583  23.738  56.729  1.00  0.00     0.002 A 
HETATM   32  C   UNL     1       8.325  22.397  56.466  1.00  0.00     0.000 A 
HETATM   33  C   UNL     1       7.597  22.052  55.336  1.00  0.00     0.002 A 
HETATM   34  C   UNL     1       7.136  23.045  54.467  1.00  0.00     0.030 A 
ENDBRANCH   2  29
TORSDOF 10
ENDMDL
MODEL 2
REMARK VINA RESULT:      -8.3      2.270      4.851
REMARK  10 active torsions:
REMARK  status: ('A' for Active; 'I' for Inactive)
REMARK    1  A    between atoms: C_2  and  C_3 
REMARK    2  A    between atoms: C_3  and  C_4 
REMARK    3  A    between atoms: C_4  and  N_5 
REMARK    4  A    between atoms: N_5  and  C_7 
REMARK    5  A    between atoms: C_7  and  C_8 
REMARK    6  A    between atoms: C_8  and  C_9 
REMARK    7  A    between atoms: C_9  and  N_10 
REMARK       I    between atoms: N_10  and  C_11 
REMARK    8  A    between atoms: C_11  and  C_12 
REMARK    9  A    between atoms: C_12  and  O_13 
REMARK   10  A    between atoms: N_14  and  C_15 
ROOT
HETATM    1  C   UNL     1       6.884  27.902  54.421  1.00  0.00     0.256 C 
HETATM    2  N   UNL     1       5.576  28.187  55.040  1.00  0.00    -0.254 N 
HETATM    3  C   UNL     1       4.962  27.168  55.763  1.00  0.00     0.330 C 
HETATM    4  O   UNL     1       4.189  27.338  56.709  1.00  0.00    -0.246 OA
HETATM    5  N   UNL     1       5.284  25.883  55.443  1.00  0.00    -0.308 N 
HETATM    6  C   UNL     1       6.181  25.507  54.456  1.00  0.00     0.048 A 
HETATM    7  C   UNL     1       6.985  26.485  53.882  1.00  0.00     0.034 A 
HETATM    8  C   UNL     1       6.275  24.167  54.075  1.00  0.00     0.030 A 
HETATM    9  C   UNL     1       7.184  23.794  53.088  1.00  0.00     0.002 A 
HETATM   10  C   UNL     1       8.000  24.755  52.498  1.00  0.00     0.001 A 
HETATM   11  C   UNL     1       7.907  26.091  52.896  1.00  0.00     0.015 A 
HETATM   12  H   UNL     1       4.714  25.179  55.896  1.00  0.00     0.170 HD
ENDROOT
BRANCH   1  13
HETATM   13  C   UNL     1       8.047  28.129  55.485  1.00  0.00     0.279 C 
HETATM   14  N   UNL     1       8.753  29.325  55.399  1.00  0.00    -0.356 N 
HETATM   15  H   UNL     1       8.760  29.731  54.465  1.00  0.00     0.162 HD
HETATM   16  O   UNL     1       8.296  27.294  56.356  1.00  0.00    -0.268 OA
BRANCH  14  17
HETATM   17  C   UNL     1       9.911  29.549  56.237  1.00  0.00     0.124 C 
BRANCH  17  18
HETATM   18  C   UNL     1       9.514  29.831  57.684  1.00  0.00     0.047 C 
BRANCH  18  19
HETATM   19  C   UNL     1      10.078  31.166  58.162  1.00  0.00     0.236 C 
BRANCH  19  20
HETATM   20  N   UNL     1       9.152  31.889  59.127  1.00  0.00    -0.075 N 
HETATM   21  H   UNL     1       9.143  32.866  58.807  1.00  0.00     0.279 HD
HETATM   22  C   UNL     1       7.717  31.439  59.005  1.00  0.00     0.269 C 
BRANCH  20  23
HETATM   23  C   UNL     1       9.593  31.929  60.577  1.00  0.00     0.234 C 
BRANCH  23  24
HETATM   24  C   UNL     1       9.282  30.640  61.335  1.00  0.00     0.027 C 
BRANCH  24  25
HETATM   25  C   UNL     1       8.498  30.864  62.629  1.00  0.00    -0.003 C 
HETATM   26  C   UNL     1       8.201  32.339  62.852  1.00  0.00     0.005 C 
ENDBRANCH  24  25
ENDBRANCH  23  24
ENDBRANCH  20  23
ENDBRANCH  19  20
ENDBRANCH  18  19
ENDBRANCH  17  18
ENDBRANCH  14  17
ENDBRANCH   1  13
BRANCH   1  27
HETATM   27  O   UNL     1       7.080  28.769  53.303  1.00  0.00    -0.359 OA
HETATM   28  H   UNL     1       6.913  29.670  53.631  1.00  0.00     0.213 HD
ENDBRANCH   1  27
BRANCH   2  29
HETATM   29  C   UNL     1       5.064  29.538  55.128  1.00  0.00     0.042 A 
HETATM   30  C   UNL     1       4.072  30.036  54.269  1.00  0.00     0.030 A 
HETATM   31  C   UNL     1       3.599  31.349  54.384  1.00  0.00     0.002 A 
HETATM   32  C   UNL     1       4.100  32.192  55.369  1.00  0.00     0.000 A 
HETATM   33  C   UNL     1       5.073  31.721  56.241  1.00  0.00     0.002 A 
HETATM   34  C   UNL     1       5.547  30.411  56.121  1.00  0.00     0.030 A 
ENDBRANCH   2  29
TORSDOF 10
ENDMDL
MODEL 3
REMARK VINA RESULT:      -8.0      1.680      2.455
REMARK  10 active torsions:
REMARK  status: ('A' for Active; 'I' for Inactive)
REMARK    1  A    between atoms: C_2  and  C_3 
REMARK    2  A    between atoms: C_3  and  C_4 
REMARK    3  A    between atoms: C_4  and  N_5 
REMARK    4  A    between atoms: N_5  and  C_7 
REMARK    5  A    between atoms: C_7  and  C_8 
REMARK    6  A    between atoms: C_8  and  C_9 
REMARK    7  A    between atoms: C_9  and  N_10 
REMARK       I    between atoms: N_10  and  C_11 
REMARK    8  A    between atoms: C_11  and  C_12 
REMARK    9  A    between atoms: C_12  and  O_13 
REMARK   10  A    between atoms: N_14  and  C_15 
ROOT
HETATM    1  C   UNL     1       6.191  27.813  55.979  1.00  0.00     0.256 C 
HETATM    2  N   UNL     1       6.786  26.752  55.146  1.00  0.00    -0.254 N 
HETATM    3  C   UNL     1       7.072  27.050  53.817  1.00  0.00     0.330 C 
HETATM    4  O   UNL     1       7.967  26.526  53.150  1.00  0.00    -0.246 OA
HETATM    5  N   UNL     1       6.348  28.040  53.222  1.00  0.00    -0.308 N 
HETATM    6  C   UNL     1       5.351  28.780  53.837  1.00  0.00     0.048 A 
HETATM    7  C   UNL     1       5.203  28.679  55.215  1.00  0.00     0.034 A 
HETATM    8  C   UNL     1       4.537  29.619  53.074  1.00  0.00     0.030 A 
HETATM    9  C   UNL     1       3.542  30.367  53.699  1.00  0.00     0.002 A 
HETATM   10  C   UNL     1       3.373  30.282  55.078  1.00  0.00     0.001 A 
HETATM   11  C   UNL     1       4.202  29.448  55.833  1.00  0.00     0.015 A 
HETATM   12  H   UNL     1       6.493  28.128  52.223  1.00  0.00     0.170 HD
ENDROOT
BRANCH   1  13
HETATM   13  C   UNL     1       7.339  28.746  56.569  1.00  0.00     0.279 C 
HETATM   14  N   UNL     1       7.365  28.915  57.950  1.00  0.00    -0.356 N 
HETATM   15  H   UNL     1       6.457  28.793  58.395  1.00  0.00     0.162 HD
HETATM   16  O   UNL     1       8.177  29.277  55.838  1.00  0.00    -0.268 OA
BRANCH  14  17
HETATM   17  C   UNL     1       8.288  29.853  58.551  1.00  0.00     0.124 C 
BRANCH  17  18
HETATM   18  C   UNL     1       7.598  31.162  58.926  1.00  0.00     0.047 C 
BRANCH  18  19
HETATM   19  C   UNL     1       8.162  31.733  60.225  1.00  0.00     0.236 C 
BRANCH  19  20
HETATM   20  N   UNL     1       7.730  30.948  61.453  1.00  0.00    -0.075 N 
HETATM   21  H   UNL     1       7.274  30.104  61.084  1.00  0.00     0.279 HD
HETATM   22  C   UNL     1       8.899  30.425  62.251  1.00  0.00     0.269 C 
BRANCH  20  23
HETATM   23  C   UNL     1       6.708  31.615  62.351  1.00  0.00     0.234 C 
BRANCH  23  24
HETATM   24  C   UNL     1       6.672  33.134  62.195  1.00  0.00     0.027 C 
BRANCH  24  25
HETATM   25  C   UNL     1       6.511  33.884  63.518  1.00  0.00    -0.003 C 
HETATM   26  C   UNL     1       7.531  33.420  64.548  1.00  0.00     0.005 C 
ENDBRANCH  24  25
ENDBRANCH  23  24
ENDBRANCH  20  23
ENDBRANCH  19  20
ENDBRANCH  18  19
ENDBRANCH  17  18
ENDBRANCH  14  17
ENDBRANCH   1  13
BRANCH   1  27
HETATM   27  O   UNL     1       5.456  27.220  57.051  1.00  0.00    -0.359 OA
HETATM   28  H   UNL     1       4.653  26.846  56.650  1.00  0.00     0.213 HD
ENDBRANCH   1  27
BRANCH   2  29
HETATM   29  C   UNL     1       7.304  25.534  55.735  1.00  0.00     0.042 A 
HETATM   30  C   UNL     1       6.881  24.256  55.340  1.00  0.00     0.030 A 
HETATM   31  C   UNL     1       7.404  23.099  55.931  1.00  0.00     0.002 A 
HETATM   32  C   UNL     1       8.371  23.195  56.925  1.00  0.00     0.000 A 
HETATM   33  C   UNL     1       8.816  24.447  57.325  1.00  0.00     0.002 A 
HETATM   34  C   UNL     1       8.289  25.601  56.738  1.00  0.00     0.030 A 
ENDBRANCH   2  29
TORSDOF 10
ENDMDL
MODEL 4
REMARK VINA RESULT:      -7.9      1.585      1.966
REMARK  10 active torsions:
REMARK  status: ('A' for Active; 'I' for Inactive)
REMARK    1  A    between atoms: C_2  and  C_3 
REMARK    2  A    between atoms: C_3  and  C_4 
REMARK    3  A    between atoms: C_4  and  N_5 
REMARK    4  A    between atoms: N_5  and  C_7 
REMARK    5  A    between atoms: C_7  and  C_8 
REMARK    6  A    between atoms: C_8  and  C_9 
REMARK    7  A    between atoms: C_9  and  N_10 
REMARK       I    between atoms: N_10  and  C_11 
REMARK    8  A    between atoms: C_11  and  C_12 
REMARK    9  A    between atoms: C_12  and  O_13 
REMARK   10  A    between atoms: N_14  and  C_15 
ROOT
HETATM    1  C   UNL     1       6.557  26.395  55.743  1.00  0.00     0.256 C 
HETATM    2  N   UNL     1       7.155  25.769  54.549  1.00  0.00    -0.254 N 
HETATM    3  C   UNL     1       7.448  26.587  53.462  1.00  0.00     0.330 C 
HETATM    4  O   UNL     1       8.346  26.382  52.642  1.00  0.00    -0.246 OA
HETATM    5  N   UNL     1       6.729  27.737  53.324  1.00  0.00    -0.308 N 
HETATM    6  C   UNL     1       5.730  28.161  54.186  1.00  0.00     0.048 A 
HETATM    7  C   UNL     1       5.574  27.501  55.399  1.00  0.00     0.034 A 
HETATM    8  C   UNL     1       4.920  29.243  53.833  1.00  0.00     0.030 A 
HETATM    9  C   UNL     1       3.923  29.670  54.706  1.00  0.00     0.002 A 
HETATM   10  C   UNL     1       3.747  29.024  55.927  1.00  0.00     0.001 A 
HETATM   11  C   UNL     1       4.571  27.951  56.275  1.00  0.00     0.015 A 
HETATM   12  H   UNL     1       6.879  28.228  52.451  1.00  0.00     0.170 HD
ENDROOT
BRANCH   1  13
HETATM   13  C   UNL     1       7.703  26.998  56.669  1.00  0.00     0.279 C 
HETATM   14  N   UNL     1       8.104  28.304  56.403  1.00  0.00    -0.356 N 
HETATM   15  H   UNL     1       7.954  28.590  55.438  1.00  0.00     0.162 HD
HETATM   16  O   UNL     1       8.197  26.346  57.591  1.00  0.00    -0.268 OA
BRANCH  14  17
HETATM   17  C   UNL     1       9.231  28.876  57.107  1.00  0.00     0.124 C 
BRANCH  17  18
HETATM   18  C   UNL     1       8.788  29.663  58.337  1.00  0.00     0.047 C 
BRANCH  18  19
HETATM   19  C   UNL     1       9.675  30.885  58.562  1.00  0.00     0.236 C 
BRANCH  19  20
HETATM   20  N   UNL     1       9.025  31.933  59.451  1.00  0.00    -0.075 N 
HETATM   21  H   UNL     1       9.235  32.833  58.999  1.00  0.00     0.279 HD
HETATM   22  C   UNL     1       7.518  31.850  59.442  1.00  0.00     0.269 C 
BRANCH  20  23
HETATM   23  C   UNL     1       9.560  32.041  60.864  1.00  0.00     0.234 C 
BRANCH  23  24
HETATM   24  C   UNL     1       8.611  31.463  61.912  1.00  0.00     0.027 C 
BRANCH  24  25
HETATM   25  C   UNL     1       8.323  32.417  63.072  1.00  0.00    -0.003 C 
HETATM   26  C   UNL     1       6.839  32.738  63.174  1.00  0.00     0.005 C 
ENDBRANCH  24  25
ENDBRANCH  23  24
ENDBRANCH  20  23
ENDBRANCH  19  20
ENDBRANCH  18  19
ENDBRANCH  17  18
ENDBRANCH  14  17
ENDBRANCH   1  13
BRANCH   1  27
HETATM   27  O   UNL     1       5.817  25.415  56.472  1.00  0.00    -0.359 OA
HETATM   28  H   UNL     1       5.112  25.902  56.935  1.00  0.00     0.213 HD
ENDBRANCH   1  27
BRANCH   2  29
HETATM   29  C   UNL     1       7.668  24.415  54.586  1.00  0.00     0.042 A 
HETATM   30  C   UNL     1       8.625  23.986  55.519  1.00  0.00     0.030 A 
HETATM   31  C   UNL     1       9.098  22.668  55.526  1.00  0.00     0.002 A 
HETATM   32  C   UNL     1       8.615  21.745  54.606  1.00  0.00     0.000 A 
HETATM   33  C   UNL     1       7.659  22.139  53.680  1.00  0.00     0.002 A 
HETATM   34  C   UNL     1       7.193  23.457  53.671  1.00  0.00     0.030 A 
ENDBRANCH   2  29
TORSDOF 10
ENDMDL
MODEL 5
REMARK VINA RESULT:      -7.9      2.958      8.022
REMARK  10 active torsions:
REMARK  status: ('A' for Active; 'I' for Inactive)
REMARK    1  A    between atoms: C_2  and  C_3 
REMARK    2  A    between atoms: C_3  and  C_4 
REMARK    3  A    between atoms: C_4  and  N_5 
REMARK    4  A    between atoms: N_5  and  C_7 
REMARK    5  A    between atoms: C_7  and  C_8 
REMARK    6  A    between atoms: C_8  and  C_9 
REMARK    7  A    between atoms: C_9  and  N_10 
REMARK       I    between atoms: N_10  and  C_11 
REMARK    8  A    between atoms: C_11  and  C_12 
REMARK    9  A    between atoms: C_12  and  O_13 
REMARK   10  A    between atoms: N_14  and  C_15 
ROOT
HETATM    1  C   UNL     1       5.583  27.615  55.981  1.00  0.00     0.256 C 
HETATM    2  N   UNL     1       6.053  28.896  56.541  1.00  0.00    -0.254 N 
HETATM    3  C   UNL     1       7.423  29.065  56.720  1.00  0.00     0.330 C 
HETATM    4  O   UNL     1       8.013  30.148  56.686  1.00  0.00    -0.246 OA
HETATM    5  N   UNL     1       8.182  27.946  56.884  1.00  0.00    -0.308 N 
HETATM    6  C   UNL     1       7.700  26.646  56.881  1.00  0.00     0.048 A 
HETATM    7  C   UNL     1       6.390  26.425  56.472  1.00  0.00     0.034 A 
HETATM    8  C   UNL     1       8.533  25.594  57.266  1.00  0.00     0.030 A 
HETATM    9  C   UNL     1       8.045  24.290  57.254  1.00  0.00     0.002 A 
HETATM   10  C   UNL     1       6.737  24.043  56.849  1.00  0.00     0.001 A 
HETATM   11  C   UNL     1       5.916  25.102  56.453  1.00  0.00     0.015 A 
HETATM   12  H   UNL     1       9.145  28.121  57.146  1.00  0.00     0.170 HD
ENDROOT
BRANCH   1  13
HETATM   13  C   UNL     1       5.655  27.662  54.391  1.00  0.00     0.279 C 
HETATM   14  N   UNL     1       4.737  26.879  53.696  1.00  0.00    -0.356 N 
HETATM   15  H   UNL     1       4.410  26.069  54.220  1.00  0.00     0.162 HD
HETATM   16  O   UNL     1       6.471  28.374  53.803  1.00  0.00    -0.268 OA
BRANCH  14  17
HETATM   17  C   UNL     1       4.824  26.760  52.258  1.00  0.00     0.124 C 
BRANCH  17  18
HETATM   18  C   UNL     1       5.001  25.308  51.821  1.00  0.00     0.047 C 
BRANCH  18  19
HETATM   19  C   UNL     1       5.659  24.476  52.919  1.00  0.00     0.236 C 
BRANCH  19  20
HETATM   20  N   UNL     1       7.128  24.194  52.649  1.00  0.00    -0.075 N 
HETATM   21  H   UNL     1       7.279  24.479  51.672  1.00  0.00     0.279 HD
HETATM   22  C   UNL     1       8.048  25.085  53.447  1.00  0.00     0.269 C 
BRANCH  20  23
HETATM   23  C   UNL     1       7.561  22.745  52.732  1.00  0.00     0.234 C 
BRANCH  23  24
HETATM   24  C   UNL     1       8.236  22.394  54.057  1.00  0.00     0.027 C 
BRANCH  24  25
HETATM   25  C   UNL     1       8.212  20.900  54.381  1.00  0.00    -0.003 C 
HETATM   26  C   UNL     1       7.751  20.648  55.809  1.00  0.00     0.005 C 
ENDBRANCH  24  25
ENDBRANCH  23  24
ENDBRANCH  20  23
ENDBRANCH  19  20
ENDBRANCH  18  19
ENDBRANCH  17  18
ENDBRANCH  14  17
ENDBRANCH   1  13
BRANCH   1  27
HETATM   27  O   UNL     1       4.236  27.382  56.394  1.00  0.00    -0.359 OA
HETATM   28  H   UNL     1       3.997  26.505  56.046  1.00  0.00     0.213 HD
ENDBRANCH   1  27
BRANCH   2  29
HETATM   29  C   UNL     1       5.168  30.036  56.657  1.00  0.00     0.042 A 
HETATM   30  C   UNL     1       4.781  30.817  55.557  1.00  0.00     0.030 A 
HETATM   31  C   UNL     1       3.922  31.913  55.707  1.00  0.00     0.002 A 
HETATM   32  C   UNL     1       3.422  32.247  56.960  1.00  0.00     0.000 A 
HETATM   33  C   UNL     1       3.778  31.483  58.063  1.00  0.00     0.002 A 
HETATM   34  C   UNL     1       4.640  30.393  57.912  1.00  0.00     0.030 A 
ENDBRANCH   2  29
TORSDOF 10
ENDMDL
MODEL 6
REMARK VINA RESULT:      -7.9      2.357      8.093
REMARK  10 active torsions:
REMARK  status: ('A' for Active; 'I' for Inactive)
REMARK    1  A    between atoms: C_2  and  C_3 
REMARK    2  A    between atoms: C_3  and  C_4 
REMARK    3  A    between atoms: C_4  and  N_5 
REMARK    4  A    between atoms: N_5  and  C_7 
REMARK    5  A    between atoms: C_7  and  C_8 
REMARK    6  A    between atoms: C_8  and  C_9 
REMARK    7  A    between atoms: C_9  and  N_10 
REMARK       I    between atoms: N_10  and  C_11 
REMARK    8  A    between atoms: C_11  and  C_12 
REMARK    9  A    between atoms: C_12  and  O_13 
REMARK   10  A    between atoms: N_14  and  C_15 
ROOT
HETATM    1  C   UNL     1       6.007  28.521  56.995  1.00  0.00     0.256 C 
HETATM    2  N   UNL     1       6.934  29.501  57.594  1.00  0.00    -0.254 N 
HETATM    3  C   UNL     1       8.299  29.304  57.408  1.00  0.00     0.330 C 
HETATM    4  O   UNL     1       9.146  30.200  57.380  1.00  0.00    -0.246 OA
HETATM    5  N   UNL     1       8.729  28.031  57.178  1.00  0.00    -0.308 N 
HETATM    6  C   UNL     1       7.913  26.913  57.109  1.00  0.00     0.048 A 
HETATM    7  C   UNL     1       6.536  27.098  57.051  1.00  0.00     0.034 A 
HETATM    8  C   UNL     1       8.481  25.638  57.079  1.00  0.00     0.030 A 
HETATM    9  C   UNL     1       7.656  24.519  57.001  1.00  0.00     0.002 A 
HETATM   10  C   UNL     1       6.274  24.679  56.942  1.00  0.00     0.001 A 
HETATM   11  C   UNL     1       5.717  25.960  56.960  1.00  0.00     0.015 A 
HETATM   12  H   UNL     1       9.735  27.916  57.187  1.00  0.00     0.170 HD
ENDROOT
BRANCH   1  13
HETATM   13  C   UNL     1       5.725  28.904  55.475  1.00  0.00     0.279 C 
HETATM   14  N   UNL     1       4.411  29.214  55.138  1.00  0.00    -0.356 N 
HETATM   15  H   UNL     1       3.719  28.780  55.745  1.00  0.00     0.162 HD
HETATM   16  O   UNL     1       6.632  28.943  54.641  1.00  0.00    -0.268 OA
BRANCH  14  17
HETATM   17  C   UNL     1       4.048  29.438  53.756  1.00  0.00     0.124 C 
BRANCH  17  18
HETATM   18  C   UNL     1       3.828  28.124  53.010  1.00  0.00     0.047 C 
BRANCH  18  19
HETATM   19  C   UNL     1       4.639  28.078  51.718  1.00  0.00     0.236 C 
BRANCH  19  20
HETATM   20  N   UNL     1       4.574  26.726  51.026  1.00  0.00    -0.075 N 
HETATM   21  H   UNL     1       3.710  26.290  51.372  1.00  0.00     0.279 HD
HETATM   22  C   UNL     1       4.365  26.844  49.536  1.00  0.00     0.269 C 
BRANCH  20  23
HETATM   23  C   UNL     1       5.690  25.753  51.348  1.00  0.00     0.234 C 
BRANCH  23  24
HETATM   24  C   UNL     1       5.357  24.820  52.511  1.00  0.00     0.027 C 
BRANCH  24  25
HETATM   25  C   UNL     1       6.581  24.384  53.317  1.00  0.00    -0.003 C 
HETATM   26  C   UNL     1       7.620  25.492  53.394  1.00  0.00     0.005 C 
ENDBRANCH  24  25
ENDBRANCH  23  24
ENDBRANCH  20  23
ENDBRANCH  19  20
ENDBRANCH  18  19
ENDBRANCH  17  18
ENDBRANCH  14  17
ENDBRANCH   1  13
BRANCH   1  27
HETATM   27  O   UNL     1       4.780  28.520  57.725  1.00  0.00    -0.359 OA
HETATM   28  H   UNL     1       4.072  28.499  57.058  1.00  0.00     0.213 HD
ENDBRANCH   1  27
BRANCH   2  29
HETATM   29  C   UNL     1       6.456  30.760  58.127  1.00  0.00     0.042 A 
HETATM   30  C   UNL     1       5.626  31.629  57.403  1.00  0.00     0.030 A 
HETATM   31  C   UNL     1       5.182  32.839  57.952  1.00  0.00     0.002 A 
HETATM   32  C   UNL     1       5.551  33.202  59.242  1.00  0.00     0.000 A 
HETATM   33  C   UNL     1       6.361  32.354  59.985  1.00  0.00     0.002 A 
HETATM   34  C   UNL     1       6.808  31.149  59.433  1.00  0.00     0.030 A 
ENDBRANCH   2  29
TORSDOF 10
ENDMDL
MODEL 7
REMARK VINA RESULT:      -7.7      5.072      8.101
REMARK  10 active torsions:
REMARK  status: ('A' for Active; 'I' for Inactive)
REMARK    1  A    between atoms: C_2  and  C_3 
REMARK    2  A    between atoms: C_3  and  C_4 
REMARK    3  A    between atoms: C_4  and  N_5 
REMARK    4  A    between atoms: N_5  and  C_7 
REMARK    5  A    between atoms: C_7  and  C_8 
REMARK    6  A    between atoms: C_8  and  C_9 
REMARK    7  A    between atoms: C_9  and  N_10 
REMARK       I    between atoms: N_10  and  C_11 
REMARK    8  A    between atoms: C_11  and  C_12 
REMARK    9  A    between atoms: C_12  and  O_13 
REMARK   10  A    between atoms: N_14  and  C_15 
ROOT
HETATM    1  C   UNL     1       3.510  29.044  51.579  1.00  0.00     0.256 C 
HETATM    2  N   UNL     1       3.740  29.052  50.122  1.00  0.00    -0.254 N 
HETATM    3  C   UNL     1       4.684  29.941  49.616  1.00  0.00     0.330 C 
HETATM    4  O   UNL     1       5.346  29.765  48.590  1.00  0.00    -0.246 OA
HETATM    5  N   UNL     1       4.943  31.067  50.339  1.00  0.00    -0.308 N 
HETATM    6  C   UNL     1       4.345  31.396  51.545  1.00  0.00     0.048 A 
HETATM    7  C   UNL     1       3.584  30.431  52.195  1.00  0.00     0.034 A 
HETATM    8  C   UNL     1       4.530  32.669  52.089  1.00  0.00     0.030 A 
HETATM    9  C   UNL     1       3.933  32.991  53.306  1.00  0.00     0.002 A 
HETATM   10  C   UNL     1       3.167  32.041  53.975  1.00  0.00     0.001 A 
HETATM   11  C   UNL     1       2.998  30.767  53.427  1.00  0.00     0.015 A 
HETATM   12  H   UNL     1       5.528  31.747  49.869  1.00  0.00     0.170 HD
ENDROOT
BRANCH   1  13
HETATM   13  C   UNL     1       4.586  28.110  52.291  1.00  0.00     0.279 C 
HETATM   14  N   UNL     1       4.095  27.087  53.097  1.00  0.00    -0.356 N 
HETATM   15  H   UNL     1       3.172  27.277  53.484  1.00  0.00     0.162 HD
HETATM   16  O   UNL     1       5.795  28.272  52.120  1.00  0.00    -0.268 OA
BRANCH  14  17
HETATM   17  C   UNL     1       5.002  26.283  53.885  1.00  0.00     0.124 C 
BRANCH  17  18
HETATM   18  C   UNL     1       5.169  24.882  53.302  1.00  0.00     0.047 C 
BRANCH  18  19
HETATM   19  C   UNL     1       6.354  24.157  53.932  1.00  0.00     0.236 C 
BRANCH  19  20
HETATM   20  N   UNL     1       7.351  23.645  52.905  1.00  0.00    -0.075 N 
HETATM   21  H   UNL     1       6.796  23.070  52.258  1.00  0.00     0.279 HD
HETATM   22  C   UNL     1       7.913  24.747  52.040  1.00  0.00     0.269 C 
BRANCH  20  23
HETATM   23  C   UNL     1       8.450  22.742  53.427  1.00  0.00     0.234 C 
BRANCH  23  24
HETATM   24  C   UNL     1       8.030  21.277  53.522  1.00  0.00     0.027 C 
BRANCH  24  25
HETATM   25  C   UNL     1       7.760  20.809  54.953  1.00  0.00    -0.003 C 
HETATM   26  C   UNL     1       9.035  20.336  55.634  1.00  0.00     0.005 C 
ENDBRANCH  24  25
ENDBRANCH  23  24
ENDBRANCH  20  23
ENDBRANCH  19  20
ENDBRANCH  18  19
ENDBRANCH  17  18
ENDBRANCH  14  17
ENDBRANCH   1  13
BRANCH   1  27
HETATM   27  O   UNL     1       2.196  28.556  51.850  1.00  0.00    -0.359 OA
HETATM   28  H   UNL     1       2.274  27.587  51.892  1.00  0.00     0.213 HD
ENDBRANCH   1  27
BRANCH   2  29
HETATM   29  C   UNL     1       3.213  28.005  49.271  1.00  0.00     0.042 A 
HETATM   30  C   UNL     1       2.002  28.127  48.573  1.00  0.00     0.030 A 
HETATM   31  C   UNL     1       1.523  27.094  47.758  1.00  0.00     0.002 A 
HETATM   32  C   UNL     1       2.251  25.918  47.614  1.00  0.00     0.000 A 
HETATM   33  C   UNL     1       3.458  25.777  48.284  1.00  0.00     0.002 A 
HETATM   34  C   UNL     1       3.932  26.807  49.101  1.00  0.00     0.030 A 
ENDBRANCH   2  29
TORSDOF 10
ENDMDL
MODEL 8
REMARK VINA RESULT:      -7.7      2.425      7.089
REMARK  10 active torsions:
REMARK  status: ('A' for Active; 'I' for Inactive)
REMARK    1  A    between atoms: C_2  and  C_3 
REMARK    2  A    between atoms: C_3  and  C_4 
REMARK    3  A    between atoms: C_4  and  N_5 
REMARK    4  A    between atoms: N_5  and  C_7 
REMARK    5  A    between atoms: C_7  and  C_8 
REMARK    6  A    between atoms: C_8  and  C_9 
REMARK    7  A    between atoms: C_9  and  N_10 
REMARK       I    between atoms: N_10  and  C_11 
REMARK    8  A    between atoms: C_11  and  C_12 
REMARK    9  A    between atoms: C_12  and  O_13 
REMARK   10  A    between atoms: N_14  and  C_15 
ROOT
HETATM    1  C   UNL     1       6.790  28.161  54.778  1.00  0.00     0.256 C 
HETATM    2  N   UNL     1       6.942  29.301  55.702  1.00  0.00    -0.254 N 
HETATM    3  C   UNL     1       5.791  29.971  56.104  1.00  0.00     0.330 C 
HETATM    4  O   UNL     1       5.653  30.562  57.178  1.00  0.00    -0.246 OA
HETATM    5  N   UNL     1       4.708  29.921  55.278  1.00  0.00    -0.308 N 
HETATM    6  C   UNL     1       4.660  29.249  54.066  1.00  0.00     0.048 A 
HETATM    7  C   UNL     1       5.696  28.380  53.747  1.00  0.00     0.034 A 
HETATM    8  C   UNL     1       3.575  29.440  53.208  1.00  0.00     0.030 A 
HETATM    9  C   UNL     1       3.528  28.757  51.996  1.00  0.00     0.002 A 
HETATM   10  C   UNL     1       4.554  27.881  51.653  1.00  0.00     0.001 A 
HETATM   11  C   UNL     1       5.628  27.688  52.526  1.00  0.00     0.015 A 
HETATM   12  H   UNL     1       3.945  30.532  55.542  1.00  0.00     0.170 HD
ENDROOT
BRANCH   1  13
HETATM   13  C   UNL     1       6.461  26.838  55.601  1.00  0.00     0.279 C 
HETATM   14  N   UNL     1       7.544  26.137  56.124  1.00  0.00    -0.356 N 
HETATM   15  H   UNL     1       8.410  26.276  55.607  1.00  0.00     0.162 HD
HETATM   16  O   UNL     1       5.301  26.464  55.783  1.00  0.00    -0.268 OA
BRANCH  14  17
HETATM   17  C   UNL     1       7.340  24.856  56.764  1.00  0.00     0.124 C 
BRANCH  17  18
HETATM   18  C   UNL     1       8.635  24.052  56.843  1.00  0.00     0.047 C 
BRANCH  18  19
HETATM   19  C   UNL     1       8.355  22.553  56.881  1.00  0.00     0.236 C 
BRANCH  19  20
HETATM   20  N   UNL     1       8.777  21.838  55.607  1.00  0.00    -0.075 N 
HETATM   21  H   UNL     1       9.623  22.331  55.293  1.00  0.00     0.279 HD
HETATM   22  C   UNL     1       9.238  20.424  55.858  1.00  0.00     0.269 C 
BRANCH  20  23
HETATM   23  C   UNL     1       7.802  21.900  54.449  1.00  0.00     0.234 C 
BRANCH  23  24
HETATM   24  C   UNL     1       8.369  22.617  53.225  1.00  0.00     0.027 C 
BRANCH  24  25
HETATM   25  C   UNL     1       7.905  24.069  53.095  1.00  0.00    -0.003 C 
HETATM   26  C   UNL     1       6.388  24.165  53.024  1.00  0.00     0.005 C 
ENDBRANCH  24  25
ENDBRANCH  23  24
ENDBRANCH  20  23
ENDBRANCH  19  20
ENDBRANCH  18  19
ENDBRANCH  17  18
ENDBRANCH  14  17
ENDBRANCH   1  13
BRANCH   1  27
HETATM   27  O   UNL     1       8.001  27.981  54.043  1.00  0.00    -0.359 OA
HETATM   28  H   UNL     1       8.308  28.875  53.810  1.00  0.00     0.213 HD
ENDBRANCH   1  27
BRANCH   2  29
HETATM   29  C   UNL     1       8.196  29.558  56.380  1.00  0.00     0.042 A 
HETATM   30  C   UNL     1       9.439  29.511  55.730  1.00  0.00     0.030 A 
HETATM   31  C   UNL     1      10.632  29.767  56.418  1.00  0.00     0.002 A 
HETATM   32  C   UNL     1      10.607  30.086  57.771  1.00  0.00     0.000 A 
HETATM   33  C   UNL     1       9.390  30.151  58.435  1.00  0.00     0.002 A 
HETATM   34  C   UNL     1       8.201  29.890  57.748  1.00  0.00     0.030 A 
ENDBRANCH   2  29
TORSDOF 10
ENDMDL
MODEL 9
REMARK VINA RESULT:      -7.7      3.682      6.732
REMARK  10 active torsions:
REMARK  status: ('A' for Active; 'I' for Inactive)
REMARK    1  A    between atoms: C_2  and  C_3 
REMARK    2  A    between atoms: C_3  and  C_4 
REMARK    3  A    between atoms: C_4  and  N_5 
REMARK    4  A    between atoms: N_5  and  C_7 
REMARK    5  A    between atoms: C_7  and  C_8 
REMARK    6  A    between atoms: C_8  and  C_9 
REMARK    7  A    between atoms: C_9  and  N_10 
REMARK       I    between atoms: N_10  and  C_11 
REMARK    8  A    between atoms: C_11  and  C_12 
REMARK    9  A    between atoms: C_12  and  O_13 
REMARK   10  A    between atoms: N_14  and  C_15 
ROOT
HETATM    1  C   UNL     1       4.549  28.165  52.786  1.00  0.00     0.256 C 
HETATM    2  N   UNL     1       4.277  28.864  51.515  1.00  0.00    -0.254 N 
HETATM    3  C   UNL     1       4.586  30.219  51.438  1.00  0.00     0.330 C 
HETATM    4  O   UNL     1       4.897  30.816  50.405  1.00  0.00    -0.246 OA
HETATM    5  N   UNL     1       4.608  30.930  52.600  1.00  0.00    -0.308 N 
HETATM    6  C   UNL     1       4.351  30.410  53.859  1.00  0.00     0.048 A 
HETATM    7  C   UNL     1       4.275  29.030  54.005  1.00  0.00     0.034 A 
HETATM    8  C   UNL     1       4.195  31.270  54.948  1.00  0.00     0.030 A 
HETATM    9  C   UNL     1       3.945  30.742  56.212  1.00  0.00     0.002 A 
HETATM   10  C   UNL     1       3.864  29.363  56.383  1.00  0.00     0.001 A 
HETATM   11  C   UNL     1       4.034  28.511  55.288  1.00  0.00     0.015 A 
HETATM   12  H   UNL     1       4.701  31.932  52.482  1.00  0.00     0.170 HD
ENDROOT
BRANCH   1  13
HETATM   13  C   UNL     1       6.068  27.690  52.826  1.00  0.00     0.279 C 
HETATM   14  N   UNL     1       6.308  26.334  52.624  1.00  0.00    -0.356 N 
HETATM   15  H   UNL     1       5.525  25.736  52.882  1.00  0.00     0.162 HD
HETATM   16  O   UNL     1       6.989  28.488  53.008  1.00  0.00    -0.268 OA
BRANCH  14  17
HETATM   17  C   UNL     1       7.643  25.800  52.781  1.00  0.00     0.124 C 
BRANCH  17  18
HETATM   18  C   UNL     1       7.625  24.291  53.006  1.00  0.00     0.047 C 
BRANCH  18  19
HETATM   19  C   UNL     1       6.618  23.904  54.085  1.00  0.00     0.236 C 
BRANCH  19  20
HETATM   20  N   UNL     1       7.278  23.489  55.391  1.00  0.00    -0.075 N 
HETATM   21  H   UNL     1       6.873  22.570  55.614  1.00  0.00     0.279 HD
HETATM   22  C   UNL     1       8.755  23.222  55.237  1.00  0.00     0.269 C 
BRANCH  20  23
HETATM   23  C   UNL     1       7.002  24.370  56.592  1.00  0.00     0.234 C 
BRANCH  23  24
HETATM   24  C   UNL     1       6.219  25.634  56.243  1.00  0.00     0.027 C 
BRANCH  24  25
HETATM   25  C   UNL     1       7.039  26.919  56.373  1.00  0.00    -0.003 C 
HETATM   26  C   UNL     1       8.309  26.689  57.179  1.00  0.00     0.005 C 
ENDBRANCH  24  25
ENDBRANCH  23  24
ENDBRANCH  20  23
ENDBRANCH  19  20
ENDBRANCH  18  19
ENDBRANCH  17  18
ENDBRANCH  14  17
ENDBRANCH   1  13
BRANCH   1  27
HETATM   27  O   UNL     1       3.688  27.032  52.898  1.00  0.00    -0.359 OA
HETATM   28  H   UNL     1       2.874  27.265  52.417  1.00  0.00     0.213 HD
ENDBRANCH   1  27
BRANCH   2  29
HETATM   29  C   UNL     1       3.951  28.132  50.309  1.00  0.00     0.042 A 
HETATM   30  C   UNL     1       2.693  28.200  49.691  1.00  0.00     0.030 A 
HETATM   31  C   UNL     1       2.414  27.479  48.523  1.00  0.00     0.002 A 
HETATM   32  C   UNL     1       3.392  26.681  47.940  1.00  0.00     0.000 A 
HETATM   33  C   UNL     1       4.649  26.606  48.525  1.00  0.00     0.002 A 
HETATM   34  C   UNL     1       4.924  27.323  49.693  1.00  0.00     0.030 A 
ENDBRANCH   2  29
TORSDOF 10
ENDMDL
MODEL 10
REMARK VINA RESULT:      -7.6      4.398      7.855
REMARK  10 active torsions:
REMARK  status: ('A' for Active; 'I' for Inactive)
REMARK    1  A    between atoms: C_2  and  C_3 
REMARK    2  A    between atoms: C_3  and  C_4 
REMARK    3  A    between atoms: C_4  and  N_5 
REMARK    4  A    between atoms: N_5  and  C_7 
REMARK    5  A    between atoms: C_7  and  C_8 
REMARK    6  A    between atoms: C_8  and  C_9 
REMARK    7  A    between atoms: C_9  and  N_10 
REMARK       I    between atoms: N_10  and  C_11 
REMARK    8  A    between atoms: C_11  and  C_12 
REMARK    9  A    between atoms: C_12  and  O_13 
REMARK   10  A    between atoms: N_14  and  C_15 
ROOT
HETATM    1  C   UNL     1       3.548  29.097  51.686  1.00  0.00     0.256 C 
HETATM    2  N   UNL     1       3.616  29.234  50.219  1.00  0.00    -0.254 N 
HETATM    3  C   UNL     1       4.453  30.215  49.694  1.00  0.00     0.330 C 
HETATM    4  O   UNL     1       5.006  30.159  48.593  1.00  0.00    -0.246 OA
HETATM    5  N   UNL     1       4.734  31.292  50.479  1.00  0.00    -0.308 N 
HETATM    6  C   UNL     1       4.257  31.489  51.765  1.00  0.00     0.048 A 
HETATM    7  C   UNL     1       3.621  30.433  52.407  1.00  0.00     0.034 A 
HETATM    8  C   UNL     1       4.439  32.723  52.393  1.00  0.00     0.030 A 
HETATM    9  C   UNL     1       3.964  32.912  53.689  1.00  0.00     0.002 A 
HETATM   10  C   UNL     1       3.324  31.869  54.352  1.00  0.00     0.001 A 
HETATM   11  C   UNL     1       3.159  30.635  53.718  1.00  0.00     0.015 A 
HETATM   12  H   UNL     1       5.230  32.040  50.010  1.00  0.00     0.170 HD
ENDROOT
BRANCH   1  13
HETATM   13  C   UNL     1       4.740  28.173  52.198  1.00  0.00     0.279 C 
HETATM   14  N   UNL     1       4.392  26.935  52.729  1.00  0.00    -0.356 N 
HETATM   15  H   UNL     1       3.452  26.906  53.119  1.00  0.00     0.162 HD
HETATM   16  O   UNL     1       5.917  28.530  52.109  1.00  0.00    -0.268 OA
BRANCH  14  17
HETATM   17  C   UNL     1       5.400  26.097  53.341  1.00  0.00     0.124 C 
BRANCH  17  18
HETATM   18  C   UNL     1       5.570  26.408  54.825  1.00  0.00     0.047 C 
BRANCH  18  19
HETATM   19  C   UNL     1       5.780  25.134  55.638  1.00  0.00     0.236 C 
BRANCH  19  20
HETATM   20  N   UNL     1       7.220  24.647  55.615  1.00  0.00    -0.075 N 
HETATM   21  H   UNL     1       7.665  25.164  54.845  1.00  0.00     0.279 HD
HETATM   22  C   UNL     1       7.995  25.060  56.842  1.00  0.00     0.269 C 
BRANCH  20  23
HETATM   23  C   UNL     1       7.428  23.178  55.304  1.00  0.00     0.234 C 
BRANCH  23  24
HETATM   24  C   UNL     1       7.583  22.896  53.811  1.00  0.00     0.027 C 
BRANCH  24  25
HETATM   25  C   UNL     1       8.646  21.844  53.492  1.00  0.00    -0.003 C 
HETATM   26  C   UNL     1       8.019  20.556  52.980  1.00  0.00     0.005 C 
ENDBRANCH  24  25
ENDBRANCH  23  24
ENDBRANCH  20  23
ENDBRANCH  19  20
ENDBRANCH  18  19
ENDBRANCH  17  18
ENDBRANCH  14  17
ENDBRANCH   1  13
BRANCH   1  27
HETATM   27  O   UNL     1       2.298  28.514  52.051  1.00  0.00    -0.359 OA
HETATM   28  H   UNL     1       2.514  27.684  52.512  1.00  0.00     0.213 HD
ENDBRANCH   1  27
BRANCH   2  29
HETATM   29  C   UNL     1       3.050  28.230  49.342  1.00  0.00     0.042 A 
HETATM   30  C   UNL     1       1.762  28.332  48.795  1.00  0.00     0.030 A 
HETATM   31  C   UNL     1       1.247  27.341  47.950  1.00  0.00     0.002 A 
HETATM   32  C   UNL     1       2.015  26.229  47.624  1.00  0.00     0.000 A 
HETATM   33  C   UNL     1       3.298  26.110  48.141  1.00  0.00     0.002 A 
HETATM   34  C   UNL     1       3.807  27.097  48.989  1.00  0.00     0.030 A 
ENDBRANCH   2  29
TORSDOF 10
ENDMDL
