MODEL 1
REMARK VINA RESULT:      -7.9      0.000      0.000
REMARK  5 active torsions:
REMARK  status: ('A' for Active; 'I' for Inactive)
REMARK    1  A    between atoms: C_5  and  N_6 
REMARK       I    between atoms: N_6  and  C_7 
REMARK       I    between atoms: C_7  and  N_8 
REMARK    2  A    between atoms: N_8  and  C_9 
REMARK    3  A    between atoms: C_16  and  O_17 
REMARK    4  A    between atoms: O_17  and  C_18 
REMARK    5  A    between atoms: C_18  and  C_19 
ROOT
HETATM    1  C   UNL     1       8.084  21.896  55.112  1.00  0.00     0.026 A 
HETATM    2  C   UNL     1       8.171  21.674  53.738  1.00  0.00     0.036 A 
HETATM    3 CL   UNL     1       8.713  20.144  53.163  1.00  0.00    -0.084 Cl
HETATM    4  C   UNL     1       7.840  22.680  52.826  1.00  0.00     0.056 A 
HETATM    5  C   UNL     1       7.408  23.923  53.290  1.00  0.00     0.071 A 
HETATM    6  C   UNL     1       7.304  24.133  54.678  1.00  0.00     0.096 A 
HETATM    7  C   UNL     1       7.654  23.134  55.588  1.00  0.00     0.041 A 
ENDROOT
BRANCH   5   8
HETATM    8  N   UNL     1       7.080  25.008  52.448  1.00  0.00    -0.306 N 
HETATM    9  C   UNL     1       5.854  25.290  51.875  1.00  0.00     0.325 C 
HETATM   10  N   UNL     1       5.958  26.361  51.002  1.00  0.00    -0.306 N 
HETATM   11  O   UNL     1       4.814  24.688  52.113  1.00  0.00    -0.247 OA
HETATM   12  H   UNL     1       6.876  26.679  50.736  1.00  0.00     0.171 HD
HETATM   13  H   UNL     1       7.791  25.725  52.386  1.00  0.00     0.171 HD
BRANCH  10  14
HETATM   14  C   UNL     1       4.885  26.936  50.349  1.00  0.00     0.072 A 
HETATM   15  C   UNL     1       4.268  26.637  49.115  1.00  0.00     0.169 A 
HETATM   16  N   UNL     1       3.231  27.443  48.856  1.00  0.00    -0.185 NA
HETATM   17  N   UNL     1       3.193  28.258  49.921  1.00  0.00    -0.287 N 
HETATM   18  H   UNL     1       2.476  28.974  49.949  1.00  0.00     0.188 HD
HETATM   19  C   UNL     1       4.161  27.992  50.848  1.00  0.00     0.140 A 
ENDBRANCH  10  14
ENDBRANCH   5   8
BRANCH   6  20
HETATM   20  O   UNL     1       6.889  25.369  55.112  1.00  0.00    -0.340 OA
BRANCH  20  21
HETATM   21  C   UNL     1       5.519  25.343  55.560  1.00  0.00     0.293 C 
BRANCH  21  22
HETATM   22  C   UNL     1       5.450  25.727  57.030  1.00  0.00     0.408 C 
HETATM   23  F   UNL     1       4.484  25.028  57.671  1.00  0.00    -0.169 F 
HETATM   24  F   UNL     1       6.623  25.469  57.649  1.00  0.00    -0.169 F 
HETATM   25  F   UNL     1       5.184  27.041  57.190  1.00  0.00    -0.169 F 
ENDBRANCH  21  22
ENDBRANCH  20  21
ENDBRANCH   6  20
TORSDOF 5
ENDMDL
MODEL 2
REMARK VINA RESULT:      -7.6      4.440      6.738
REMARK  5 active torsions:
REMARK  status: ('A' for Active; 'I' for Inactive)
REMARK    1  A    between atoms: C_5  and  N_6 
REMARK       I    between atoms: N_6  and  C_7 
REMARK       I    between atoms: C_7  and  N_8 
REMARK    2  A    between atoms: N_8  and  C_9 
REMARK    3  A    between atoms: C_16  and  O_17 
REMARK    4  A    between atoms: O_17  and  C_18 
REMARK    5  A    between atoms: C_18  and  C_19 
ROOT
HETATM    1  C   UNL     1       7.155  29.051  56.035  1.00  0.00     0.026 A 
HETATM    2  C   UNL     1       8.022  28.382  56.900  1.00  0.00     0.036 A 
HETATM    3 CL   UNL     1       9.158  29.288  57.823  1.00  0.00    -0.084 Cl
HETATM    4  C   UNL     1       7.988  26.990  57.014  1.00  0.00     0.056 A 
HETATM    5  C   UNL     1       7.074  26.253  56.261  1.00  0.00     0.071 A 
HETATM    6  C   UNL     1       6.190  26.937  55.405  1.00  0.00     0.096 A 
HETATM    7  C   UNL     1       6.237  28.327  55.278  1.00  0.00     0.041 A 
ENDROOT
BRANCH   5   8
HETATM    8  N   UNL     1       6.985  24.844  56.287  1.00  0.00    -0.306 N 
HETATM    9  C   UNL     1       7.735  23.938  55.560  1.00  0.00     0.325 C 
HETATM   10  N   UNL     1       7.264  22.650  55.753  1.00  0.00    -0.306 N 
HETATM   11  O   UNL     1       8.691  24.229  54.853  1.00  0.00    -0.247 OA
HETATM   12  H   UNL     1       6.373  22.524  56.207  1.00  0.00     0.171 HD
HETATM   13  H   UNL     1       6.408  24.471  57.029  1.00  0.00     0.171 HD
BRANCH  10  14
HETATM   14  C   UNL     1       7.865  21.519  55.234  1.00  0.00     0.072 A 
HETATM   15  C   UNL     1       7.905  20.996  53.923  1.00  0.00     0.169 A 
HETATM   16  N   UNL     1       8.620  19.867  53.847  1.00  0.00    -0.185 NA
HETATM   17  N   UNL     1       9.030  19.670  55.110  1.00  0.00    -0.287 N 
HETATM   18  H   UNL     1       9.599  18.853  55.305  1.00  0.00     0.188 HD
HETATM   19  C   UNL     1       8.608  20.635  55.979  1.00  0.00     0.140 A 
ENDBRANCH  10  14
ENDBRANCH   5   8
BRANCH   6  20
HETATM   20  O   UNL     1       5.305  26.190  54.664  1.00  0.00    -0.340 OA
BRANCH  20  21
HETATM   21  C   UNL     1       5.619  26.235  53.258  1.00  0.00     0.293 C 
BRANCH  21  22
HETATM   22  C   UNL     1       5.159  24.951  52.587  1.00  0.00     0.408 C 
HETATM   23  F   UNL     1       6.084  23.971  52.722  1.00  0.00    -0.169 F 
HETATM   24  F   UNL     1       4.008  24.506  53.137  1.00  0.00    -0.169 F 
HETATM   25  F   UNL     1       4.938  25.130  51.266  1.00  0.00    -0.169 F 
ENDBRANCH  21  22
ENDBRANCH  20  21
ENDBRANCH   6  20
TORSDOF 5
ENDMDL
MODEL 3
REMARK VINA RESULT:      -7.6      3.333      4.136
REMARK  5 active torsions:
REMARK  status: ('A' for Active; 'I' for Inactive)
REMARK    1  A    between atoms: C_5  and  N_6 
REMARK       I    between atoms: N_6  and  C_7 
REMARK       I    between atoms: C_7  and  N_8 
REMARK    2  A    between atoms: N_8  and  C_9 
REMARK    3  A    between atoms: C_16  and  O_17 
REMARK    4  A    between atoms: O_17  and  C_18 
REMARK    5  A    between atoms: C_18  and  C_19 
ROOT
HETATM    1  C   UNL     1       7.680  24.567  56.682  1.00  0.00     0.026 A 
HETATM    2  C   UNL     1       7.532  25.914  56.349  1.00  0.00     0.036 A 
HETATM    3 CL   UNL     1       7.629  27.104  57.589  1.00  0.00    -0.084 Cl
HETATM    4  C   UNL     1       7.291  26.304  55.029  1.00  0.00     0.056 A 
HETATM    5  C   UNL     1       7.203  25.339  54.025  1.00  0.00     0.071 A 
HETATM    6  C   UNL     1       7.374  23.985  54.365  1.00  0.00     0.096 A 
HETATM    7  C   UNL     1       7.596  23.594  55.687  1.00  0.00     0.041 A 
ENDROOT
BRANCH   5   8
HETATM    8  N   UNL     1       6.934  25.635  52.670  1.00  0.00    -0.306 N 
HETATM    9  C   UNL     1       5.736  26.049  52.119  1.00  0.00     0.325 C 
HETATM   10  N   UNL     1       5.829  26.105  50.738  1.00  0.00    -0.306 N 
HETATM   11  O   UNL     1       4.734  26.340  52.760  1.00  0.00    -0.247 OA
HETATM   12  H   UNL     1       6.626  25.684  50.290  1.00  0.00     0.171 HD
HETATM   13  H   UNL     1       7.754  25.684  52.078  1.00  0.00     0.171 HD
BRANCH  10  14
HETATM   14  C   UNL     1       4.825  26.573  49.912  1.00  0.00     0.072 A 
HETATM   15  C   UNL     1       3.953  25.906  49.024  1.00  0.00     0.169 A 
HETATM   16  N   UNL     1       3.105  26.745  48.417  1.00  0.00    -0.185 NA
HETATM   17  N   UNL     1       3.441  27.945  48.914  1.00  0.00    -0.287 N 
HETATM   18  H   UNL     1       2.927  28.757  48.590  1.00  0.00     0.188 HD
HETATM   19  C   UNL     1       4.464  27.896  49.818  1.00  0.00     0.140 A 
ENDBRANCH  10  14
ENDBRANCH   5   8
BRANCH   6  20
HETATM   20  O   UNL     1       7.272  23.051  53.362  1.00  0.00    -0.340 OA
BRANCH  20  21
HETATM   21  C   UNL     1       8.452  22.228  53.279  1.00  0.00     0.293 C 
BRANCH  21  22
HETATM   22  C   UNL     1       8.070  20.764  53.426  1.00  0.00     0.408 C 
HETATM   23  F   UNL     1       7.137  20.409  52.512  1.00  0.00    -0.169 F 
HETATM   24  F   UNL     1       9.146  19.967  53.244  1.00  0.00    -0.169 F 
HETATM   25  F   UNL     1       7.568  20.499  54.652  1.00  0.00    -0.169 F 
ENDBRANCH  21  22
ENDBRANCH  20  21
ENDBRANCH   6  20
TORSDOF 5
ENDMDL
MODEL 4
REMARK VINA RESULT:      -7.5      3.541      4.838
REMARK  5 active torsions:
REMARK  status: ('A' for Active; 'I' for Inactive)
REMARK    1  A    between atoms: C_5  and  N_6 
REMARK       I    between atoms: N_6  and  C_7 
REMARK       I    between atoms: C_7  and  N_8 
REMARK    2  A    between atoms: N_8  and  C_9 
REMARK    3  A    between atoms: C_16  and  O_17 
REMARK    4  A    between atoms: O_17  and  C_18 
REMARK    5  A    between atoms: C_18  and  C_19 
ROOT
HETATM    1  C   UNL     1       8.071  21.576  53.860  1.00  0.00     0.026 A 
HETATM    2  C   UNL     1       7.833  21.736  55.225  1.00  0.00     0.036 A 
HETATM    3 CL   UNL     1       7.726  20.343  56.231  1.00  0.00    -0.084 Cl
HETATM    4  C   UNL     1       7.664  23.007  55.780  1.00  0.00     0.056 A 
HETATM    5  C   UNL     1       7.742  24.137  54.965  1.00  0.00     0.071 A 
HETATM    6  C   UNL     1       8.002  23.969  53.592  1.00  0.00     0.096 A 
HETATM    7  C   UNL     1       8.151  22.697  53.035  1.00  0.00     0.041 A 
ENDROOT
BRANCH   5   8
HETATM    8  N   UNL     1       7.557  25.457  55.429  1.00  0.00    -0.306 N 
HETATM    9  C   UNL     1       6.361  26.101  55.690  1.00  0.00     0.325 C 
HETATM   10  N   UNL     1       6.582  27.433  55.998  1.00  0.00    -0.306 N 
HETATM   11  O   UNL     1       5.260  25.567  55.665  1.00  0.00    -0.247 OA
HETATM   12  H   UNL     1       7.493  27.825  55.823  1.00  0.00     0.171 HD
HETATM   13  H   UNL     1       8.403  25.918  55.738  1.00  0.00     0.171 HD
BRANCH  10  14
HETATM   14  C   UNL     1       5.591  28.311  56.394  1.00  0.00     0.072 A 
HETATM   15  C   UNL     1       4.437  28.784  55.733  1.00  0.00     0.169 A 
HETATM   16  N   UNL     1       3.726  29.627  56.491  1.00  0.00    -0.185 NA
HETATM   17  N   UNL     1       4.431  29.695  57.631  1.00  0.00    -0.287 N 
HETATM   18  H   UNL     1       4.082  30.292  58.374  1.00  0.00     0.188 HD
HETATM   19  C   UNL     1       5.556  28.920  57.626  1.00  0.00     0.140 A 
ENDBRANCH  10  14
ENDBRANCH   5   8
BRANCH   6  20
HETATM   20  O   UNL     1       8.063  25.095  52.806  1.00  0.00    -0.340 OA
BRANCH  20  21
HETATM   21  C   UNL     1       7.255  24.960  51.620  1.00  0.00     0.293 C 
BRANCH  21  22
HETATM   22  C   UNL     1       5.872  25.539  51.870  1.00  0.00     0.408 C 
HETATM   23  F   UNL     1       5.227  25.782  50.704  1.00  0.00    -0.169 F 
HETATM   24  F   UNL     1       5.114  24.680  52.586  1.00  0.00    -0.169 F 
HETATM   25  F   UNL     1       5.933  26.701  52.556  1.00  0.00    -0.169 F 
ENDBRANCH  21  22
ENDBRANCH  20  21
ENDBRANCH   6  20
TORSDOF 5
ENDMDL
MODEL 5
REMARK VINA RESULT:      -7.4      1.654      1.912
REMARK  5 active torsions:
REMARK  status: ('A' for Active; 'I' for Inactive)
REMARK    1  A    between atoms: C_5  and  N_6 
REMARK       I    between atoms: N_6  and  C_7 
REMARK       I    between atoms: C_7  and  N_8 
REMARK    2  A    between atoms: N_8  and  C_9 
REMARK    3  A    between atoms: C_16  and  O_17 
REMARK    4  A    between atoms: O_17  and  C_18 
REMARK    5  A    between atoms: C_18  and  C_19 
ROOT
HETATM    1  C   UNL     1       8.321  22.831  55.297  1.00  0.00     0.026 A 
HETATM    2  C   UNL     1       8.066  22.228  54.065  1.00  0.00     0.036 A 
HETATM    3 CL   UNL     1       8.304  20.532  53.891  1.00  0.00    -0.084 Cl
HETATM    4  C   UNL     1       7.637  22.985  52.971  1.00  0.00     0.056 A 
HETATM    5  C   UNL     1       7.452  24.361  53.108  1.00  0.00     0.071 A 
HETATM    6  C   UNL     1       7.692  24.959  54.359  1.00  0.00     0.096 A 
HETATM    7  C   UNL     1       8.139  24.205  55.447  1.00  0.00     0.041 A 
ENDROOT
BRANCH   5   8
HETATM    8  N   UNL     1       7.049  25.210  52.055  1.00  0.00    -0.306 N 
HETATM    9  C   UNL     1       5.766  25.421  51.584  1.00  0.00     0.325 C 
HETATM   10  N   UNL     1       5.788  26.218  50.451  1.00  0.00    -0.306 N 
HETATM   11  O   UNL     1       4.749  24.976  52.100  1.00  0.00    -0.247 OA
HETATM   12  H   UNL     1       6.671  26.391  49.998  1.00  0.00     0.171 HD
HETATM   13  H   UNL     1       7.770  25.834  51.717  1.00  0.00     0.171 HD
BRANCH  10  14
HETATM   14  C   UNL     1       4.656  26.679  49.807  1.00  0.00     0.072 A 
HETATM   15  C   UNL     1       3.843  26.099  48.808  1.00  0.00     0.169 A 
HETATM   16  N   UNL     1       2.819  26.889  48.464  1.00  0.00    -0.185 NA
HETATM   17  N   UNL     1       2.984  27.973  49.237  1.00  0.00    -0.287 N 
HETATM   18  H   UNL     1       2.315  28.730  49.149  1.00  0.00     0.188 HD
HETATM   19  C   UNL     1       4.069  27.895  50.064  1.00  0.00     0.140 A 
ENDBRANCH  10  14
ENDBRANCH   5   8
BRANCH   6  20
HETATM   20  O   UNL     1       7.514  26.317  54.469  1.00  0.00    -0.340 OA
BRANCH  20  21
HETATM   21  C   UNL     1       6.311  26.640  55.192  1.00  0.00     0.293 C 
BRANCH  21  22
HETATM   22  C   UNL     1       5.585  27.784  54.502  1.00  0.00     0.408 C 
HETATM   23  F   UNL     1       5.504  28.868  55.309  1.00  0.00    -0.169 F 
HETATM   24  F   UNL     1       6.236  28.157  53.378  1.00  0.00    -0.169 F 
HETATM   25  F   UNL     1       4.328  27.437  54.150  1.00  0.00    -0.169 F 
ENDBRANCH  21  22
ENDBRANCH  20  21
ENDBRANCH   6  20
TORSDOF 5
ENDMDL
MODEL 6
REMARK VINA RESULT:      -7.2     12.725     13.660
REMARK  5 active torsions:
REMARK  status: ('A' for Active; 'I' for Inactive)
REMARK    1  A    between atoms: C_5  and  N_6 
REMARK       I    between atoms: N_6  and  C_7 
REMARK       I    between atoms: C_7  and  N_8 
REMARK    2  A    between atoms: N_8  and  C_9 
REMARK    3  A    between atoms: C_16  and  O_17 
REMARK    4  A    between atoms: O_17  and  C_18 
REMARK    5  A    between atoms: C_18  and  C_19 
ROOT
HETATM    1  C   UNL     1       8.031  32.699  63.700  1.00  0.00     0.026 A 
HETATM    2  C   UNL     1       7.761  32.695  62.331  1.00  0.00     0.036 A 
HETATM    3 CL   UNL     1       8.824  31.859  61.265  1.00  0.00    -0.084 Cl
HETATM    4  C   UNL     1       6.652  33.371  61.816  1.00  0.00     0.056 A 
HETATM    5  C   UNL     1       5.795  34.055  62.678  1.00  0.00     0.071 A 
HETATM    6  C   UNL     1       6.062  34.039  64.059  1.00  0.00     0.096 A 
HETATM    7  C   UNL     1       7.182  33.379  64.571  1.00  0.00     0.041 A 
ENDROOT
BRANCH   5   8
HETATM    8  N   UNL     1       4.667  34.789  62.248  1.00  0.00    -0.306 N 
HETATM    9  C   UNL     1       3.492  34.294  61.713  1.00  0.00     0.325 C 
HETATM   10  N   UNL     1       2.678  35.330  61.286  1.00  0.00    -0.306 N 
HETATM   11  O   UNL     1       3.203  33.107  61.636  1.00  0.00    -0.247 OA
HETATM   12  H   UNL     1       3.066  36.258  61.226  1.00  0.00     0.171 HD
HETATM   13  H   UNL     1       4.679  35.768  62.503  1.00  0.00     0.171 HD
BRANCH  10  14
HETATM   14  C   UNL     1       1.399  35.157  60.791  1.00  0.00     0.072 A 
HETATM   15  C   UNL     1       0.858  35.351  59.501  1.00  0.00     0.169 A 
HETATM   16  N   UNL     1      -0.445  35.048  59.446  1.00  0.00    -0.185 NA
HETATM   17  N   UNL     1      -0.733  34.669  60.700  1.00  0.00    -0.287 N 
HETATM   18  H   UNL     1      -1.686  34.391  60.908  1.00  0.00     0.188 HD
HETATM   19  C   UNL     1       0.340  34.711  61.545  1.00  0.00     0.140 A 
ENDBRANCH  10  14
ENDBRANCH   5   8
BRANCH   6  20
HETATM   20  O   UNL     1       5.211  34.729  64.888  1.00  0.00    -0.340 OA
BRANCH  20  21
HETATM   21  C   UNL     1       4.590  33.861  65.856  1.00  0.00     0.293 C 
BRANCH  21  22
HETATM   22  C   UNL     1       4.902  34.351  67.262  1.00  0.00     0.408 C 
HETATM   23  F   UNL     1       4.539  35.646  67.418  1.00  0.00    -0.169 F 
HETATM   24  F   UNL     1       4.233  33.623  68.183  1.00  0.00    -0.169 F 
HETATM   25  F   UNL     1       6.219  34.255  67.543  1.00  0.00    -0.169 F 
ENDBRANCH  21  22
ENDBRANCH  20  21
ENDBRANCH   6  20
TORSDOF 5
ENDMDL
MODEL 7
REMARK VINA RESULT:      -6.9      4.320      6.013
REMARK  5 active torsions:
REMARK  status: ('A' for Active; 'I' for Inactive)
REMARK    1  A    between atoms: C_5  and  N_6 
REMARK       I    between atoms: N_6  and  C_7 
REMARK       I    between atoms: C_7  and  N_8 
REMARK    2  A    between atoms: N_8  and  C_9 
REMARK    3  A    between atoms: C_16  and  O_17 
REMARK    4  A    between atoms: O_17  and  C_18 
REMARK    5  A    between atoms: C_18  and  C_19 
ROOT
HETATM    1  C   UNL     1       7.529  22.112  54.943  1.00  0.00     0.026 A 
HETATM    2  C   UNL     1       8.115  22.361  56.184  1.00  0.00     0.036 A 
HETATM    3 CL   UNL     1       8.455  21.041  57.236  1.00  0.00    -0.084 Cl
HETATM    4  C   UNL     1       8.414  23.665  56.588  1.00  0.00     0.056 A 
HETATM    5  C   UNL     1       8.131  24.736  55.741  1.00  0.00     0.071 A 
HETATM    6  C   UNL     1       7.559  24.476  54.482  1.00  0.00     0.096 A 
HETATM    7  C   UNL     1       7.243  23.174  54.087  1.00  0.00     0.041 A 
ENDROOT
BRANCH   5   8
HETATM    8  N   UNL     1       8.370  26.088  56.073  1.00  0.00    -0.306 N 
HETATM    9  C   UNL     1       7.655  26.880  56.952  1.00  0.00     0.325 C 
HETATM   10  N   UNL     1       8.108  28.188  56.909  1.00  0.00    -0.306 N 
HETATM   11  O   UNL     1       6.754  26.481  57.679  1.00  0.00    -0.247 OA
HETATM   12  H   UNL     1       8.727  28.461  56.162  1.00  0.00     0.171 HD
HETATM   13  H   UNL     1       9.249  26.457  55.734  1.00  0.00     0.171 HD
BRANCH  10  14
HETATM   14  C   UNL     1       7.654  29.193  57.740  1.00  0.00     0.072 A 
HETATM   15  C   UNL     1       8.239  29.821  58.861  1.00  0.00     0.169 A 
HETATM   16  N   UNL     1       7.454  30.773  59.379  1.00  0.00    -0.185 NA
HETATM   17  N   UNL     1       6.368  30.747  58.592  1.00  0.00    -0.287 N 
HETATM   18  H   UNL     1       5.613  31.394  58.797  1.00  0.00     0.188 HD
HETATM   19  C   UNL     1       6.439  29.820  57.591  1.00  0.00     0.140 A 
ENDBRANCH  10  14
ENDBRANCH   5   8
BRANCH   6  20
HETATM   20  O   UNL     1       7.278  25.547  53.668  1.00  0.00    -0.340 OA
BRANCH  20  21
HETATM   21  C   UNL     1       5.859  25.760  53.538  1.00  0.00     0.293 C 
BRANCH  21  22
HETATM   22  C   UNL     1       5.433  25.528  52.097  1.00  0.00     0.408 C 
HETATM   23  F   UNL     1       4.638  24.437  51.993  1.00  0.00    -0.169 F 
HETATM   24  F   UNL     1       4.739  26.587  51.625  1.00  0.00    -0.169 F 
HETATM   25  F   UNL     1       6.496  25.343  51.286  1.00  0.00    -0.169 F 
ENDBRANCH  21  22
ENDBRANCH  20  21
ENDBRANCH   6  20
TORSDOF 5
ENDMDL
MODEL 8
REMARK VINA RESULT:      -6.8     12.216     13.347
REMARK  5 active torsions:
REMARK  status: ('A' for Active; 'I' for Inactive)
REMARK    1  A    between atoms: C_5  and  N_6 
REMARK       I    between atoms: N_6  and  C_7 
REMARK       I    between atoms: C_7  and  N_8 
REMARK    2  A    between atoms: N_8  and  C_9 
REMARK    3  A    between atoms: C_16  and  O_17 
REMARK    4  A    between atoms: O_17  and  C_18 
REMARK    5  A    between atoms: C_18  and  C_19 
ROOT
HETATM    1  C   UNL     1       8.071  32.560  63.664  1.00  0.00     0.026 A 
HETATM    2  C   UNL     1       7.596  32.282  62.382  1.00  0.00     0.036 A 
HETATM    3 CL   UNL     1       8.361  31.055  61.447  1.00  0.00    -0.084 Cl
HETATM    4  C   UNL     1       6.522  32.995  61.844  1.00  0.00     0.056 A 
HETATM    5  C   UNL     1       5.906  33.996  62.598  1.00  0.00     0.071 A 
HETATM    6  C   UNL     1       6.377  34.257  63.897  1.00  0.00     0.096 A 
HETATM    7  C   UNL     1       7.464  33.556  64.427  1.00  0.00     0.041 A 
ENDROOT
BRANCH   5   8
HETATM    8  N   UNL     1       4.835  34.788  62.129  1.00  0.00    -0.306 N 
HETATM    9  C   UNL     1       3.738  34.375  61.395  1.00  0.00     0.325 C 
HETATM   10  N   UNL     1       2.975  35.464  61.006  1.00  0.00    -0.306 N 
HETATM   11  O   UNL     1       3.469  33.210  61.133  1.00  0.00    -0.247 OA
HETATM   12  H   UNL     1       3.361  36.388  61.113  1.00  0.00     0.171 HD
HETATM   13  H   UNL     1       4.808  35.727  62.505  1.00  0.00     0.171 HD
BRANCH  10  14
HETATM   14  C   UNL     1       1.768  35.365  60.340  1.00  0.00     0.072 A 
HETATM   15  C   UNL     1       0.500  34.908  60.759  1.00  0.00     0.169 A 
HETATM   16  N   UNL     1      -0.418  34.995  59.789  1.00  0.00    -0.185 NA
HETATM   17  N   UNL     1       0.267  35.502  58.753  1.00  0.00    -0.287 N 
HETATM   18  H   UNL     1      -0.230  35.657  57.882  1.00  0.00     0.188 HD
HETATM   19  C   UNL     1       1.581  35.746  59.033  1.00  0.00     0.140 A 
ENDBRANCH  10  14
ENDBRANCH   5   8
BRANCH   6  20
HETATM   20  O   UNL     1       5.764  35.254  64.617  1.00  0.00    -0.340 OA
BRANCH  20  21
HETATM   21  C   UNL     1       4.930  34.719  65.664  1.00  0.00     0.293 C 
BRANCH  21  22
HETATM   22  C   UNL     1       3.482  35.111  65.420  1.00  0.00     0.408 C 
HETATM   23  F   UNL     1       3.400  36.268  64.721  1.00  0.00    -0.169 F 
HETATM   24  F   UNL     1       2.838  34.157  64.712  1.00  0.00    -0.169 F 
HETATM   25  F   UNL     1       2.809  35.283  66.579  1.00  0.00    -0.169 F 
ENDBRANCH  21  22
ENDBRANCH  20  21
ENDBRANCH   6  20
TORSDOF 5
ENDMDL
MODEL 9
REMARK VINA RESULT:      -6.7      3.538      4.600
REMARK  5 active torsions:
REMARK  status: ('A' for Active; 'I' for Inactive)
REMARK    1  A    between atoms: C_5  and  N_6 
REMARK       I    between atoms: N_6  and  C_7 
REMARK       I    between atoms: C_7  and  N_8 
REMARK    2  A    between atoms: N_8  and  C_9 
REMARK    3  A    between atoms: C_16  and  O_17 
REMARK    4  A    between atoms: O_17  and  C_18 
REMARK    5  A    between atoms: C_18  and  C_19 
ROOT
HETATM    1  C   UNL     1       7.366  27.772  57.487  1.00  0.00     0.026 A 
HETATM    2  C   UNL     1       6.903  29.007  57.030  1.00  0.00     0.036 A 
HETATM    3 CL   UNL     1       6.648  30.281  58.160  1.00  0.00    -0.084 Cl
HETATM    4  C   UNL     1       6.631  29.215  55.676  1.00  0.00     0.056 A 
HETATM    5  C   UNL     1       6.830  28.181  54.761  1.00  0.00     0.071 A 
HETATM    6  C   UNL     1       7.315  26.945  55.225  1.00  0.00     0.096 A 
HETATM    7  C   UNL     1       7.569  26.731  56.582  1.00  0.00     0.041 A 
ENDROOT
BRANCH   5   8
HETATM    8  N   UNL     1       6.556  28.287  53.379  1.00  0.00    -0.306 N 
HETATM    9  C   UNL     1       5.433  27.843  52.705  1.00  0.00     0.325 C 
HETATM   10  N   UNL     1       5.590  28.006  51.338  1.00  0.00    -0.306 N 
HETATM   11  O   UNL     1       4.433  27.381  53.239  1.00  0.00    -0.247 OA
HETATM   12  H   UNL     1       6.505  28.227  50.980  1.00  0.00     0.171 HD
HETATM   13  H   UNL     1       7.192  28.885  52.868  1.00  0.00     0.171 HD
BRANCH  10  14
HETATM   14  C   UNL     1       4.604  27.740  50.409  1.00  0.00     0.072 A 
HETATM   15  C   UNL     1       3.532  28.524  49.927  1.00  0.00     0.169 A 
HETATM   16  N   UNL     1       2.807  27.882  49.004  1.00  0.00    -0.185 NA
HETATM   17  N   UNL     1       3.412  26.689  48.902  1.00  0.00    -0.287 N 
HETATM   18  H   UNL     1       3.029  26.012  48.250  1.00  0.00     0.188 HD
HETATM   19  C   UNL     1       4.498  26.555  49.720  1.00  0.00     0.140 A 
ENDBRANCH  10  14
ENDBRANCH   5   8
BRANCH   6  20
HETATM   20  O   UNL     1       7.492  25.936  54.308  1.00  0.00    -0.340 OA
BRANCH  20  21
HETATM   21  C   UNL     1       6.575  24.848  54.530  1.00  0.00     0.293 C 
BRANCH  21  22
HETATM   22  C   UNL     1       7.336  23.532  54.573  1.00  0.00     0.408 C 
HETATM   23  F   UNL     1       6.936  22.772  55.619  1.00  0.00    -0.169 F 
HETATM   24  F   UNL     1       7.127  22.820  53.444  1.00  0.00    -0.169 F 
HETATM   25  F   UNL     1       8.667  23.729  54.692  1.00  0.00    -0.169 F 
ENDBRANCH  21  22
ENDBRANCH  20  21
ENDBRANCH   6  20
TORSDOF 5
ENDMDL
MODEL 10
REMARK VINA RESULT:      -6.6      3.903      6.473
REMARK  5 active torsions:
REMARK  status: ('A' for Active; 'I' for Inactive)
REMARK    1  A    between atoms: C_5  and  N_6 
REMARK       I    between atoms: N_6  and  C_7 
REMARK       I    between atoms: C_7  and  N_8 
REMARK    2  A    between atoms: N_8  and  C_9 
REMARK    3  A    between atoms: C_16  and  O_17 
REMARK    4  A    between atoms: O_17  and  C_18 
REMARK    5  A    between atoms: C_18  and  C_19 
ROOT
HETATM    1  C   UNL     1       3.867  30.002  53.774  1.00  0.00     0.026 A 
HETATM    2  C   UNL     1       3.577  28.915  52.949  1.00  0.00     0.036 A 
HETATM    3 CL   UNL     1       2.613  29.157  51.543  1.00  0.00    -0.084 Cl
HETATM    4  C   UNL     1       4.044  27.635  53.258  1.00  0.00     0.056 A 
HETATM    5  C   UNL     1       4.818  27.436  54.402  1.00  0.00     0.071 A 
HETATM    6  C   UNL     1       5.123  28.541  55.218  1.00  0.00     0.096 A 
HETATM    7  C   UNL     1       4.640  29.816  54.919  1.00  0.00     0.041 A 
ENDROOT
BRANCH   5   8
HETATM    8  N   UNL     1       5.310  26.177  54.811  1.00  0.00    -0.306 N 
HETATM    9  C   UNL     1       6.412  25.502  54.320  1.00  0.00     0.325 C 
HETATM   10  N   UNL     1       6.495  24.236  54.876  1.00  0.00    -0.306 N 
HETATM   11  O   UNL     1       7.213  25.960  53.515  1.00  0.00    -0.247 OA
HETATM   12  H   UNL     1       5.704  23.880  55.389  1.00  0.00     0.171 HD
HETATM   13  H   UNL     1       4.886  25.812  55.654  1.00  0.00     0.171 HD
BRANCH  10  14
HETATM   14  C   UNL     1       7.538  23.358  54.652  1.00  0.00     0.072 A 
HETATM   15  C   UNL     1       7.784  22.438  53.609  1.00  0.00     0.169 A 
HETATM   16  N   UNL     1       8.939  21.782  53.771  1.00  0.00    -0.185 NA
HETATM   17  N   UNL     1       9.425  22.279  54.918  1.00  0.00    -0.287 N 
HETATM   18  H   UNL     1      10.312  21.921  55.256  1.00  0.00     0.188 HD
HETATM   19  C   UNL     1       8.625  23.231  55.484  1.00  0.00     0.140 A 
ENDBRANCH  10  14
ENDBRANCH   5   8
BRANCH   6  20
HETATM   20  O   UNL     1       5.877  28.319  56.346  1.00  0.00    -0.340 OA
BRANCH  20  21
HETATM   21  C   UNL     1       6.968  29.256  56.449  1.00  0.00     0.293 C 
BRANCH  21  22
HETATM   22  C   UNL     1       8.250  28.612  55.946  1.00  0.00     0.408 C 
HETATM   23  F   UNL     1       9.338  29.180  56.518  1.00  0.00    -0.169 F 
HETATM   24  F   UNL     1       8.272  27.294  56.239  1.00  0.00    -0.169 F 
HETATM   25  F   UNL     1       8.378  28.736  54.607  1.00  0.00    -0.169 F 
ENDBRANCH  21  22
ENDBRANCH  20  21
ENDBRANCH   6  20
TORSDOF 5
ENDMDL
