MODEL 1
REMARK VINA RESULT:     -10.1      0.000      0.000
REMARK  6 active torsions:
REMARK  status: ('A' for Active; 'I' for Inactive)
REMARK    1  A    between atoms: C_2  and  C_3 
REMARK    2  A    between atoms: N_6  and  C_8 
REMARK    3  A    between atoms: C_8  and  C_9 
REMARK    4  A    between atoms: C_12  and  C_13 
REMARK    5  A    between atoms: C_13  and  O_14 
REMARK    6  A    between atoms: N_24  and  C_25 
ROOT
HETATM    1  C   UNL     1       4.104  28.263  54.944  1.00  0.00     0.049 C 
HETATM    2  C   UNL     1       4.777  27.982  53.595  1.00  0.00     0.116 C 
HETATM    3  N   UNL     1       4.326  26.715  53.073  1.00  0.00    -0.324 N 
HETATM    4  C   UNL     1       5.268  25.719  53.248  1.00  0.00     0.326 C 
HETATM    5  O   UNL     1       5.018  24.566  52.956  1.00  0.00    -0.247 OA
HETATM    6  N   UNL     1       6.407  26.266  53.748  1.00  0.00    -0.263 N 
HETATM    7  C   UNL     1       6.250  27.621  53.872  1.00  0.00     0.256 C 
HETATM    8  O   UNL     1       7.117  28.433  54.162  1.00  0.00    -0.270 OA
HETATM    9  H   UNL     1       3.367  26.383  53.101  1.00  0.00     0.165 HD
ENDROOT
BRANCH   2  10
HETATM   10  C   UNL     1       4.651  29.165  52.589  1.00  0.00     0.026 C 
HETATM   11  C   UNL     1       3.224  29.417  52.075  1.00  0.00     0.035 C 
HETATM   12  C   UNL     1       2.758  28.438  51.004  1.00  0.00     0.235 C 
HETATM   13  N   UNL     1       3.738  28.388  49.858  1.00  0.00    -0.067 N 
HETATM   14  H   UNL     1       3.716  29.313  49.409  1.00  0.00     0.280 HD
HETATM   15  C   UNL     1       5.159  28.119  50.290  1.00  0.00     0.235 C 
HETATM   16  C   UNL     1       5.592  29.101  51.367  1.00  0.00     0.035 C 
BRANCH  13  17
HETATM   17  C   UNL     1       3.340  27.388  48.779  1.00  0.00     0.273 C 
BRANCH  17  18
HETATM   18  C   UNL     1       2.261  27.873  47.848  1.00  0.00    -0.033 A 
HETATM   19  C   UNL     1       2.229  29.203  47.407  1.00  0.00     0.010 A 
HETATM   20  C   UNL     1       1.190  29.646  46.582  1.00  0.00     0.018 A 
HETATM   21  C   UNL     1       0.168  28.772  46.187  1.00  0.00     0.039 A 
HETATM   22  C   UNL     1       0.205  27.441  46.617  1.00  0.00     0.018 A 
HETATM   23  C   UNL     1       1.243  26.995  47.438  1.00  0.00     0.010 A 
BRANCH  21  24
HETATM   24  C   UNL     1      -0.924  29.303  45.327  1.00  0.00     0.292 C 
HETATM   25  O   UNL     1      -0.725  30.040  44.376  1.00  0.00    -0.259 OA
BRANCH  24  26
HETATM   26  O   UNL     1      -2.130  28.874  45.770  1.00  0.00    -0.323 OA
HETATM   27  C   UNL     1      -2.989  29.919  46.234  1.00  0.00     0.213 C 
ENDBRANCH  24  26
ENDBRANCH  21  24
ENDBRANCH  17  18
ENDBRANCH  13  17
ENDBRANCH   2  10
BRANCH   6  28
HETATM   28  C   UNL     1       7.694  25.591  53.960  1.00  0.00     0.106 C 
HETATM   29  C   UNL     1       7.783  24.785  55.278  1.00  0.00     0.065 C 
HETATM   30  C   UNL     1       7.717  23.366  54.807  1.00  0.00    -0.050 A 
HETATM   31  C   UNL     1       7.864  23.276  53.421  1.00  0.00    -0.050 A 
HETATM   32  C   UNL     1       7.593  22.227  55.587  1.00  0.00     0.007 A 
HETATM   33  C   UNL     1       8.038  24.625  52.801  1.00  0.00     0.065 C 
HETATM   34  C   UNL     1       7.900  22.044  52.787  1.00  0.00     0.007 A 
HETATM   35  C   UNL     1       7.772  20.891  53.566  1.00  0.00     0.001 A 
HETATM   36  C   UNL     1       7.617  20.982  54.956  1.00  0.00     0.001 A 
ENDBRANCH   6  28
TORSDOF 6
ENDMDL
MODEL 2
REMARK VINA RESULT:      -9.3      5.421     10.320
REMARK  6 active torsions:
REMARK  status: ('A' for Active; 'I' for Inactive)
REMARK    1  A    between atoms: C_2  and  C_3 
REMARK    2  A    between atoms: N_6  and  C_8 
REMARK    3  A    between atoms: C_8  and  C_9 
REMARK    4  A    between atoms: C_12  and  C_13 
REMARK    5  A    between atoms: C_13  and  O_14 
REMARK    6  A    between atoms: N_24  and  C_25 
ROOT
HETATM    1  C   UNL     1       4.516  30.765  52.563  1.00  0.00     0.049 C 
HETATM    2  C   UNL     1       4.466  29.791  53.747  1.00  0.00     0.116 C 
HETATM    3  N   UNL     1       5.803  29.408  54.128  1.00  0.00    -0.324 N 
HETATM    4  C   UNL     1       6.128  28.144  53.674  1.00  0.00     0.326 C 
HETATM    5  O   UNL     1       7.250  27.698  53.819  1.00  0.00    -0.247 OA
HETATM    6  N   UNL     1       5.029  27.578  53.110  1.00  0.00    -0.263 N 
HETATM    7  C   UNL     1       3.965  28.433  53.216  1.00  0.00     0.256 C 
HETATM    8  O   UNL     1       2.800  28.189  52.935  1.00  0.00    -0.270 OA
HETATM    9  H   UNL     1       6.595  30.041  54.184  1.00  0.00     0.165 HD
ENDROOT
BRANCH   2  10
HETATM   10  C   UNL     1       3.592  30.308  54.929  1.00  0.00     0.026 C 
HETATM   11  C   UNL     1       3.750  31.806  55.234  1.00  0.00     0.035 C 
HETATM   12  C   UNL     1       5.020  32.162  55.998  1.00  0.00     0.235 C 
HETATM   13  N   UNL     1       5.134  31.345  57.261  1.00  0.00    -0.067 N 
HETATM   14  H   UNL     1       4.359  31.633  57.872  1.00  0.00     0.280 HD
HETATM   15  C   UNL     1       5.012  29.858  57.031  1.00  0.00     0.235 C 
HETATM   16  C   UNL     1       3.744  29.534  56.256  1.00  0.00     0.035 C 
BRANCH  13  17
HETATM   17  C   UNL     1       6.412  31.631  58.041  1.00  0.00     0.273 C 
BRANCH  17  18
HETATM   18  C   UNL     1       6.188  32.054  59.468  1.00  0.00    -0.033 A 
HETATM   19  C   UNL     1       7.262  32.188  60.360  1.00  0.00     0.010 A 
HETATM   20  C   UNL     1       7.030  32.535  61.695  1.00  0.00     0.018 A 
HETATM   21  C   UNL     1       5.726  32.751  62.161  1.00  0.00     0.039 A 
HETATM   22  C   UNL     1       4.654  32.630  61.270  1.00  0.00     0.018 A 
HETATM   23  C   UNL     1       4.883  32.287  59.935  1.00  0.00     0.010 A 
BRANCH  21  24
HETATM   24  C   UNL     1       5.535  33.096  63.596  1.00  0.00     0.292 C 
HETATM   25  O   UNL     1       4.657  32.607  64.288  1.00  0.00    -0.259 OA
BRANCH  24  26
HETATM   26  O   UNL     1       6.443  34.021  63.987  1.00  0.00    -0.323 OA
HETATM   27  C   UNL     1       7.142  33.683  65.188  1.00  0.00     0.213 C 
ENDBRANCH  24  26
ENDBRANCH  21  24
ENDBRANCH  17  18
ENDBRANCH  13  17
ENDBRANCH   2  10
BRANCH   6  28
HETATM   28  C   UNL     1       4.897  26.200  52.620  1.00  0.00     0.106 C 
HETATM   29  C   UNL     1       6.032  25.746  51.671  1.00  0.00     0.065 C 
HETATM   30  C   UNL     1       6.824  24.806  52.524  1.00  0.00    -0.050 A 
HETATM   31  C   UNL     1       6.148  24.485  53.702  1.00  0.00    -0.050 A 
HETATM   32  C   UNL     1       8.050  24.232  52.226  1.00  0.00     0.007 A 
HETATM   33  C   UNL     1       4.826  25.178  53.780  1.00  0.00     0.065 C 
HETATM   34  C   UNL     1       6.679  23.574  54.603  1.00  0.00     0.007 A 
HETATM   35  C   UNL     1       7.915  22.994  54.312  1.00  0.00     0.001 A 
HETATM   36  C   UNL     1       8.598  23.322  53.132  1.00  0.00     0.001 A 
ENDBRANCH   6  28
TORSDOF 6
ENDMDL
MODEL 3
REMARK VINA RESULT:      -9.3      2.304      9.510
REMARK  6 active torsions:
REMARK  status: ('A' for Active; 'I' for Inactive)
REMARK    1  A    between atoms: C_2  and  C_3 
REMARK    2  A    between atoms: N_6  and  C_8 
REMARK    3  A    between atoms: C_8  and  C_9 
REMARK    4  A    between atoms: C_12  and  C_13 
REMARK    5  A    between atoms: C_13  and  O_14 
REMARK    6  A    between atoms: N_24  and  C_25 
ROOT
HETATM    1  C   UNL     1       2.966  31.313  52.071  1.00  0.00     0.049 C 
HETATM    2  C   UNL     1       3.758  30.017  51.857  1.00  0.00     0.116 C 
HETATM    3  N   UNL     1       5.148  30.322  51.621  1.00  0.00    -0.324 N 
HETATM    4  C   UNL     1       5.479  30.223  50.282  1.00  0.00     0.326 C 
HETATM    5  O   UNL     1       6.584  30.539  49.887  1.00  0.00    -0.247 OA
HETATM    6  N   UNL     1       4.413  29.733  49.596  1.00  0.00    -0.263 N 
HETATM    7  C   UNL     1       3.389  29.467  50.465  1.00  0.00     0.256 C 
HETATM    8  O   UNL     1       2.339  28.896  50.204  1.00  0.00    -0.270 OA
HETATM    9  H   UNL     1       5.684  31.021  52.125  1.00  0.00     0.165 HD
ENDROOT
BRANCH   2  10
HETATM   10  C   UNL     1       3.521  28.961  52.978  1.00  0.00     0.026 C 
HETATM   11  C   UNL     1       4.321  29.207  54.267  1.00  0.00     0.035 C 
HETATM   12  C   UNL     1       5.790  28.808  54.182  1.00  0.00     0.235 C 
HETATM   13  N   UNL     1       5.932  27.376  53.729  1.00  0.00    -0.067 N 
HETATM   14  H   UNL     1       5.533  26.789  54.473  1.00  0.00     0.280 HD
HETATM   15  C   UNL     1       5.189  27.070  52.452  1.00  0.00     0.235 C 
HETATM   16  C   UNL     1       3.732  27.491  52.560  1.00  0.00     0.035 C 
BRANCH  13  17
HETATM   17  C   UNL     1       7.385  26.940  53.585  1.00  0.00     0.273 C 
BRANCH  17  18
HETATM   18  C   UNL     1       7.600  25.453  53.666  1.00  0.00    -0.033 A 
HETATM   19  C   UNL     1       7.782  24.684  52.508  1.00  0.00     0.010 A 
HETATM   20  C   UNL     1       7.931  23.296  52.601  1.00  0.00     0.018 A 
HETATM   21  C   UNL     1       7.899  22.655  53.847  1.00  0.00     0.039 A 
HETATM   22  C   UNL     1       7.732  23.423  55.004  1.00  0.00     0.018 A 
HETATM   23  C   UNL     1       7.586  24.809  54.915  1.00  0.00     0.010 A 
BRANCH  21  24
HETATM   24  C   UNL     1       8.041  21.174  53.885  1.00  0.00     0.292 C 
HETATM   25  O   UNL     1       8.489  20.524  52.955  1.00  0.00    -0.259 OA
BRANCH  24  26
HETATM   26  O   UNL     1       7.586  20.683  55.062  1.00  0.00    -0.323 OA
HETATM   27  C   UNL     1       8.606  20.124  55.895  1.00  0.00     0.213 C 
ENDBRANCH  24  26
ENDBRANCH  21  24
ENDBRANCH  17  18
ENDBRANCH  13  17
ENDBRANCH   2  10
BRANCH   6  28
HETATM   28  C   UNL     1       4.374  29.350  48.179  1.00  0.00     0.106 C 
HETATM   29  C   UNL     1       3.914  27.894  47.921  1.00  0.00     0.065 C 
HETATM   30  C   UNL     1       2.536  28.072  47.366  1.00  0.00    -0.050 A 
HETATM   31  C   UNL     1       2.278  29.406  47.045  1.00  0.00    -0.050 A 
HETATM   32  C   UNL     1       1.599  27.083  47.114  1.00  0.00     0.007 A 
HETATM   33  C   UNL     1       3.451  30.279  47.353  1.00  0.00     0.065 C 
HETATM   34  C   UNL     1       1.081  29.778  46.453  1.00  0.00     0.007 A 
HETATM   35  C   UNL     1       0.130  28.787  46.198  1.00  0.00     0.001 A 
HETATM   36  C   UNL     1       0.386  27.449  46.528  1.00  0.00     0.001 A 
ENDBRANCH   6  28
TORSDOF 6
ENDMDL
MODEL 4
REMARK VINA RESULT:      -9.2      6.903     11.041
REMARK  6 active torsions:
REMARK  status: ('A' for Active; 'I' for Inactive)
REMARK    1  A    between atoms: C_2  and  C_3 
REMARK    2  A    between atoms: N_6  and  C_8 
REMARK    3  A    between atoms: C_8  and  C_9 
REMARK    4  A    between atoms: C_12  and  C_13 
REMARK    5  A    between atoms: C_13  and  O_14 
REMARK    6  A    between atoms: N_24  and  C_25 
ROOT
HETATM    1  C   UNL     1       5.835  30.162  55.854  1.00  0.00     0.049 C 
HETATM    2  C   UNL     1       5.875  29.937  57.371  1.00  0.00     0.116 C 
HETATM    3  N   UNL     1       4.534  29.869  57.895  1.00  0.00    -0.324 N 
HETATM    4  C   UNL     1       4.165  31.043  58.525  1.00  0.00     0.326 C 
HETATM    5  O   UNL     1       3.033  31.199  58.941  1.00  0.00    -0.247 OA
HETATM    6  N   UNL     1       5.237  31.875  58.579  1.00  0.00    -0.263 N 
HETATM    7  C   UNL     1       6.328  31.257  58.027  1.00  0.00     0.256 C 
HETATM    8  O   UNL     1       7.480  31.666  58.033  1.00  0.00    -0.270 OA
HETATM    9  H   UNL     1       3.761  29.379  57.455  1.00  0.00     0.165 HD
ENDROOT
BRANCH   2  10
HETATM   10  C   UNL     1       6.783  28.742  57.789  1.00  0.00     0.026 C 
HETATM   11  C   UNL     1       8.144  28.693  57.077  1.00  0.00     0.035 C 
HETATM   12  C   UNL     1       8.087  28.168  55.647  1.00  0.00     0.235 C 
HETATM   13  N   UNL     1       7.408  26.822  55.595  1.00  0.00    -0.067 N 
HETATM   14  H   UNL     1       8.014  26.164  56.103  1.00  0.00     0.280 HD
HETATM   15  C   UNL     1       6.052  26.805  56.257  1.00  0.00     0.235 C 
HETATM   16  C   UNL     1       6.136  27.346  57.676  1.00  0.00     0.035 C 
BRANCH  13  17
HETATM   17  C   UNL     1       7.285  26.272  54.179  1.00  0.00     0.273 C 
BRANCH  17  18
HETATM   18  C   UNL     1       7.673  24.825  54.037  1.00  0.00    -0.033 A 
HETATM   19  C   UNL     1       7.308  24.085  52.903  1.00  0.00     0.010 A 
HETATM   20  C   UNL     1       7.636  22.729  52.812  1.00  0.00     0.018 A 
HETATM   21  C   UNL     1       8.328  22.089  53.849  1.00  0.00     0.039 A 
HETATM   22  C   UNL     1       8.705  22.828  54.976  1.00  0.00     0.018 A 
HETATM   23  C   UNL     1       8.382  24.184  55.068  1.00  0.00     0.010 A 
BRANCH  21  24
HETATM   24  C   UNL     1       8.631  20.638  53.709  1.00  0.00     0.292 C 
HETATM   25  O   UNL     1       8.451  20.018  52.674  1.00  0.00    -0.259 OA
BRANCH  24  26
HETATM   26  O   UNL     1       9.095  20.134  54.877  1.00  0.00    -0.323 OA
HETATM   27  C   UNL     1       8.076  19.873  55.846  1.00  0.00     0.213 C 
ENDBRANCH  24  26
ENDBRANCH  21  24
ENDBRANCH  17  18
ENDBRANCH  13  17
ENDBRANCH   2  10
BRANCH   6  28
HETATM   28  C   UNL     1       5.322  33.166  59.274  1.00  0.00     0.106 C 
HETATM   29  C   UNL     1       4.150  34.132  58.977  1.00  0.00     0.065 C 
HETATM   30  C   UNL     1       3.358  34.098  60.246  1.00  0.00    -0.050 A 
HETATM   31  C   UNL     1       4.058  33.463  61.273  1.00  0.00    -0.050 A 
HETATM   32  C   UNL     1       2.110  34.658  60.472  1.00  0.00     0.007 A 
HETATM   33  C   UNL     1       5.399  32.991  60.811  1.00  0.00     0.065 C 
HETATM   34  C   UNL     1       3.530  33.384  62.553  1.00  0.00     0.007 A 
HETATM   35  C   UNL     1       2.271  33.943  62.788  1.00  0.00     0.001 A 
HETATM   36  C   UNL     1       1.565  34.574  61.754  1.00  0.00     0.001 A 
ENDBRANCH   6  28
TORSDOF 6
ENDMDL
MODEL 5
REMARK VINA RESULT:      -9.0      1.836      2.527
REMARK  6 active torsions:
REMARK  status: ('A' for Active; 'I' for Inactive)
REMARK    1  A    between atoms: C_2  and  C_3 
REMARK    2  A    between atoms: N_6  and  C_8 
REMARK    3  A    between atoms: C_8  and  C_9 
REMARK    4  A    between atoms: C_12  and  C_13 
REMARK    5  A    between atoms: C_13  and  O_14 
REMARK    6  A    between atoms: N_24  and  C_25 
ROOT
HETATM    1  C   UNL     1       4.488  27.660  55.828  1.00  0.00     0.049 C 
HETATM    2  C   UNL     1       5.133  27.651  54.437  1.00  0.00     0.116 C 
HETATM    3  N   UNL     1       4.631  26.539  53.667  1.00  0.00    -0.324 N 
HETATM    4  C   UNL     1       5.538  25.499  53.608  1.00  0.00     0.326 C 
HETATM    5  O   UNL     1       5.244  24.442  53.083  1.00  0.00    -0.247 OA
HETATM    6  N   UNL     1       6.702  25.890  54.190  1.00  0.00    -0.263 N 
HETATM    7  C   UNL     1       6.596  27.191  54.602  1.00  0.00     0.256 C 
HETATM    8  O   UNL     1       7.495  27.895  55.041  1.00  0.00    -0.270 OA
HETATM    9  H   UNL     1       3.661  26.240  53.642  1.00  0.00     0.165 HD
ENDROOT
BRANCH   2  10
HETATM   10  C   UNL     1       5.037  29.024  53.707  1.00  0.00     0.026 C 
HETATM   11  C   UNL     1       3.605  29.472  53.374  1.00  0.00     0.035 C 
HETATM   12  C   UNL     1       2.991  28.771  52.168  1.00  0.00     0.235 C 
HETATM   13  N   UNL     1       3.886  28.899  50.960  1.00  0.00    -0.067 N 
HETATM   14  H   UNL     1       3.909  29.897  50.712  1.00  0.00     0.280 HD
HETATM   15  C   UNL     1       5.305  28.453  51.210  1.00  0.00     0.235 C 
HETATM   16  C   UNL     1       5.887  29.156  52.426  1.00  0.00     0.035 C 
BRANCH  13  17
HETATM   17  C   UNL     1       3.338  28.177  49.735  1.00  0.00     0.273 C 
BRANCH  17  18
HETATM   18  C   UNL     1       3.269  29.022  48.491  1.00  0.00    -0.033 A 
HETATM   19  C   UNL     1       4.378  29.761  48.057  1.00  0.00     0.010 A 
HETATM   20  C   UNL     1       4.280  30.579  46.926  1.00  0.00     0.018 A 
HETATM   21  C   UNL     1       3.076  30.675  46.215  1.00  0.00     0.039 A 
HETATM   22  C   UNL     1       1.971  29.928  46.640  1.00  0.00     0.018 A 
HETATM   23  C   UNL     1       2.068  29.108  47.767  1.00  0.00     0.010 A 
BRANCH  21  24
HETATM   24  C   UNL     1       3.021  31.578  45.034  1.00  0.00     0.292 C 
HETATM   25  O   UNL     1       2.067  32.296  44.787  1.00  0.00    -0.259 OA
BRANCH  24  26
HETATM   26  O   UNL     1       4.149  31.459  44.292  1.00  0.00    -0.323 OA
HETATM   27  C   UNL     1       4.607  32.688  43.724  1.00  0.00     0.213 C 
ENDBRANCH  24  26
ENDBRANCH  21  24
ENDBRANCH  17  18
ENDBRANCH  13  17
ENDBRANCH   2  10
BRANCH   6  28
HETATM   28  C   UNL     1       7.967  25.144  54.230  1.00  0.00     0.106 C 
HETATM   29  C   UNL     1       8.158  24.275  55.496  1.00  0.00     0.065 C 
HETATM   30  C   UNL     1       7.964  22.884  54.980  1.00  0.00    -0.050 A 
HETATM   31  C   UNL     1       7.951  22.849  53.585  1.00  0.00    -0.050 A 
HETATM   32  C   UNL     1       7.866  21.719  55.725  1.00  0.00     0.007 A 
HETATM   33  C   UNL     1       8.128  24.214  53.002  1.00  0.00     0.065 C 
HETATM   34  C   UNL     1       7.850  21.646  52.903  1.00  0.00     0.007 A 
HETATM   35  C   UNL     1       7.747  20.468  53.646  1.00  0.00     0.001 A 
HETATM   36  C   UNL     1       7.753  20.504  55.047  1.00  0.00     0.001 A 
ENDBRANCH   6  28
TORSDOF 6
ENDMDL
MODEL 6
REMARK VINA RESULT:      -8.6      5.758      9.235
REMARK  6 active torsions:
REMARK  status: ('A' for Active; 'I' for Inactive)
REMARK    1  A    between atoms: C_2  and  C_3 
REMARK    2  A    between atoms: N_6  and  C_8 
REMARK    3  A    between atoms: C_8  and  C_9 
REMARK    4  A    between atoms: C_12  and  C_13 
REMARK    5  A    between atoms: C_13  and  O_14 
REMARK    6  A    between atoms: N_24  and  C_25 
ROOT
HETATM    1  C   UNL     1       4.961  27.107  56.871  1.00  0.00     0.049 C 
HETATM    2  C   UNL     1       5.518  27.458  55.486  1.00  0.00     0.116 C 
HETATM    3  N   UNL     1       4.914  26.616  54.483  1.00  0.00    -0.324 N 
HETATM    4  C   UNL     1       5.762  25.602  54.079  1.00  0.00     0.326 C 
HETATM    5  O   UNL     1       5.383  24.739  53.312  1.00  0.00    -0.247 OA
HETATM    6  N   UNL     1       6.978  25.783  54.659  1.00  0.00    -0.263 N 
HETATM    7  C   UNL     1       6.963  26.925  55.414  1.00  0.00     0.256 C 
HETATM    8  O   UNL     1       7.922  27.453  55.959  1.00  0.00    -0.270 OA
HETATM    9  H   UNL     1       3.931  26.365  54.450  1.00  0.00     0.165 HD
ENDROOT
BRANCH   2  10
HETATM   10  C   UNL     1       5.447  28.981  55.163  1.00  0.00     0.026 C 
HETATM   11  C   UNL     1       6.251  29.875  56.121  1.00  0.00     0.035 C 
HETATM   12  C   UNL     1       5.583  30.114  57.470  1.00  0.00     0.235 C 
HETATM   13  N   UNL     1       4.184  30.648  57.289  1.00  0.00    -0.067 N 
HETATM   14  H   UNL     1       4.274  31.578  56.861  1.00  0.00     0.280 HD
HETATM   15  C   UNL     1       3.328  29.802  56.377  1.00  0.00     0.235 C 
HETATM   16  C   UNL     1       4.025  29.568  55.046  1.00  0.00     0.035 C 
BRANCH  13  17
HETATM   17  C   UNL     1       3.454  30.862  58.610  1.00  0.00     0.273 C 
BRANCH  17  18
HETATM   18  C   UNL     1       3.675  32.215  59.231  1.00  0.00    -0.033 A 
HETATM   19  C   UNL     1       3.896  33.349  58.436  1.00  0.00     0.010 A 
HETATM   20  C   UNL     1       4.148  34.589  59.032  1.00  0.00     0.018 A 
HETATM   21  C   UNL     1       4.186  34.717  60.428  1.00  0.00     0.039 A 
HETATM   22  C   UNL     1       3.953  33.589  61.222  1.00  0.00     0.018 A 
HETATM   23  C   UNL     1       3.698  32.350  60.629  1.00  0.00     0.010 A 
BRANCH  21  24
HETATM   24  C   UNL     1       4.481  36.055  61.008  1.00  0.00     0.292 C 
HETATM   25  O   UNL     1       5.219  36.218  61.965  1.00  0.00    -0.259 OA
BRANCH  24  26
HETATM   26  O   UNL     1       3.803  37.021  60.343  1.00  0.00    -0.323 OA
HETATM   27  C   UNL     1       3.367  38.103  61.170  1.00  0.00     0.213 C 
ENDBRANCH  24  26
ENDBRANCH  21  24
ENDBRANCH  17  18
ENDBRANCH  13  17
ENDBRANCH   2  10
BRANCH   6  28
HETATM   28  C   UNL     1       8.203  25.014  54.402  1.00  0.00     0.106 C 
HETATM   29  C   UNL     1       8.592  24.032  55.534  1.00  0.00     0.065 C 
HETATM   30  C   UNL     1       8.262  22.697  54.946  1.00  0.00    -0.050 A 
HETATM   31  C   UNL     1       7.996  22.788  53.578  1.00  0.00    -0.050 A 
HETATM   32  C   UNL     1       8.261  21.471  55.593  1.00  0.00     0.007 A 
HETATM   33  C   UNL     1       8.109  24.196  53.091  1.00  0.00     0.065 C 
HETATM   34  C   UNL     1       7.733  21.653  52.827  1.00  0.00     0.007 A 
HETATM   35  C   UNL     1       7.727  20.414  53.472  1.00  0.00     0.001 A 
HETATM   36  C   UNL     1       7.987  20.324  54.847  1.00  0.00     0.001 A 
ENDBRANCH   6  28
TORSDOF 6
ENDMDL
MODEL 7
REMARK VINA RESULT:      -8.6      3.853     10.324
REMARK  6 active torsions:
REMARK  status: ('A' for Active; 'I' for Inactive)
REMARK    1  A    between atoms: C_2  and  C_3 
REMARK    2  A    between atoms: N_6  and  C_8 
REMARK    3  A    between atoms: C_8  and  C_9 
REMARK    4  A    between atoms: C_12  and  C_13 
REMARK    5  A    between atoms: C_13  and  O_14 
REMARK    6  A    between atoms: N_24  and  C_25 
ROOT
HETATM    1  C   UNL     1       3.788  31.099  53.018  1.00  0.00     0.049 C 
HETATM    2  C   UNL     1       4.044  30.345  51.707  1.00  0.00     0.116 C 
HETATM    3  N   UNL     1       5.409  30.542  51.284  1.00  0.00    -0.324 N 
HETATM    4  C   UNL     1       5.504  31.462  50.257  1.00  0.00     0.326 C 
HETATM    5  O   UNL     1       6.588  31.824  49.842  1.00  0.00    -0.247 OA
HETATM    6  N   UNL     1       4.254  31.814  49.858  1.00  0.00    -0.263 N 
HETATM    7  C   UNL     1       3.326  31.112  50.578  1.00  0.00     0.256 C 
HETATM    8  O   UNL     1       2.118  31.085  50.385  1.00  0.00    -0.270 OA
HETATM    9  H   UNL     1       6.216  30.528  51.899  1.00  0.00     0.165 HD
ENDROOT
BRANCH   2  10
HETATM   10  C   UNL     1       3.605  28.851  51.762  1.00  0.00     0.026 C 
HETATM   11  C   UNL     1       3.505  28.266  53.180  1.00  0.00     0.035 C 
HETATM   12  C   UNL     1       4.847  27.911  53.810  1.00  0.00     0.235 C 
HETATM   13  N   UNL     1       5.637  26.995  52.908  1.00  0.00    -0.067 N 
HETATM   14  H   UNL     1       5.118  26.109  52.856  1.00  0.00     0.280 HD
HETATM   15  C   UNL     1       5.795  27.521  51.503  1.00  0.00     0.235 C 
HETATM   16  C   UNL     1       4.444  27.880  50.905  1.00  0.00     0.035 C 
BRANCH  13  17
HETATM   17  C   UNL     1       7.009  26.644  53.473  1.00  0.00     0.273 C 
BRANCH  17  18
HETATM   18  C   UNL     1       7.271  25.167  53.600  1.00  0.00    -0.033 A 
HETATM   19  C   UNL     1       7.064  24.497  54.814  1.00  0.00     0.010 A 
HETATM   20  C   UNL     1       7.360  23.135  54.925  1.00  0.00     0.018 A 
HETATM   21  C   UNL     1       7.868  22.421  53.831  1.00  0.00     0.039 A 
HETATM   22  C   UNL     1       8.063  23.085  52.615  1.00  0.00     0.018 A 
HETATM   23  C   UNL     1       7.765  24.446  52.500  1.00  0.00     0.010 A 
BRANCH  21  24
HETATM   24  C   UNL     1       8.186  20.979  54.012  1.00  0.00     0.292 C 
HETATM   25  O   UNL     1       7.752  20.104  53.282  1.00  0.00    -0.259 OA
BRANCH  24  26
HETATM   26  O   UNL     1       8.984  20.800  55.092  1.00  0.00    -0.323 OA
HETATM   27  C   UNL     1       8.392  20.018  56.133  1.00  0.00     0.213 C 
ENDBRANCH  24  26
ENDBRANCH  21  24
ENDBRANCH  17  18
ENDBRANCH  13  17
ENDBRANCH   2  10
BRANCH   6  28
HETATM   28  C   UNL     1       3.897  32.663  48.714  1.00  0.00     0.106 C 
HETATM   29  C   UNL     1       4.457  34.104  48.787  1.00  0.00     0.065 C 
HETATM   30  C   UNL     1       5.547  34.092  47.762  1.00  0.00    -0.050 A 
HETATM   31  C   UNL     1       5.494  32.946  46.967  1.00  0.00    -0.050 A 
HETATM   32  C   UNL     1       6.488  35.082  47.527  1.00  0.00     0.007 A 
HETATM   33  C   UNL     1       4.366  32.052  47.371  1.00  0.00     0.065 C 
HETATM   34  C   UNL     1       6.376  32.770  45.912  1.00  0.00     0.007 A 
HETATM   35  C   UNL     1       7.329  33.761  45.669  1.00  0.00     0.001 A 
HETATM   36  C   UNL     1       7.387  34.909  46.473  1.00  0.00     0.001 A 
ENDBRANCH   6  28
TORSDOF 6
ENDMDL
MODEL 8
REMARK VINA RESULT:      -8.6      7.979     12.348
REMARK  6 active torsions:
REMARK  status: ('A' for Active; 'I' for Inactive)
REMARK    1  A    between atoms: C_2  and  C_3 
REMARK    2  A    between atoms: N_6  and  C_8 
REMARK    3  A    between atoms: C_8  and  C_9 
REMARK    4  A    between atoms: C_12  and  C_13 
REMARK    5  A    between atoms: C_13  and  O_14 
REMARK    6  A    between atoms: N_24  and  C_25 
ROOT
HETATM    1  C   UNL     1       3.098  30.831  59.766  1.00  0.00     0.049 C 
HETATM    2  C   UNL     1       3.997  32.058  59.960  1.00  0.00     0.116 C 
HETATM    3  N   UNL     1       4.785  31.908  61.158  1.00  0.00    -0.324 N 
HETATM    4  C   UNL     1       4.284  32.661  62.203  1.00  0.00     0.326 C 
HETATM    5  O   UNL     1       4.765  32.581  63.317  1.00  0.00    -0.247 OA
HETATM    6  N   UNL     1       3.263  33.432  61.747  1.00  0.00    -0.263 N 
HETATM    7  C   UNL     1       3.100  33.231  60.402  1.00  0.00     0.256 C 
HETATM    8  O   UNL     1       2.365  33.859  59.653  1.00  0.00    -0.270 OA
HETATM    9  H   UNL     1       5.238  31.049  61.452  1.00  0.00     0.165 HD
ENDROOT
BRANCH   2  10
HETATM   10  C   UNL     1       4.831  32.414  58.692  1.00  0.00     0.026 C 
HETATM   11  C   UNL     1       4.626  31.459  57.504  1.00  0.00     0.035 C 
HETATM   12  C   UNL     1       5.360  30.129  57.632  1.00  0.00     0.235 C 
HETATM   13  N   UNL     1       6.829  30.349  57.894  1.00  0.00    -0.067 N 
HETATM   14  H   UNL     1       7.217  30.794  57.052  1.00  0.00     0.280 HD
HETATM   15  C   UNL     1       7.104  31.259  59.066  1.00  0.00     0.235 C 
HETATM   16  C   UNL     1       6.349  32.572  58.919  1.00  0.00     0.035 C 
BRANCH  13  17
HETATM   17  C   UNL     1       7.602  29.048  58.074  1.00  0.00     0.273 C 
BRANCH  17  18
HETATM   18  C   UNL     1       7.432  28.062  56.949  1.00  0.00    -0.033 A 
HETATM   19  C   UNL     1       7.042  26.739  57.199  1.00  0.00     0.010 A 
HETATM   20  C   UNL     1       6.937  25.825  56.146  1.00  0.00     0.018 A 
HETATM   21  C   UNL     1       7.223  26.214  54.830  1.00  0.00     0.039 A 
HETATM   22  C   UNL     1       7.600  27.537  54.577  1.00  0.00     0.018 A 
HETATM   23  C   UNL     1       7.702  28.454  55.626  1.00  0.00     0.010 A 
BRANCH  21  24
HETATM   24  C   UNL     1       7.117  25.194  53.751  1.00  0.00     0.292 C 
HETATM   25  O   UNL     1       8.003  24.989  52.939  1.00  0.00    -0.259 OA
BRANCH  24  26
HETATM   26  O   UNL     1       5.914  24.573  53.800  1.00  0.00    -0.323 OA
HETATM   27  C   UNL     1       5.030  24.926  52.733  1.00  0.00     0.213 C 
ENDBRANCH  24  26
ENDBRANCH  21  24
ENDBRANCH  17  18
ENDBRANCH  13  17
ENDBRANCH   2  10
BRANCH   6  28
HETATM   28  C   UNL     1       2.538  34.472  62.489  1.00  0.00     0.106 C 
HETATM   29  C   UNL     1       2.208  34.100  63.954  1.00  0.00     0.065 C 
HETATM   30  C   UNL     1       3.161  34.947  64.738  1.00  0.00    -0.050 A 
HETATM   31  C   UNL     1       3.777  35.907  63.933  1.00  0.00    -0.050 A 
HETATM   32  C   UNL     1       3.408  34.891  66.100  1.00  0.00     0.007 A 
HETATM   33  C   UNL     1       3.315  35.811  62.515  1.00  0.00     0.065 C 
HETATM   34  C   UNL     1       4.647  36.840  64.477  1.00  0.00     0.007 A 
HETATM   35  C   UNL     1       4.905  36.788  65.849  1.00  0.00     0.001 A 
HETATM   36  C   UNL     1       4.291  35.819  66.655  1.00  0.00     0.001 A 
ENDBRANCH   6  28
TORSDOF 6
ENDMDL
MODEL 9
REMARK VINA RESULT:      -8.4      6.367      9.734
REMARK  6 active torsions:
REMARK  status: ('A' for Active; 'I' for Inactive)
REMARK    1  A    between atoms: C_2  and  C_3 
REMARK    2  A    between atoms: N_6  and  C_8 
REMARK    3  A    between atoms: C_8  and  C_9 
REMARK    4  A    between atoms: C_12  and  C_13 
REMARK    5  A    between atoms: C_13  and  O_14 
REMARK    6  A    between atoms: N_24  and  C_25 
ROOT
HETATM    1  C   UNL     1       5.484  29.109  57.850  1.00  0.00     0.049 C 
HETATM    2  C   UNL     1       5.183  28.366  56.542  1.00  0.00     0.116 C 
HETATM    3  N   UNL     1       4.657  27.054  56.830  1.00  0.00    -0.324 N 
HETATM    4  C   UNL     1       5.608  26.066  56.655  1.00  0.00     0.326 C 
HETATM    5  O   UNL     1       5.368  24.910  56.947  1.00  0.00    -0.247 OA
HETATM    6  N   UNL     1       6.732  26.619  56.130  1.00  0.00    -0.263 N 
HETATM    7  C   UNL     1       6.532  27.956  55.916  1.00  0.00     0.256 C 
HETATM    8  O   UNL     1       7.284  28.724  55.334  1.00  0.00    -0.270 OA
HETATM    9  H   UNL     1       3.977  26.846  57.554  1.00  0.00     0.165 HD
ENDROOT
BRANCH   2  10
HETATM   10  C   UNL     1       4.314  29.196  55.551  1.00  0.00     0.026 C 
HETATM   11  C   UNL     1       5.037  30.395  54.916  1.00  0.00     0.035 C 
HETATM   12  C   UNL     1       5.173  31.605  55.833  1.00  0.00     0.235 C 
HETATM   13  N   UNL     1       3.830  32.019  56.379  1.00  0.00    -0.067 N 
HETATM   14  H   UNL     1       3.272  32.345  55.579  1.00  0.00     0.280 HD
HETATM   15  C   UNL     1       3.073  30.893  57.040  1.00  0.00     0.235 C 
HETATM   16  C   UNL     1       2.964  29.695  56.109  1.00  0.00     0.035 C 
BRANCH  13  17
HETATM   17  C   UNL     1       3.917  33.200  57.338  1.00  0.00     0.273 C 
BRANCH  17  18
HETATM   18  C   UNL     1       4.366  32.841  58.729  1.00  0.00    -0.033 A 
HETATM   19  C   UNL     1       3.449  32.751  59.786  1.00  0.00     0.010 A 
HETATM   20  C   UNL     1       3.893  32.464  61.080  1.00  0.00     0.018 A 
HETATM   21  C   UNL     1       5.256  32.265  61.342  1.00  0.00     0.039 A 
HETATM   22  C   UNL     1       6.171  32.342  60.287  1.00  0.00     0.018 A 
HETATM   23  C   UNL     1       5.730  32.625  58.991  1.00  0.00     0.010 A 
BRANCH  21  24
HETATM   24  C   UNL     1       5.674  31.985  62.742  1.00  0.00     0.292 C 
HETATM   25  O   UNL     1       4.881  31.829  63.656  1.00  0.00    -0.259 OA
BRANCH  24  26
HETATM   26  O   UNL     1       7.025  31.959  62.839  1.00  0.00    -0.323 OA
HETATM   27  C   UNL     1       7.560  32.865  63.807  1.00  0.00     0.213 C 
ENDBRANCH  24  26
ENDBRANCH  21  24
ENDBRANCH  17  18
ENDBRANCH  13  17
ENDBRANCH   2  10
BRANCH   6  28
HETATM   28  C   UNL     1       7.934  25.911  55.669  1.00  0.00     0.106 C 
HETATM   29  C   UNL     1       8.583  24.991  56.732  1.00  0.00     0.065 C 
HETATM   30  C   UNL     1       8.231  23.620  56.247  1.00  0.00    -0.050 A 
HETATM   31  C   UNL     1       7.713  23.649  54.951  1.00  0.00    -0.050 A 
HETATM   32  C   UNL     1       8.424  22.420  56.912  1.00  0.00     0.007 A 
HETATM   33  C   UNL     1       7.650  25.044  54.418  1.00  0.00     0.065 C 
HETATM   34  C   UNL     1       7.386  22.476  54.288  1.00  0.00     0.007 A 
HETATM   35  C   UNL     1       7.574  21.262  54.952  1.00  0.00     0.001 A 
HETATM   36  C   UNL     1       8.088  21.234  56.257  1.00  0.00     0.001 A 
ENDBRANCH   6  28
TORSDOF 6
ENDMDL
MODEL 10
REMARK VINA RESULT:      -8.4      7.542     11.856
REMARK  6 active torsions:
REMARK  status: ('A' for Active; 'I' for Inactive)
REMARK    1  A    between atoms: C_2  and  C_3 
REMARK    2  A    between atoms: N_6  and  C_8 
REMARK    3  A    between atoms: C_8  and  C_9 
REMARK    4  A    between atoms: C_12  and  C_13 
REMARK    5  A    between atoms: C_13  and  O_14 
REMARK    6  A    between atoms: N_24  and  C_25 
ROOT
HETATM    1  C   UNL     1       3.406  31.638  59.288  1.00  0.00     0.049 C 
HETATM    2  C   UNL     1       4.829  32.200  59.394  1.00  0.00     0.116 C 
HETATM    3  N   UNL     1       5.532  31.563  60.480  1.00  0.00    -0.324 N 
HETATM    4  C   UNL     1       5.604  32.375  61.596  1.00  0.00     0.326 C 
HETATM    5  O   UNL     1       6.076  31.963  62.638  1.00  0.00    -0.247 OA
HETATM    6  N   UNL     1       5.100  33.599  61.289  1.00  0.00    -0.263 N 
HETATM    7  C   UNL     1       4.727  33.626  59.972  1.00  0.00     0.256 C 
HETATM    8  O   UNL     1       4.362  34.605  59.335  1.00  0.00    -0.270 OA
HETATM    9  H   UNL     1       5.494  30.572  60.695  1.00  0.00     0.165 HD
ENDROOT
BRANCH   2  10
HETATM   10  C   UNL     1       5.599  32.179  58.039  1.00  0.00     0.026 C 
HETATM   11  C   UNL     1       4.700  32.235  56.793  1.00  0.00     0.035 C 
HETATM   12  C   UNL     1       4.022  30.915  56.445  1.00  0.00     0.235 C 
HETATM   13  N   UNL     1       5.037  29.806  56.323  1.00  0.00    -0.067 N 
HETATM   14  H   UNL     1       5.627  30.031  55.511  1.00  0.00     0.280 HD
HETATM   15  C   UNL     1       5.939  29.677  57.526  1.00  0.00     0.235 C 
HETATM   16  C   UNL     1       6.591  31.011  57.858  1.00  0.00     0.035 C 
BRANCH  13  17
HETATM   17  C   UNL     1       4.405  28.452  56.020  1.00  0.00     0.273 C 
BRANCH  17  18
HETATM   18  C   UNL     1       5.392  27.356  55.725  1.00  0.00    -0.033 A 
HETATM   19  C   UNL     1       6.289  27.458  54.652  1.00  0.00     0.010 A 
HETATM   20  C   UNL     1       7.166  26.407  54.364  1.00  0.00     0.018 A 
HETATM   21  C   UNL     1       7.160  25.238  55.138  1.00  0.00     0.039 A 
HETATM   22  C   UNL     1       6.275  25.140  56.217  1.00  0.00     0.018 A 
HETATM   23  C   UNL     1       5.400  26.189  56.509  1.00  0.00     0.010 A 
BRANCH  21  24
HETATM   24  C   UNL     1       8.099  24.143  54.773  1.00  0.00     0.292 C 
HETATM   25  O   UNL     1       8.770  23.540  55.593  1.00  0.00    -0.259 OA
BRANCH  24  26
HETATM   26  O   UNL     1       8.105  23.950  53.432  1.00  0.00    -0.323 OA
HETATM   27  C   UNL     1       7.945  22.584  53.038  1.00  0.00     0.213 C 
ENDBRANCH  24  26
ENDBRANCH  21  24
ENDBRANCH  17  18
ENDBRANCH  13  17
ENDBRANCH   2  10
BRANCH   6  28
HETATM   28  C   UNL     1       5.103  34.796  62.139  1.00  0.00     0.106 C 
HETATM   29  C   UNL     1       3.868  34.930  63.062  1.00  0.00     0.065 C 
HETATM   30  C   UNL     1       4.424  34.613  64.414  1.00  0.00    -0.050 A 
HETATM   31  C   UNL     1       5.820  34.579  64.402  1.00  0.00    -0.050 A 
HETATM   32  C   UNL     1       3.715  34.426  65.590  1.00  0.00     0.007 A 
HETATM   33  C   UNL     1       6.362  34.863  63.039  1.00  0.00     0.065 C 
HETATM   34  C   UNL     1       6.537  34.368  65.570  1.00  0.00     0.007 A 
HETATM   35  C   UNL     1       5.830  34.176  66.759  1.00  0.00     0.001 A 
HETATM   36  C   UNL     1       4.428  34.203  66.769  1.00  0.00     0.001 A 
ENDBRANCH   6  28
TORSDOF 6
ENDMDL
