MODEL 1
REMARK VINA RESULT:      -8.7      0.000      0.000
REMARK  5 active torsions:
REMARK  status: ('A' for Active; 'I' for Inactive)
REMARK    1  A    between atoms: C_7  and  C_8 
REMARK    2  A    between atoms: N_9  and  N_10 
REMARK       I    between atoms: N_10  and  C_11 
REMARK    3  A    between atoms: C_11  and  C_12 
REMARK    4  A    between atoms: C_12  and  N_13 
REMARK    5  A    between atoms: N_13  and  C_14 
ROOT
HETATM    1  N   UNL     1       6.397  25.348  57.162  1.00  0.00    -0.246 N 
HETATM    2  C   UNL     1       7.704  25.666  57.559  1.00  0.00     0.250 C 
HETATM    3  O   UNL     1       8.032  26.688  58.158  1.00  0.00    -0.270 OA
HETATM    4  H   UNL     1       6.310  24.888  56.262  1.00  0.00     0.192 HD
ENDROOT
BRANCH   1   5
HETATM    5  N   UNL     1       5.350  26.187  57.444  1.00  0.00    -0.184 NA
HETATM    6  C   UNL     1       4.909  26.969  56.497  1.00  0.00     0.153 C 
BRANCH   6   7
HETATM    7  C   UNL     1       5.538  27.228  55.210  1.00  0.00     0.018 A 
HETATM    8  C   UNL     1       6.426  28.271  54.986  1.00  0.00     0.018 A 
HETATM    9  C   UNL     1       6.932  29.328  55.900  1.00  0.00     0.069 C 
HETATM   10  N   UNL     1       6.772  28.248  53.659  1.00  0.00    -0.358 N 
HETATM   11  H   UNL     1       7.376  28.919  53.203  1.00  0.00     0.166 HD
HETATM   12  C   UNL     1       6.192  27.177  53.025  1.00  0.00     0.043 A 
HETATM   13  C   UNL     1       5.438  26.494  53.979  1.00  0.00     0.004 A 
HETATM   14  C   UNL     1       6.285  26.765  51.690  1.00  0.00     0.030 A 
HETATM   15  C   UNL     1       4.783  25.308  53.579  1.00  0.00     0.014 A 
HETATM   16  C   UNL     1       4.864  24.880  52.248  1.00  0.00     0.001 A 
HETATM   17  C   UNL     1       5.601  25.606  51.317  1.00  0.00     0.002 A 
ENDBRANCH   6   7
ENDBRANCH   1   5
BRANCH   2  18
HETATM   18  C   UNL     1       8.695  24.568  57.149  1.00  0.00     0.197 C 
BRANCH  18  19
HETATM   19  N   UNL     1       8.013  23.319  56.800  1.00  0.00    -0.283 NA
HETATM   20  H   UNL     1       8.227  22.562  57.455  1.00  0.00     0.128 HD
BRANCH  19  21
HETATM   21  C   UNL     1       8.047  22.903  55.459  1.00  0.00     0.030 A 
HETATM   22  C   UNL     1       7.913  21.541  55.115  1.00  0.00     0.055 A 
HETATM   23 CL   UNL     1       7.806  20.328  56.344  1.00  0.00    -0.082 Cl
HETATM   24  C   UNL     1       7.896  21.127  53.779  1.00  0.00     0.026 A 
HETATM   25  C   UNL     1       7.988  22.067  52.756  1.00  0.00     0.002 A 
HETATM   26  C   UNL     1       8.089  23.420  53.071  1.00  0.00     0.002 A 
HETATM   27  C   UNL     1       8.109  23.831  54.408  1.00  0.00     0.025 A 
ENDBRANCH  19  21
ENDBRANCH  18  19
ENDBRANCH   2  18
TORSDOF 5
ENDMDL
MODEL 2
REMARK VINA RESULT:      -8.3      1.989      3.927
REMARK  5 active torsions:
REMARK  status: ('A' for Active; 'I' for Inactive)
REMARK    1  A    between atoms: C_7  and  C_8 
REMARK    2  A    between atoms: N_9  and  N_10 
REMARK       I    between atoms: N_10  and  C_11 
REMARK    3  A    between atoms: C_11  and  C_12 
REMARK    4  A    between atoms: C_12  and  N_13 
REMARK    5  A    between atoms: N_13  and  C_14 
ROOT
HETATM    1  N   UNL     1       6.511  25.528  56.681  1.00  0.00    -0.246 N 
HETATM    2  C   UNL     1       7.591  25.343  57.556  1.00  0.00     0.250 C 
HETATM    3  O   UNL     1       7.791  25.993  58.580  1.00  0.00    -0.270 OA
HETATM    4  H   UNL     1       6.721  25.420  55.694  1.00  0.00     0.192 HD
ENDROOT
BRANCH   1   5
HETATM    5  N   UNL     1       5.556  26.480  56.930  1.00  0.00    -0.184 NA
HETATM    6  C   UNL     1       5.749  27.687  56.475  1.00  0.00     0.153 C 
BRANCH   6   7
HETATM    7  C   UNL     1       6.977  28.224  55.907  1.00  0.00     0.018 A 
HETATM    8  C   UNL     1       7.283  28.172  54.553  1.00  0.00     0.018 A 
HETATM    9  C   UNL     1       6.526  27.601  53.409  1.00  0.00     0.069 C 
HETATM   10  N   UNL     1       8.532  28.714  54.387  1.00  0.00    -0.358 N 
HETATM   11  H   UNL     1       9.029  28.771  53.508  1.00  0.00     0.166 HD
HETATM   12  C   UNL     1       9.021  29.183  55.581  1.00  0.00     0.043 A 
HETATM   13  C   UNL     1       8.054  28.922  56.552  1.00  0.00     0.004 A 
HETATM   14  C   UNL     1      10.236  29.817  55.867  1.00  0.00     0.030 A 
HETATM   15  C   UNL     1       8.303  29.367  57.870  1.00  0.00     0.014 A 
HETATM   16  C   UNL     1       9.511  30.004  58.175  1.00  0.00     0.001 A 
HETATM   17  C   UNL     1      10.467  30.218  57.186  1.00  0.00     0.002 A 
ENDBRANCH   6   7
ENDBRANCH   1   5
BRANCH   2  18
HETATM   18  C   UNL     1       8.511  24.211  57.076  1.00  0.00     0.197 C 
BRANCH  18  19
HETATM   19  N   UNL     1       8.580  24.146  55.614  1.00  0.00    -0.283 NA
HETATM   20  H   UNL     1       8.087  24.922  55.165  1.00  0.00     0.128 HD
BRANCH  19  21
HETATM   21  C   UNL     1       8.324  22.910  54.997  1.00  0.00     0.030 A 
HETATM   22  C   UNL     1       8.109  22.822  53.606  1.00  0.00     0.055 A 
HETATM   23 CL   UNL     1       8.055  24.249  52.629  1.00  0.00    -0.082 Cl
HETATM   24  C   UNL     1       7.902  21.588  52.979  1.00  0.00     0.026 A 
HETATM   25  C   UNL     1       7.929  20.413  53.726  1.00  0.00     0.002 A 
HETATM   26  C   UNL     1       8.171  20.474  55.096  1.00  0.00     0.002 A 
HETATM   27  C   UNL     1       8.373  21.709  55.720  1.00  0.00     0.025 A 
ENDBRANCH  19  21
ENDBRANCH  18  19
ENDBRANCH   2  18
TORSDOF 5
ENDMDL
MODEL 3
REMARK VINA RESULT:      -8.2      2.212      4.319
REMARK  5 active torsions:
REMARK  status: ('A' for Active; 'I' for Inactive)
REMARK    1  A    between atoms: C_7  and  C_8 
REMARK    2  A    between atoms: N_9  and  N_10 
REMARK       I    between atoms: N_10  and  C_11 
REMARK    3  A    between atoms: C_11  and  C_12 
REMARK    4  A    between atoms: C_12  and  N_13 
REMARK    5  A    between atoms: N_13  and  C_14 
ROOT
HETATM    1  N   UNL     1       7.464  26.174  55.025  1.00  0.00    -0.246 N 
HETATM    2  C   UNL     1       6.617  25.284  55.703  1.00  0.00     0.250 C 
HETATM    3  O   UNL     1       5.392  25.260  55.604  1.00  0.00    -0.270 OA
HETATM    4  H   UNL     1       8.262  26.510  55.553  1.00  0.00     0.192 HD
ENDROOT
BRANCH   1   5
HETATM    5  N   UNL     1       6.958  27.107  54.157  1.00  0.00    -0.184 NA
HETATM    6  C   UNL     1       6.938  28.356  54.530  1.00  0.00     0.153 C 
BRANCH   6   7
HETATM    7  C   UNL     1       7.191  28.876  55.867  1.00  0.00     0.018 A 
HETATM    8  C   UNL     1       6.226  28.934  56.863  1.00  0.00     0.018 A 
HETATM    9  C   UNL     1       4.794  28.536  56.851  1.00  0.00     0.069 C 
HETATM   10  N   UNL     1       6.794  29.528  57.961  1.00  0.00    -0.358 N 
HETATM   11  H   UNL     1       6.311  29.739  58.824  1.00  0.00     0.166 HD
HETATM   12  C   UNL     1       8.122  29.793  57.736  1.00  0.00     0.043 A 
HETATM   13  C   UNL     1       8.414  29.363  56.441  1.00  0.00     0.004 A 
HETATM   14  C   UNL     1       9.078  30.372  58.580  1.00  0.00     0.030 A 
HETATM   15  C   UNL     1       9.748  29.478  55.991  1.00  0.00     0.014 A 
HETATM   16  C   UNL     1      10.718  30.054  56.821  1.00  0.00     0.001 A 
HETATM   17  C   UNL     1      10.382  30.501  58.095  1.00  0.00     0.002 A 
ENDBRANCH   6   7
ENDBRANCH   1   5
BRANCH   2  18
HETATM   18  C   UNL     1       7.415  24.327  56.599  1.00  0.00     0.197 C 
BRANCH  18  19
HETATM   19  N   UNL     1       8.604  23.805  55.919  1.00  0.00    -0.283 NA
HETATM   20  H   UNL     1       9.185  24.549  55.524  1.00  0.00     0.128 HD
BRANCH  19  21
HETATM   21  C   UNL     1       8.439  22.720  55.043  1.00  0.00     0.030 A 
HETATM   22  C   UNL     1       8.298  21.405  55.531  1.00  0.00     0.055 A 
HETATM   23 CL   UNL     1       8.426  21.074  57.225  1.00  0.00    -0.082 Cl
HETATM   24  C   UNL     1       8.084  20.327  54.665  1.00  0.00     0.026 A 
HETATM   25  C   UNL     1       7.982  20.544  53.294  1.00  0.00     0.002 A 
HETATM   26  C   UNL     1       8.087  21.839  52.792  1.00  0.00     0.002 A 
HETATM   27  C   UNL     1       8.304  22.913  53.659  1.00  0.00     0.025 A 
ENDBRANCH  19  21
ENDBRANCH  18  19
ENDBRANCH   2  18
TORSDOF 5
ENDMDL
MODEL 4
REMARK VINA RESULT:      -8.1      3.243      6.526
REMARK  5 active torsions:
REMARK  status: ('A' for Active; 'I' for Inactive)
REMARK    1  A    between atoms: C_7  and  C_8 
REMARK    2  A    between atoms: N_9  and  N_10 
REMARK       I    between atoms: N_10  and  C_11 
REMARK    3  A    between atoms: C_11  and  C_12 
REMARK    4  A    between atoms: C_12  and  N_13 
REMARK    5  A    between atoms: N_13  and  C_14 
ROOT
HETATM    1  N   UNL     1       7.120  27.425  54.141  1.00  0.00    -0.246 N 
HETATM    2  C   UNL     1       7.070  28.481  55.063  1.00  0.00     0.250 C 
HETATM    3  O   UNL     1       6.043  29.041  55.441  1.00  0.00    -0.270 OA
HETATM    4  H   UNL     1       7.902  27.441  53.495  1.00  0.00     0.192 HD
ENDROOT
BRANCH   1   5
HETATM    5  N   UNL     1       5.973  26.915  53.589  1.00  0.00    -0.184 NA
HETATM    6  C   UNL     1       5.579  25.729  53.961  1.00  0.00     0.153 C 
BRANCH   6   7
HETATM    7  C   UNL     1       6.332  24.761  54.745  1.00  0.00     0.018 A 
HETATM    8  C   UNL     1       6.359  24.752  56.133  1.00  0.00     0.018 A 
HETATM    9  C   UNL     1       5.702  25.646  57.122  1.00  0.00     0.069 C 
HETATM   10  N   UNL     1       7.207  23.749  56.528  1.00  0.00    -0.358 N 
HETATM   11  H   UNL     1       7.452  23.538  57.486  1.00  0.00     0.166 HD
HETATM   12  C   UNL     1       7.679  23.057  55.440  1.00  0.00     0.043 A 
HETATM   13  C   UNL     1       7.121  23.644  54.305  1.00  0.00     0.004 A 
HETATM   14  C   UNL     1       8.548  21.959  55.382  1.00  0.00     0.030 A 
HETATM   15  C   UNL     1       7.414  23.066  53.049  1.00  0.00     0.014 A 
HETATM   16  C   UNL     1       8.280  21.969  52.971  1.00  0.00     0.001 A 
HETATM   17  C   UNL     1       8.844  21.430  54.123  1.00  0.00     0.002 A 
ENDBRANCH   6   7
ENDBRANCH   1   5
BRANCH   2  18
HETATM   18  C   UNL     1       8.474  28.862  55.552  1.00  0.00     0.197 C 
BRANCH  18  19
HETATM   19  N   UNL     1       8.646  28.592  56.982  1.00  0.00    -0.283 NA
HETATM   20  H   UNL     1       8.022  27.854  57.317  1.00  0.00     0.128 HD
BRANCH  19  21
HETATM   21  C   UNL     1       8.709  29.689  57.857  1.00  0.00     0.030 A 
HETATM   22  C   UNL     1       9.906  30.415  58.028  1.00  0.00     0.055 A 
HETATM   23 CL   UNL     1      11.364  29.913  57.241  1.00  0.00    -0.082 Cl
HETATM   24  C   UNL     1       9.962  31.539  58.860  1.00  0.00     0.026 A 
HETATM   25  C   UNL     1       8.816  31.976  59.520  1.00  0.00     0.002 A 
HETATM   26  C   UNL     1       7.616  31.293  59.341  1.00  0.00     0.002 A 
HETATM   27  C   UNL     1       7.564  30.168  58.512  1.00  0.00     0.025 A 
ENDBRANCH  19  21
ENDBRANCH  18  19
ENDBRANCH   2  18
TORSDOF 5
ENDMDL
MODEL 5
REMARK VINA RESULT:      -7.8      3.424      6.574
REMARK  5 active torsions:
REMARK  status: ('A' for Active; 'I' for Inactive)
REMARK    1  A    between atoms: C_7  and  C_8 
REMARK    2  A    between atoms: N_9  and  N_10 
REMARK       I    between atoms: N_10  and  C_11 
REMARK    3  A    between atoms: C_11  and  C_12 
REMARK    4  A    between atoms: C_12  and  N_13 
REMARK    5  A    between atoms: N_13  and  C_14 
ROOT
HETATM    1  N   UNL     1       6.758  26.950  55.492  1.00  0.00    -0.246 N 
HETATM    2  C   UNL     1       6.974  28.327  55.335  1.00  0.00     0.250 C 
HETATM    3  O   UNL     1       6.119  29.142  54.991  1.00  0.00    -0.270 OA
HETATM    4  H   UNL     1       7.520  26.349  55.196  1.00  0.00     0.192 HD
ENDROOT
BRANCH   1   5
HETATM    5  N   UNL     1       5.520  26.401  55.277  1.00  0.00    -0.184 NA
HETATM    6  C   UNL     1       5.453  25.215  54.736  1.00  0.00     0.153 C 
BRANCH   6   7
HETATM    7  C   UNL     1       6.540  24.470  54.119  1.00  0.00     0.018 A 
HETATM    8  C   UNL     1       6.985  24.695  52.823  1.00  0.00     0.018 A 
HETATM    9  C   UNL     1       6.518  25.656  51.790  1.00  0.00     0.069 C 
HETATM   10  N   UNL     1       7.973  23.782  52.556  1.00  0.00    -0.358 N 
HETATM   11  H   UNL     1       8.452  23.684  51.671  1.00  0.00     0.166 HD
HETATM   12  C   UNL     1       8.236  23.014  53.664  1.00  0.00     0.043 A 
HETATM   13  C   UNL     1       7.378  23.445  54.675  1.00  0.00     0.004 A 
HETATM   14  C   UNL     1       9.168  21.984  53.843  1.00  0.00     0.030 A 
HETATM   15  C   UNL     1       7.497  22.839  55.947  1.00  0.00     0.014 A 
HETATM   16  C   UNL     1       8.423  21.808  56.144  1.00  0.00     0.001 A 
HETATM   17  C   UNL     1       9.241  21.383  55.102  1.00  0.00     0.002 A 
ENDBRANCH   6   7
ENDBRANCH   1   5
BRANCH   2  18
HETATM   18  C   UNL     1       8.428  28.704  55.649  1.00  0.00     0.197 C 
BRANCH  18  19
HETATM   19  N   UNL     1       8.754  28.493  57.062  1.00  0.00    -0.283 NA
HETATM   20  H   UNL     1       8.233  27.712  57.470  1.00  0.00     0.128 HD
BRANCH  19  21
HETATM   21  C   UNL     1       8.798  29.616  57.903  1.00  0.00     0.030 A 
HETATM   22  C   UNL     1       9.973  30.387  58.029  1.00  0.00     0.055 A 
HETATM   23 CL   UNL     1      11.430  29.911  57.227  1.00  0.00    -0.082 Cl
HETATM   24  C   UNL     1      10.007  31.536  58.827  1.00  0.00     0.026 A 
HETATM   25  C   UNL     1       8.860  31.953  59.499  1.00  0.00     0.002 A 
HETATM   26  C   UNL     1       7.681  31.225  59.364  1.00  0.00     0.002 A 
HETATM   27  C   UNL     1       7.650  30.076  58.569  1.00  0.00     0.025 A 
ENDBRANCH  19  21
ENDBRANCH  18  19
ENDBRANCH   2  18
TORSDOF 5
ENDMDL
MODEL 6
REMARK VINA RESULT:      -7.7      2.849      4.649
REMARK  5 active torsions:
REMARK  status: ('A' for Active; 'I' for Inactive)
REMARK    1  A    between atoms: C_7  and  C_8 
REMARK    2  A    between atoms: N_9  and  N_10 
REMARK       I    between atoms: N_10  and  C_11 
REMARK    3  A    between atoms: C_11  and  C_12 
REMARK    4  A    between atoms: C_12  and  N_13 
REMARK    5  A    between atoms: N_13  and  C_14 
ROOT
HETATM    1  N   UNL     1       3.982  27.596  53.461  1.00  0.00    -0.246 N 
HETATM    2  C   UNL     1       4.666  26.842  52.498  1.00  0.00     0.250 C 
HETATM    3  O   UNL     1       5.093  27.278  51.430  1.00  0.00    -0.270 OA
HETATM    4  H   UNL     1       3.223  27.119  53.936  1.00  0.00     0.192 HD
ENDROOT
BRANCH   1   5
HETATM    5  N   UNL     1       3.746  28.934  53.274  1.00  0.00    -0.184 NA
HETATM    6  C   UNL     1       4.228  29.777  54.145  1.00  0.00     0.153 C 
BRANCH   6   7
HETATM    7  C   UNL     1       4.815  29.461  55.439  1.00  0.00     0.018 A 
HETATM    8  C   UNL     1       4.172  29.686  56.649  1.00  0.00     0.018 A 
HETATM    9  C   UNL     1       2.837  30.268  56.944  1.00  0.00     0.069 C 
HETATM   10  N   UNL     1       5.035  29.328  57.653  1.00  0.00    -0.358 N 
HETATM   11  H   UNL     1       4.848  29.423  58.642  1.00  0.00     0.166 HD
HETATM   12  C   UNL     1       6.195  28.808  57.134  1.00  0.00     0.043 A 
HETATM   13  C   UNL     1       6.076  28.844  55.745  1.00  0.00     0.004 A 
HETATM   14  C   UNL     1       7.327  28.308  57.789  1.00  0.00     0.030 A 
HETATM   15  C   UNL     1       7.132  28.304  54.976  1.00  0.00     0.014 A 
HETATM   16  C   UNL     1       8.272  27.800  55.613  1.00  0.00     0.001 A 
HETATM   17  C   UNL     1       8.368  27.810  57.001  1.00  0.00     0.002 A 
ENDBRANCH   6   7
ENDBRANCH   1   5
BRANCH   2  18
HETATM   18  C   UNL     1       4.824  25.380  52.941  1.00  0.00     0.197 C 
BRANCH  18  19
HETATM   19  N   UNL     1       4.916  25.258  54.398  1.00  0.00    -0.283 NA
HETATM   20  H   UNL     1       4.546  26.080  54.882  1.00  0.00     0.128 HD
BRANCH  19  21
HETATM   21  C   UNL     1       6.126  24.802  54.946  1.00  0.00     0.030 A 
HETATM   22  C   UNL     1       6.324  24.762  56.341  1.00  0.00     0.055 A 
HETATM   23 CL   UNL     1       5.116  25.369  57.422  1.00  0.00    -0.082 Cl
HETATM   24  C   UNL     1       7.509  24.263  56.894  1.00  0.00     0.026 A 
HETATM   25  C   UNL     1       8.512  23.771  56.063  1.00  0.00     0.002 A 
HETATM   26  C   UNL     1       8.326  23.772  54.683  1.00  0.00     0.002 A 
HETATM   27  C   UNL     1       7.142  24.274  54.134  1.00  0.00     0.025 A 
ENDBRANCH  19  21
ENDBRANCH  18  19
ENDBRANCH   2  18
TORSDOF 5
ENDMDL
MODEL 7
REMARK VINA RESULT:      -7.5      5.613      8.534
REMARK  5 active torsions:
REMARK  status: ('A' for Active; 'I' for Inactive)
REMARK    1  A    between atoms: C_7  and  C_8 
REMARK    2  A    between atoms: N_9  and  N_10 
REMARK       I    between atoms: N_10  and  C_11 
REMARK    3  A    between atoms: C_11  and  C_12 
REMARK    4  A    between atoms: C_12  and  N_13 
REMARK    5  A    between atoms: N_13  and  C_14 
ROOT
HETATM    1  N   UNL     1       9.153  29.865  58.294  1.00  0.00    -0.246 N 
HETATM    2  C   UNL     1       9.335  30.994  59.104  1.00  0.00     0.250 C 
HETATM    3  O   UNL     1       9.694  32.101  58.705  1.00  0.00    -0.270 OA
HETATM    4  H   UNL     1       9.438  28.980  58.702  1.00  0.00     0.192 HD
ENDROOT
BRANCH   1   5
HETATM    5  N   UNL     1       9.357  29.927  56.940  1.00  0.00    -0.184 NA
HETATM    6  C   UNL     1       8.404  29.519  56.149  1.00  0.00     0.153 C 
BRANCH   6   7
HETATM    7  C   UNL     1       7.203  28.787  56.527  1.00  0.00     0.018 A 
HETATM    8  C   UNL     1       6.072  29.392  57.059  1.00  0.00     0.018 A 
HETATM    9  C   UNL     1       5.791  30.817  57.375  1.00  0.00     0.069 C 
HETATM   10  N   UNL     1       5.167  28.403  57.349  1.00  0.00    -0.358 N 
HETATM   11  H   UNL     1       4.267  28.548  57.786  1.00  0.00     0.166 HD
HETATM   12  C   UNL     1       5.646  27.177  56.956  1.00  0.00     0.043 A 
HETATM   13  C   UNL     1       6.909  27.387  56.404  1.00  0.00     0.004 A 
HETATM   14  C   UNL     1       5.053  25.911  57.045  1.00  0.00     0.030 A 
HETATM   15  C   UNL     1       7.590  26.271  55.868  1.00  0.00     0.014 A 
HETATM   16  C   UNL     1       7.014  24.997  55.948  1.00  0.00     0.001 A 
HETATM   17  C   UNL     1       5.765  24.823  56.536  1.00  0.00     0.002 A 
ENDBRANCH   6   7
ENDBRANCH   1   5
BRANCH   2  18
HETATM   18  C   UNL     1       9.028  30.683  60.576  1.00  0.00     0.197 C 
BRANCH  18  19
HETATM   19  N   UNL     1       7.625  30.943  60.909  1.00  0.00    -0.283 NA
HETATM   20  H   UNL     1       7.038  31.038  60.076  1.00  0.00     0.128 HD
BRANCH  19  21
HETATM   21  C   UNL     1       7.349  31.916  61.883  1.00  0.00     0.030 A 
HETATM   22  C   UNL     1       6.185  32.709  61.810  1.00  0.00     0.055 A 
HETATM   23 CL   UNL     1       5.110  32.577  60.460  1.00  0.00    -0.082 Cl
HETATM   24  C   UNL     1       5.879  33.645  62.804  1.00  0.00     0.026 A 
HETATM   25  C   UNL     1       6.719  33.792  63.905  1.00  0.00     0.002 A 
HETATM   26  C   UNL     1       7.858  32.998  64.014  1.00  0.00     0.002 A 
HETATM   27  C   UNL     1       8.162  32.065  63.017  1.00  0.00     0.025 A 
ENDBRANCH  19  21
ENDBRANCH  18  19
ENDBRANCH   2  18
TORSDOF 5
ENDMDL
MODEL 8
REMARK VINA RESULT:      -7.4      3.455      5.829
REMARK  5 active torsions:
REMARK  status: ('A' for Active; 'I' for Inactive)
REMARK    1  A    between atoms: C_7  and  C_8 
REMARK    2  A    between atoms: N_9  and  N_10 
REMARK       I    between atoms: N_10  and  C_11 
REMARK    3  A    between atoms: C_11  and  C_12 
REMARK    4  A    between atoms: C_12  and  N_13 
REMARK    5  A    between atoms: N_13  and  C_14 
ROOT
HETATM    1  N   UNL     1       5.696  27.185  57.095  1.00  0.00    -0.246 N 
HETATM    2  C   UNL     1       5.242  28.202  56.243  1.00  0.00     0.250 C 
HETATM    3  O   UNL     1       4.187  28.177  55.612  1.00  0.00    -0.270 OA
HETATM    4  H   UNL     1       6.695  27.010  57.077  1.00  0.00     0.192 HD
ENDROOT
BRANCH   1   5
HETATM    5  N   UNL     1       4.952  26.051  57.300  1.00  0.00    -0.184 NA
HETATM    6  C   UNL     1       5.304  24.958  56.682  1.00  0.00     0.153 C 
BRANCH   6   7
HETATM    7  C   UNL     1       6.278  24.833  55.607  1.00  0.00     0.018 A 
HETATM    8  C   UNL     1       7.577  24.382  55.798  1.00  0.00     0.018 A 
HETATM    9  C   UNL     1       8.283  23.950  57.033  1.00  0.00     0.069 C 
HETATM   10  N   UNL     1       8.225  24.448  54.591  1.00  0.00    -0.358 N 
HETATM   11  H   UNL     1       9.198  24.220  54.439  1.00  0.00     0.166 HD
HETATM   12  C   UNL     1       7.366  24.862  53.602  1.00  0.00     0.043 A 
HETATM   13  C   UNL     1       6.125  25.079  54.200  1.00  0.00     0.004 A 
HETATM   14  C   UNL     1       7.596  25.052  52.234  1.00  0.00     0.030 A 
HETATM   15  C   UNL     1       5.047  25.460  53.369  1.00  0.00     0.014 A 
HETATM   16  C   UNL     1       5.258  25.655  51.999  1.00  0.00     0.001 A 
HETATM   17  C   UNL     1       6.519  25.460  51.443  1.00  0.00     0.002 A 
ENDBRANCH   6   7
ENDBRANCH   1   5
BRANCH   2  18
HETATM   18  C   UNL     1       6.234  29.372  56.191  1.00  0.00     0.197 C 
BRANCH  18  19
HETATM   19  N   UNL     1       6.918  29.566  57.472  1.00  0.00    -0.283 NA
HETATM   20  H   UNL     1       6.385  30.160  58.112  1.00  0.00     0.128 HD
BRANCH  19  21
HETATM   21  C   UNL     1       8.286  29.885  57.446  1.00  0.00     0.030 A 
HETATM   22  C   UNL     1       8.821  30.863  58.310  1.00  0.00     0.055 A 
HETATM   23 CL   UNL     1       7.790  31.775  59.359  1.00  0.00    -0.082 Cl
HETATM   24  C   UNL     1      10.191  31.150  58.323  1.00  0.00     0.026 A 
HETATM   25  C   UNL     1      11.059  30.447  57.491  1.00  0.00     0.002 A 
HETATM   26  C   UNL     1      10.556  29.455  56.652  1.00  0.00     0.002 A 
HETATM   27  C   UNL     1       9.187  29.174  56.638  1.00  0.00     0.025 A 
ENDBRANCH  19  21
ENDBRANCH  18  19
ENDBRANCH   2  18
TORSDOF 5
ENDMDL
MODEL 9
REMARK VINA RESULT:      -7.3      2.543      4.527
REMARK  5 active torsions:
REMARK  status: ('A' for Active; 'I' for Inactive)
REMARK    1  A    between atoms: C_7  and  C_8 
REMARK    2  A    between atoms: N_9  and  N_10 
REMARK       I    between atoms: N_10  and  C_11 
REMARK    3  A    between atoms: C_11  and  C_12 
REMARK    4  A    between atoms: C_12  and  N_13 
REMARK    5  A    between atoms: N_13  and  C_14 
ROOT
HETATM    1  N   UNL     1       6.732  26.541  53.805  1.00  0.00    -0.246 N 
HETATM    2  C   UNL     1       7.288  25.562  52.969  1.00  0.00     0.250 C 
HETATM    3  O   UNL     1       7.189  25.539  51.744  1.00  0.00    -0.270 OA
HETATM    4  H   UNL     1       6.362  26.206  54.688  1.00  0.00     0.192 HD
ENDROOT
BRANCH   1   5
HETATM    5  N   UNL     1       6.022  27.593  53.285  1.00  0.00    -0.184 NA
HETATM    6  C   UNL     1       5.932  28.688  53.988  1.00  0.00     0.153 C 
BRANCH   6   7
HETATM    7  C   UNL     1       6.315  28.870  55.381  1.00  0.00     0.018 A 
HETATM    8  C   UNL     1       5.420  28.785  56.439  1.00  0.00     0.018 A 
HETATM    9  C   UNL     1       3.958  28.522  56.455  1.00  0.00     0.069 C 
HETATM   10  N   UNL     1       6.109  29.065  57.592  1.00  0.00    -0.358 N 
HETATM   11  H   UNL     1       5.701  29.117  58.516  1.00  0.00     0.166 HD
HETATM   12  C   UNL     1       7.442  29.261  57.325  1.00  0.00     0.043 A 
HETATM   13  C   UNL     1       7.612  29.111  55.949  1.00  0.00     0.004 A 
HETATM   14  C   UNL     1       8.499  29.552  58.196  1.00  0.00     0.030 A 
HETATM   15  C   UNL     1       8.922  29.210  55.429  1.00  0.00     0.014 A 
HETATM   16  C   UNL     1       9.992  29.501  56.284  1.00  0.00     0.001 A 
HETATM   17  C   UNL     1       9.778  29.676  57.648  1.00  0.00     0.002 A 
ENDBRANCH   6   7
ENDBRANCH   1   5
BRANCH   2  18
HETATM   18  C   UNL     1       8.049  24.502  53.778  1.00  0.00     0.197 C 
BRANCH  18  19
HETATM   19  N   UNL     1       7.359  23.210  53.771  1.00  0.00    -0.283 NA
HETATM   20  H   UNL     1       6.341  23.311  53.746  1.00  0.00     0.128 HD
BRANCH  19  21
HETATM   21  C   UNL     1       7.785  22.231  54.684  1.00  0.00     0.030 A 
HETATM   22  C   UNL     1       8.212  20.961  54.243  1.00  0.00     0.055 A 
HETATM   23 CL   UNL     1       8.128  20.534  52.567  1.00  0.00    -0.082 Cl
HETATM   24  C   UNL     1       8.684  19.999  55.143  1.00  0.00     0.026 A 
HETATM   25  C   UNL     1       8.763  20.295  56.501  1.00  0.00     0.002 A 
HETATM   26  C   UNL     1       8.376  21.553  56.956  1.00  0.00     0.002 A 
HETATM   27  C   UNL     1       7.901  22.511  56.054  1.00  0.00     0.025 A 
ENDBRANCH  19  21
ENDBRANCH  18  19
ENDBRANCH   2  18
TORSDOF 5
ENDMDL
MODEL 10
REMARK VINA RESULT:      -7.3      3.778      6.165
REMARK  5 active torsions:
REMARK  status: ('A' for Active; 'I' for Inactive)
REMARK    1  A    between atoms: C_7  and  C_8 
REMARK    2  A    between atoms: N_9  and  N_10 
REMARK       I    between atoms: N_10  and  C_11 
REMARK    3  A    between atoms: C_11  and  C_12 
REMARK    4  A    between atoms: C_12  and  N_13 
REMARK    5  A    between atoms: N_13  and  C_14 
ROOT
HETATM    1  N   UNL     1       8.517  27.884  57.351  1.00  0.00    -0.246 N 
HETATM    2  C   UNL     1       7.635  27.125  56.569  1.00  0.00     0.250 C 
HETATM    3  O   UNL     1       7.453  27.274  55.362  1.00  0.00    -0.270 OA
HETATM    4  H   UNL     1       8.195  28.105  58.288  1.00  0.00     0.192 HD
ENDROOT
BRANCH   1   5
HETATM    5  N   UNL     1       9.280  28.877  56.793  1.00  0.00    -0.184 NA
HETATM    6  C   UNL     1       9.218  30.073  57.310  1.00  0.00     0.153 C 
BRANCH   6   7
HETATM    7  C   UNL     1       8.258  30.554  58.293  1.00  0.00     0.018 A 
HETATM    8  C   UNL     1       6.902  30.698  58.034  1.00  0.00     0.018 A 
HETATM    9  C   UNL     1       6.118  30.441  56.798  1.00  0.00     0.069 C 
HETATM   10  N   UNL     1       6.315  31.225  59.156  1.00  0.00    -0.358 N 
HETATM   11  H   UNL     1       5.339  31.474  59.240  1.00  0.00     0.166 HD
HETATM   12  C   UNL     1       7.236  31.361  60.166  1.00  0.00     0.043 A 
HETATM   13  C   UNL     1       8.461  30.916  59.668  1.00  0.00     0.004 A 
HETATM   14  C   UNL     1       7.072  31.838  61.473  1.00  0.00     0.030 A 
HETATM   15  C   UNL     1       9.567  30.904  60.548  1.00  0.00     0.014 A 
HETATM   16  C   UNL     1       9.422  31.375  61.858  1.00  0.00     0.001 A 
HETATM   17  C   UNL     1       8.191  31.843  62.308  1.00  0.00     0.002 A 
ENDBRANCH   6   7
ENDBRANCH   1   5
BRANCH   2  18
HETATM   18  C   UNL     1       6.909  26.067  57.411  1.00  0.00     0.197 C 
BRANCH  18  19
HETATM   19  N   UNL     1       6.196  25.098  56.575  1.00  0.00    -0.283 NA
HETATM   20  H   UNL     1       5.405  24.670  57.064  1.00  0.00     0.128 HD
BRANCH  19  21
HETATM   21  C   UNL     1       6.957  24.165  55.852  1.00  0.00     0.030 A 
HETATM   22  C   UNL     1       6.760  23.981  54.467  1.00  0.00     0.055 A 
HETATM   23 CL   UNL     1       5.501  24.829  53.635  1.00  0.00    -0.082 Cl
HETATM   24  C   UNL     1       7.549  23.090  53.732  1.00  0.00     0.026 A 
HETATM   25  C   UNL     1       8.569  22.380  54.361  1.00  0.00     0.002 A 
HETATM   26  C   UNL     1       8.802  22.569  55.721  1.00  0.00     0.002 A 
HETATM   27  C   UNL     1       8.010  23.458  56.454  1.00  0.00     0.025 A 
ENDBRANCH  19  21
ENDBRANCH  18  19
ENDBRANCH   2  18
TORSDOF 5
ENDMDL
