MODEL 1
REMARK VINA RESULT:     -10.6      0.000      0.000
REMARK  5 active torsions:
REMARK  status: ('A' for Active; 'I' for Inactive)
REMARK    1  A    between atoms: C_2  and  C_3 
REMARK    2  A    between atoms: C_6  and  C_7 
REMARK    3  A    between atoms: C_11  and  C_12 
REMARK       I    between atoms: C_12  and  N_13 
REMARK    4  A    between atoms: N_13  and  N_14 
REMARK    5  A    between atoms: C_15  and  C_16 
ROOT
HETATM    1  C   UNL     1       9.218  29.201  57.134  1.00  0.00     0.289 C 
HETATM    2  N   UNL     1       8.057  28.521  56.789  1.00  0.00    -0.242 N 
HETATM    3  O   UNL     1      10.321  29.006  56.634  1.00  0.00    -0.264 OA
HETATM    4  H   UNL     1       7.170  28.892  57.110  1.00  0.00     0.192 HD
ENDROOT
BRANCH   1   5
HETATM    5  C   UNL     1       9.041  30.205  58.156  1.00  0.00     0.121 A 
HETATM    6  N   UNL     1       9.862  31.294  58.228  1.00  0.00    -0.272 N 
HETATM    7  N   UNL     1       9.594  32.121  59.247  1.00  0.00    -0.174 NA
HETATM    8  H   UNL     1      10.634  31.516  57.605  1.00  0.00     0.189 HD
HETATM    9  C   UNL     1       8.541  31.568  59.868  1.00  0.00     0.089 A 
HETATM   10  C   UNL     1       8.165  30.360  59.212  1.00  0.00     0.071 A 
BRANCH   9  11
HETATM   11  C   UNL     1       7.938  32.181  61.056  1.00  0.00    -0.006 A 
HETATM   12  C   UNL     1       6.715  32.862  60.980  1.00  0.00     0.014 A 
HETATM   13  C   UNL     1       6.148  33.439  62.122  1.00  0.00     0.008 A 
HETATM   14  C   UNL     1       6.793  33.351  63.360  1.00  0.00    -0.059 A 
HETATM   15  C   UNL     1       8.012  32.669  63.442  1.00  0.00     0.008 A 
HETATM   16  C   UNL     1       8.579  32.095  62.300  1.00  0.00     0.014 A 
BRANCH  14  17
HETATM   17  C   UNL     1       6.176  33.962  64.593  1.00  0.00     0.034 C 
HETATM   18  C   UNL     1       7.055  33.769  65.821  1.00  0.00     0.010 C 
ENDBRANCH  14  17
ENDBRANCH   9  11
ENDBRANCH   1   5
BRANCH   2  19
HETATM   19  N   UNL     1       7.914  27.557  55.821  1.00  0.00    -0.183 NA
HETATM   20  C   UNL     1       6.932  26.715  55.897  1.00  0.00     0.153 C 
BRANCH  20  21
HETATM   21  C   UNL     1       6.783  25.678  54.888  1.00  0.00     0.018 A 
HETATM   22  C   UNL     1       7.545  24.461  54.821  1.00  0.00     0.004 A 
HETATM   23  C   UNL     1       7.084  23.737  53.724  1.00  0.00     0.043 A 
HETATM   24  C   UNL     1       8.587  23.908  55.597  1.00  0.00     0.014 A 
HETATM   25  C   UNL     1       7.603  22.487  53.365  1.00  0.00     0.030 A 
HETATM   26  N   UNL     1       6.090  24.481  53.138  1.00  0.00    -0.358 N 
HETATM   27  C   UNL     1       8.631  21.961  54.150  1.00  0.00     0.002 A 
HETATM   28  C   UNL     1       9.120  22.660  55.250  1.00  0.00     0.001 A 
HETATM   29  H   UNL     1       5.577  24.195  52.315  1.00  0.00     0.166 HD
HETATM   30  C   UNL     1       5.893  25.656  53.821  1.00  0.00     0.018 A 
HETATM   31  C   UNL     1       4.865  26.635  53.379  1.00  0.00     0.069 C 
ENDBRANCH  20  21
ENDBRANCH   2  19
TORSDOF 5
ENDMDL
MODEL 2
REMARK VINA RESULT:     -10.4      1.709      2.265
REMARK  5 active torsions:
REMARK  status: ('A' for Active; 'I' for Inactive)
REMARK    1  A    between atoms: C_2  and  C_3 
REMARK    2  A    between atoms: C_6  and  C_7 
REMARK    3  A    between atoms: C_11  and  C_12 
REMARK       I    between atoms: C_12  and  N_13 
REMARK    4  A    between atoms: N_13  and  N_14 
REMARK    5  A    between atoms: C_15  and  C_16 
ROOT
HETATM    1  C   UNL     1       7.627  28.444  56.094  1.00  0.00     0.289 C 
HETATM    2  N   UNL     1       7.016  27.215  56.307  1.00  0.00    -0.242 N 
HETATM    3  O   UNL     1       8.301  28.732  55.109  1.00  0.00    -0.264 OA
HETATM    4  H   UNL     1       6.323  27.144  57.043  1.00  0.00     0.192 HD
ENDROOT
BRANCH   1   5
HETATM    5  C   UNL     1       7.403  29.412  57.141  1.00  0.00     0.121 A 
HETATM    6  N   UNL     1       6.605  30.502  56.938  1.00  0.00    -0.272 N 
HETATM    7  N   UNL     1       6.519  31.326  57.991  1.00  0.00    -0.174 NA
HETATM    8  H   UNL     1       6.100  30.736  56.088  1.00  0.00     0.189 HD
HETATM    9  C   UNL     1       7.277  30.752  58.938  1.00  0.00     0.089 A 
HETATM   10  C   UNL     1       7.852  29.546  58.440  1.00  0.00     0.071 A 
BRANCH   9  11
HETATM   11  C   UNL     1       7.445  31.357  60.262  1.00  0.00    -0.006 A 
HETATM   12  C   UNL     1       8.560  31.064  61.059  1.00  0.00     0.014 A 
HETATM   13  C   UNL     1       8.710  31.653  62.320  1.00  0.00     0.008 A 
HETATM   14  C   UNL     1       7.748  32.543  62.810  1.00  0.00    -0.059 A 
HETATM   15  C   UNL     1       6.637  32.843  62.016  1.00  0.00     0.008 A 
HETATM   16  C   UNL     1       6.486  32.252  60.758  1.00  0.00     0.014 A 
BRANCH  14  17
HETATM   17  C   UNL     1       7.917  33.188  64.163  1.00  0.00     0.034 C 
HETATM   18  C   UNL     1       6.577  33.539  64.793  1.00  0.00     0.010 C 
ENDBRANCH  14  17
ENDBRANCH   9  11
ENDBRANCH   1   5
BRANCH   2  19
HETATM   19  N   UNL     1       7.014  26.129  55.465  1.00  0.00    -0.183 NA
HETATM   20  C   UNL     1       7.971  25.259  55.542  1.00  0.00     0.153 C 
BRANCH  20  21
HETATM   21  C   UNL     1       7.988  24.116  54.641  1.00  0.00     0.018 A 
HETATM   22  C   UNL     1       8.116  22.742  55.038  1.00  0.00     0.004 A 
HETATM   23  C   UNL     1       8.069  21.965  53.883  1.00  0.00     0.043 A 
HETATM   24  C   UNL     1       8.266  22.084  56.279  1.00  0.00     0.014 A 
HETATM   25  C   UNL     1       8.157  20.567  53.901  1.00  0.00     0.030 A 
HETATM   26  N   UNL     1       7.928  22.826  52.823  1.00  0.00    -0.358 N 
HETATM   27  C   UNL     1       8.302  19.943  55.141  1.00  0.00     0.002 A 
HETATM   28  C   UNL     1       8.358  20.687  56.316  1.00  0.00     0.001 A 
HETATM   29  H   UNL     1       7.869  22.533  51.857  1.00  0.00     0.166 HD
HETATM   30  C   UNL     1       7.879  24.128  53.256  1.00  0.00     0.018 A 
HETATM   31  C   UNL     1       7.729  25.251  52.291  1.00  0.00     0.069 C 
ENDBRANCH  20  21
ENDBRANCH   2  19
TORSDOF 5
ENDMDL
MODEL 3
REMARK VINA RESULT:     -10.0      1.995     10.747
REMARK  5 active torsions:
REMARK  status: ('A' for Active; 'I' for Inactive)
REMARK    1  A    between atoms: C_2  and  C_3 
REMARK    2  A    between atoms: C_6  and  C_7 
REMARK    3  A    between atoms: C_11  and  C_12 
REMARK       I    between atoms: C_12  and  N_13 
REMARK    4  A    between atoms: N_13  and  N_14 
REMARK    5  A    between atoms: C_15  and  C_16 
ROOT
HETATM    1  C   UNL     1       7.714  29.833  58.141  1.00  0.00     0.289 C 
HETATM    2  N   UNL     1       6.978  31.001  57.989  1.00  0.00    -0.242 N 
HETATM    3  O   UNL     1       8.390  29.551  59.126  1.00  0.00    -0.264 OA
HETATM    4  H   UNL     1       6.301  31.047  57.236  1.00  0.00     0.192 HD
ENDROOT
BRANCH   1   5
HETATM    5  C   UNL     1       7.627  28.922  57.024  1.00  0.00     0.121 A 
HETATM    6  N   UNL     1       7.216  29.349  55.793  1.00  0.00    -0.272 N 
HETATM    7  N   UNL     1       7.156  28.384  54.866  1.00  0.00    -0.174 NA
HETATM    8  H   UNL     1       6.955  30.296  55.534  1.00  0.00     0.189 HD
HETATM    9  C   UNL     1       7.559  27.273  55.503  1.00  0.00     0.089 A 
HETATM   10  C   UNL     1       7.862  27.571  56.863  1.00  0.00     0.071 A 
BRANCH   9  11
HETATM   11  C   UNL     1       7.631  25.978  54.819  1.00  0.00    -0.006 A 
HETATM   12  C   UNL     1       7.650  25.895  53.420  1.00  0.00     0.014 A 
HETATM   13  C   UNL     1       7.724  24.652  52.781  1.00  0.00     0.008 A 
HETATM   14  C   UNL     1       7.777  23.469  53.526  1.00  0.00    -0.059 A 
HETATM   15  C   UNL     1       7.764  23.547  54.922  1.00  0.00     0.008 A 
HETATM   16  C   UNL     1       7.687  24.789  55.561  1.00  0.00     0.014 A 
BRANCH  14  17
HETATM   17  C   UNL     1       7.871  22.131  52.837  1.00  0.00     0.034 C 
HETATM   18  C   UNL     1       7.880  20.981  53.833  1.00  0.00     0.010 C 
ENDBRANCH  14  17
ENDBRANCH   9  11
ENDBRANCH   1   5
BRANCH   2  19
HETATM   19  N   UNL     1       6.834  32.018  58.901  1.00  0.00    -0.183 NA
HETATM   20  C   UNL     1       5.838  31.996  59.730  1.00  0.00     0.153 C 
BRANCH  20  21
HETATM   21  C   UNL     1       5.666  33.078  60.688  1.00  0.00     0.018 A 
HETATM   22  C   UNL     1       6.341  33.191  61.951  1.00  0.00     0.004 A 
HETATM   23  C   UNL     1       5.913  34.373  62.551  1.00  0.00     0.043 A 
HETATM   24  C   UNL     1       7.281  32.394  62.640  1.00  0.00     0.014 A 
HETATM   25  C   UNL     1       6.378  34.805  63.799  1.00  0.00     0.030 A 
HETATM   26  N   UNL     1       5.007  34.953  61.698  1.00  0.00    -0.358 N 
HETATM   27  C   UNL     1       7.310  33.999  64.458  1.00  0.00     0.002 A 
HETATM   28  C   UNL     1       7.756  32.809  63.891  1.00  0.00     0.001 A 
HETATM   29  H   UNL     1       4.532  35.827  61.883  1.00  0.00     0.166 HD
HETATM   30  C   UNL     1       4.842  34.190  60.569  1.00  0.00     0.018 A 
HETATM   31  C   UNL     1       3.908  34.611  59.491  1.00  0.00     0.069 C 
ENDBRANCH  20  21
ENDBRANCH   2  19
TORSDOF 5
ENDMDL
MODEL 4
REMARK VINA RESULT:     -10.0      1.596      2.334
REMARK  5 active torsions:
REMARK  status: ('A' for Active; 'I' for Inactive)
REMARK    1  A    between atoms: C_2  and  C_3 
REMARK    2  A    between atoms: C_6  and  C_7 
REMARK    3  A    between atoms: C_11  and  C_12 
REMARK       I    between atoms: C_12  and  N_13 
REMARK    4  A    between atoms: N_13  and  N_14 
REMARK    5  A    between atoms: C_15  and  C_16 
ROOT
HETATM    1  C   UNL     1       8.259  30.155  58.857  1.00  0.00     0.289 C 
HETATM    2  N   UNL     1       7.422  29.087  58.560  1.00  0.00    -0.242 N 
HETATM    3  O   UNL     1       9.065  30.654  58.078  1.00  0.00    -0.264 OA
HETATM    4  H   UNL     1       6.660  28.883  59.195  1.00  0.00     0.192 HD
ENDROOT
BRANCH   1   5
HETATM    5  C   UNL     1       8.112  30.674  60.196  1.00  0.00     0.121 A 
HETATM    6  N   UNL     1       8.935  30.268  61.207  1.00  0.00    -0.272 N 
HETATM    7  N   UNL     1       8.657  30.813  62.398  1.00  0.00    -0.174 NA
HETATM    8  H   UNL     1       9.704  29.606  61.137  1.00  0.00     0.189 HD
HETATM    9  C   UNL     1       7.616  31.628  62.166  1.00  0.00     0.089 A 
HETATM   10  C   UNL     1       7.243  31.567  60.792  1.00  0.00     0.071 A 
BRANCH   9  11
HETATM   11  C   UNL     1       7.004  32.420  63.238  1.00  0.00    -0.006 A 
HETATM   12  C   UNL     1       7.791  33.084  64.190  1.00  0.00     0.014 A 
HETATM   13  C   UNL     1       7.194  33.841  65.205  1.00  0.00     0.008 A 
HETATM   14  C   UNL     1       5.802  33.946  65.292  1.00  0.00    -0.059 A 
HETATM   15  C   UNL     1       5.013  33.289  64.341  1.00  0.00     0.008 A 
HETATM   16  C   UNL     1       5.610  32.531  63.329  1.00  0.00     0.014 A 
BRANCH  14  17
HETATM   17  C   UNL     1       5.160  34.771  66.377  1.00  0.00     0.034 C 
HETATM   18  C   UNL     1       4.083  35.694  65.825  1.00  0.00     0.010 C 
ENDBRANCH  14  17
ENDBRANCH   9  11
ENDBRANCH   1   5
BRANCH   2  19
HETATM   19  N   UNL     1       7.308  28.429  57.359  1.00  0.00    -0.183 NA
HETATM   20  C   UNL     1       6.675  27.299  57.307  1.00  0.00     0.153 C 
BRANCH  20  21
HETATM   21  C   UNL     1       6.565  26.585  56.044  1.00  0.00     0.018 A 
HETATM   22  C   UNL     1       7.294  25.400  55.688  1.00  0.00     0.004 A 
HETATM   23  C   UNL     1       6.888  25.025  54.410  1.00  0.00     0.043 A 
HETATM   24  C   UNL     1       8.265  24.608  56.339  1.00  0.00     0.014 A 
HETATM   25  C   UNL     1       7.393  23.898  53.750  1.00  0.00     0.030 A 
HETATM   26  N   UNL     1       5.957  25.946  53.996  1.00  0.00    -0.358 N 
HETATM   27  C   UNL     1       8.350  23.130  54.418  1.00  0.00     0.002 A 
HETATM   28  C   UNL     1       8.784  23.478  55.693  1.00  0.00     0.001 A 
HETATM   29  H   UNL     1       5.493  25.920  53.098  1.00  0.00     0.166 HD
HETATM   30  C   UNL     1       5.748  26.897  54.964  1.00  0.00     0.018 A 
HETATM   31  C   UNL     1       4.781  28.006  54.751  1.00  0.00     0.069 C 
ENDBRANCH  20  21
ENDBRANCH   2  19
TORSDOF 5
ENDMDL
MODEL 5
REMARK VINA RESULT:      -9.8      2.244     10.731
REMARK  5 active torsions:
REMARK  status: ('A' for Active; 'I' for Inactive)
REMARK    1  A    between atoms: C_2  and  C_3 
REMARK    2  A    between atoms: C_6  and  C_7 
REMARK    3  A    between atoms: C_11  and  C_12 
REMARK       I    between atoms: C_12  and  N_13 
REMARK    4  A    between atoms: N_13  and  N_14 
REMARK    5  A    between atoms: C_15  and  C_16 
ROOT
HETATM    1  C   UNL     1       6.002  29.860  56.319  1.00  0.00     0.289 C 
HETATM    2  N   UNL     1       6.134  29.785  57.699  1.00  0.00    -0.242 N 
HETATM    3  O   UNL     1       5.446  30.773  55.714  1.00  0.00    -0.264 OA
HETATM    4  H   UNL     1       6.779  29.105  58.083  1.00  0.00     0.192 HD
ENDROOT
BRANCH   1   5
HETATM    5  C   UNL     1       6.594  28.757  55.601  1.00  0.00     0.121 A 
HETATM    6  N   UNL     1       7.572  28.961  54.669  1.00  0.00    -0.272 N 
HETATM    7  N   UNL     1       8.001  27.845  54.066  1.00  0.00    -0.174 NA
HETATM    8  H   UNL     1       7.979  29.853  54.400  1.00  0.00     0.189 HD
HETATM    9  C   UNL     1       7.290  26.856  54.630  1.00  0.00     0.089 A 
HETATM   10  C   UNL     1       6.393  27.390  55.600  1.00  0.00     0.071 A 
BRANCH   9  11
HETATM   11  C   UNL     1       7.468  25.456  54.232  1.00  0.00    -0.006 A 
HETATM   12  C   UNL     1       7.394  24.419  55.172  1.00  0.00     0.014 A 
HETATM   13  C   UNL     1       7.562  23.086  54.778  1.00  0.00     0.008 A 
HETATM   14  C   UNL     1       7.809  22.764  53.439  1.00  0.00    -0.059 A 
HETATM   15  C   UNL     1       7.878  23.796  52.497  1.00  0.00     0.008 A 
HETATM   16  C   UNL     1       7.714  25.127  52.891  1.00  0.00     0.014 A 
BRANCH  14  17
HETATM   17  C   UNL     1       7.976  21.328  53.013  1.00  0.00     0.034 C 
HETATM   18  C   UNL     1       8.157  20.401  54.206  1.00  0.00     0.010 C 
ENDBRANCH  14  17
ENDBRANCH   9  11
ENDBRANCH   1   5
BRANCH   2  19
HETATM   19  N   UNL     1       5.717  30.710  58.626  1.00  0.00    -0.183 NA
HETATM   20  C   UNL     1       6.560  31.580  59.084  1.00  0.00     0.153 C 
BRANCH  20  21
HETATM   21  C   UNL     1       6.134  32.551  60.080  1.00  0.00     0.018 A 
HETATM   22  C   UNL     1       6.692  32.699  61.396  1.00  0.00     0.004 A 
HETATM   23  C   UNL     1       6.020  33.747  62.022  1.00  0.00     0.043 A 
HETATM   24  C   UNL     1       7.711  32.036  62.114  1.00  0.00     0.014 A 
HETATM   25  C   UNL     1       6.316  34.173  63.322  1.00  0.00     0.030 A 
HETATM   26  N   UNL     1       5.084  34.215  61.132  1.00  0.00    -0.358 N 
HETATM   27  C   UNL     1       7.331  33.501  64.009  1.00  0.00     0.002 A 
HETATM   28  C   UNL     1       8.019  32.446  63.417  1.00  0.00     0.001 A 
HETATM   29  H   UNL     1       4.450  34.978  61.325  1.00  0.00     0.166 HD
HETATM   30  C   UNL     1       5.134  33.508  59.956  1.00  0.00     0.018 A 
HETATM   31  C   UNL     1       4.214  33.828  58.831  1.00  0.00     0.069 C 
ENDBRANCH  20  21
ENDBRANCH   2  19
TORSDOF 5
ENDMDL
MODEL 6
REMARK VINA RESULT:      -9.5      6.603     11.520
REMARK  5 active torsions:
REMARK  status: ('A' for Active; 'I' for Inactive)
REMARK    1  A    between atoms: C_2  and  C_3 
REMARK    2  A    between atoms: C_6  and  C_7 
REMARK    3  A    between atoms: C_11  and  C_12 
REMARK       I    between atoms: C_12  and  N_13 
REMARK    4  A    between atoms: N_13  and  N_14 
REMARK    5  A    between atoms: C_15  and  C_16 
ROOT
HETATM    1  C   UNL     1       5.717  27.182  51.011  1.00  0.00     0.289 C 
HETATM    2  N   UNL     1       6.184  25.873  50.990  1.00  0.00    -0.242 N 
HETATM    3  O   UNL     1       5.920  27.985  51.917  1.00  0.00    -0.264 OA
HETATM    4  H   UNL     1       6.136  25.361  50.117  1.00  0.00     0.192 HD
ENDROOT
BRANCH   1   5
HETATM    5  C   UNL     1       4.953  27.562  49.848  1.00  0.00     0.121 A 
HETATM    6  N   UNL     1       5.560  28.090  48.743  1.00  0.00    -0.272 N 
HETATM    7  N   UNL     1       4.717  28.423  47.757  1.00  0.00    -0.174 NA
HETATM    8  H   UNL     1       6.555  28.254  48.617  1.00  0.00     0.189 HD
HETATM    9  C   UNL     1       3.502  28.088  48.217  1.00  0.00     0.089 A 
HETATM   10  C   UNL     1       3.609  27.544  49.530  1.00  0.00     0.071 A 
BRANCH   9  11
HETATM   11  C   UNL     1       2.291  28.300  47.418  1.00  0.00    -0.006 A 
HETATM   12  C   UNL     1       1.461  27.229  47.059  1.00  0.00     0.014 A 
HETATM   13  C   UNL     1       0.305  27.446  46.300  1.00  0.00     0.008 A 
HETATM   14  C   UNL     1      -0.042  28.736  45.883  1.00  0.00    -0.059 A 
HETATM   15  C   UNL     1       0.780  29.808  46.244  1.00  0.00     0.008 A 
HETATM   16  C   UNL     1       1.936  29.590  46.999  1.00  0.00     0.014 A 
BRANCH  14  17
HETATM   17  C   UNL     1      -1.294  28.971  45.077  1.00  0.00     0.034 C 
HETATM   18  C   UNL     1      -2.395  29.605  45.914  1.00  0.00     0.010 C 
ENDBRANCH  14  17
ENDBRANCH   9  11
ENDBRANCH   1   5
BRANCH   2  19
HETATM   19  N   UNL     1       6.974  25.257  51.930  1.00  0.00    -0.183 NA
HETATM   20  C   UNL     1       6.422  24.693  52.957  1.00  0.00     0.153 C 
BRANCH  20  21
HETATM   21  C   UNL     1       7.251  24.054  53.968  1.00  0.00     0.018 A 
HETATM   22  C   UNL     1       7.761  22.713  53.904  1.00  0.00     0.004 A 
HETATM   23  C   UNL     1       8.519  22.496  55.053  1.00  0.00     0.043 A 
HETATM   24  C   UNL     1       7.649  21.659  52.970  1.00  0.00     0.014 A 
HETATM   25  C   UNL     1       9.176  21.287  55.315  1.00  0.00     0.030 A 
HETATM   26  N   UNL     1       8.467  23.651  55.794  1.00  0.00    -0.358 N 
HETATM   27  C   UNL     1       9.050  20.263  54.374  1.00  0.00     0.002 A 
HETATM   28  C   UNL     1       8.297  20.443  53.218  1.00  0.00     0.001 A 
HETATM   29  H   UNL     1       8.930  23.776  56.684  1.00  0.00     0.166 HD
HETATM   30  C   UNL     1       7.707  24.603  55.160  1.00  0.00     0.018 A 
HETATM   31  C   UNL     1       7.500  25.945  55.767  1.00  0.00     0.069 C 
ENDBRANCH  20  21
ENDBRANCH   2  19
TORSDOF 5
ENDMDL
MODEL 7
REMARK VINA RESULT:      -9.4      1.943      2.094
REMARK  5 active torsions:
REMARK  status: ('A' for Active; 'I' for Inactive)
REMARK    1  A    between atoms: C_2  and  C_3 
REMARK    2  A    between atoms: C_6  and  C_7 
REMARK    3  A    between atoms: C_11  and  C_12 
REMARK       I    between atoms: C_12  and  N_13 
REMARK    4  A    between atoms: N_13  and  N_14 
REMARK    5  A    between atoms: C_15  and  C_16 
ROOT
HETATM    1  C   UNL     1       5.984  29.656  55.793  1.00  0.00     0.289 C 
HETATM    2  N   UNL     1       6.906  28.617  55.790  1.00  0.00    -0.242 N 
HETATM    3  O   UNL     1       5.133  29.842  54.928  1.00  0.00    -0.264 OA
HETATM    4  H   UNL     1       7.427  28.435  56.640  1.00  0.00     0.192 HD
ENDROOT
BRANCH   1   5
HETATM    5  C   UNL     1       6.082  30.539  56.930  1.00  0.00     0.121 A 
HETATM    6  N   UNL     1       5.672  31.840  56.854  1.00  0.00    -0.272 N 
HETATM    7  N   UNL     1       5.855  32.543  57.979  1.00  0.00    -0.174 NA
HETATM    8  H   UNL     1       5.266  32.303  56.045  1.00  0.00     0.189 HD
HETATM    9  C   UNL     1       6.393  31.670  58.844  1.00  0.00     0.089 A 
HETATM   10  C   UNL     1       6.553  30.399  58.221  1.00  0.00     0.071 A 
BRANCH   9  11
HETATM   11  C   UNL     1       6.748  32.061  60.212  1.00  0.00    -0.006 A 
HETATM   12  C   UNL     1       5.778  32.535  61.106  1.00  0.00     0.014 A 
HETATM   13  C   UNL     1       6.129  32.901  62.411  1.00  0.00     0.008 A 
HETATM   14  C   UNL     1       7.455  32.803  62.847  1.00  0.00    -0.059 A 
HETATM   15  C   UNL     1       8.425  32.325  61.959  1.00  0.00     0.008 A 
HETATM   16  C   UNL     1       8.074  31.963  60.655  1.00  0.00     0.014 A 
BRANCH  14  17
HETATM   17  C   UNL     1       7.830  33.184  64.256  1.00  0.00     0.034 C 
HETATM   18  C   UNL     1       6.764  34.049  64.912  1.00  0.00     0.010 C 
ENDBRANCH  14  17
ENDBRANCH   9  11
ENDBRANCH   1   5
BRANCH   2  19
HETATM   19  N   UNL     1       7.015  27.604  54.868  1.00  0.00    -0.183 NA
HETATM   20  C   UNL     1       6.504  26.443  55.133  1.00  0.00     0.153 C 
BRANCH  20  21
HETATM   21  C   UNL     1       6.630  25.358  54.172  1.00  0.00     0.018 A 
HETATM   22  C   UNL     1       7.484  24.211  54.314  1.00  0.00     0.004 A 
HETATM   23  C   UNL     1       7.296  23.406  53.192  1.00  0.00     0.043 A 
HETATM   24  C   UNL     1       8.401  23.781  55.298  1.00  0.00     0.014 A 
HETATM   25  C   UNL     1       7.970  22.193  53.005  1.00  0.00     0.030 A 
HETATM   26  N   UNL     1       6.375  24.037  52.393  1.00  0.00    -0.358 N 
HETATM   27  C   UNL     1       8.869  21.791  53.994  1.00  0.00     0.002 A 
HETATM   28  C   UNL     1       9.086  22.572  55.125  1.00  0.00     0.001 A 
HETATM   29  H   UNL     1       6.051  23.675  51.506  1.00  0.00     0.166 HD
HETATM   30  C   UNL     1       5.961  25.216  52.962  1.00  0.00     0.018 A 
HETATM   31  C   UNL     1       4.961  26.084  52.284  1.00  0.00     0.069 C 
ENDBRANCH  20  21
ENDBRANCH   2  19
TORSDOF 5
ENDMDL
MODEL 8
REMARK VINA RESULT:      -9.4      2.159     10.873
REMARK  5 active torsions:
REMARK  status: ('A' for Active; 'I' for Inactive)
REMARK    1  A    between atoms: C_2  and  C_3 
REMARK    2  A    between atoms: C_6  and  C_7 
REMARK    3  A    between atoms: C_11  and  C_12 
REMARK       I    between atoms: C_12  and  N_13 
REMARK    4  A    between atoms: N_13  and  N_14 
REMARK    5  A    between atoms: C_15  and  C_16 
ROOT
HETATM    1  C   UNL     1       6.519  29.527  56.593  1.00  0.00     0.289 C 
HETATM    2  N   UNL     1       7.542  30.001  57.404  1.00  0.00    -0.242 N 
HETATM    3  O   UNL     1       5.374  29.968  56.577  1.00  0.00    -0.264 OA
HETATM    4  H   UNL     1       8.491  29.709  57.199  1.00  0.00     0.192 HD
ENDROOT
BRANCH   1   5
HETATM    5  C   UNL     1       6.901  28.442  55.721  1.00  0.00     0.121 A 
HETATM    6  N   UNL     1       7.421  28.681  54.480  1.00  0.00    -0.272 N 
HETATM    7  N   UNL     1       7.698  27.575  53.777  1.00  0.00    -0.174 NA
HETATM    8  H   UNL     1       7.599  29.589  54.060  1.00  0.00     0.189 HD
HETATM    9  C   UNL     1       7.365  26.560  54.589  1.00  0.00     0.089 A 
HETATM   10  C   UNL     1       6.858  27.066  55.821  1.00  0.00     0.071 A 
BRANCH   9  11
HETATM   11  C   UNL     1       7.520  25.162  54.177  1.00  0.00    -0.006 A 
HETATM   12  C   UNL     1       7.814  24.824  52.849  1.00  0.00     0.014 A 
HETATM   13  C   UNL     1       7.964  23.485  52.470  1.00  0.00     0.008 A 
HETATM   14  C   UNL     1       7.822  22.458  53.409  1.00  0.00    -0.059 A 
HETATM   15  C   UNL     1       7.534  22.791  54.737  1.00  0.00     0.008 A 
HETATM   16  C   UNL     1       7.381  24.128  55.114  1.00  0.00     0.014 A 
BRANCH  14  17
HETATM   17  C   UNL     1       7.997  21.017  53.004  1.00  0.00     0.034 C 
HETATM   18  C   UNL     1       8.708  20.208  54.080  1.00  0.00     0.010 C 
ENDBRANCH  14  17
ENDBRANCH   9  11
ENDBRANCH   1   5
BRANCH   2  19
HETATM   19  N   UNL     1       7.484  31.050  58.289  1.00  0.00    -0.183 NA
HETATM   20  C   UNL     1       7.140  30.830  59.519  1.00  0.00     0.153 C 
BRANCH  20  21
HETATM   21  C   UNL     1       7.057  31.937  60.460  1.00  0.00     0.018 A 
HETATM   22  C   UNL     1       5.944  32.836  60.595  1.00  0.00     0.004 A 
HETATM   23  C   UNL     1       6.253  33.735  61.614  1.00  0.00     0.043 A 
HETATM   24  C   UNL     1       4.698  32.968  59.944  1.00  0.00     0.014 A 
HETATM   25  C   UNL     1       5.382  34.753  62.021  1.00  0.00     0.030 A 
HETATM   26  N   UNL     1       7.504  33.407  62.075  1.00  0.00    -0.358 N 
HETATM   27  C   UNL     1       4.155  34.858  61.362  1.00  0.00     0.002 A 
HETATM   28  C   UNL     1       3.815  33.981  60.337  1.00  0.00     0.001 A 
HETATM   29  H   UNL     1       7.982  33.899  62.818  1.00  0.00     0.166 HD
HETATM   30  C   UNL     1       8.009  32.328  61.393  1.00  0.00     0.018 A 
HETATM   31  C   UNL     1       9.355  31.782  61.712  1.00  0.00     0.069 C 
ENDBRANCH  20  21
ENDBRANCH   2  19
TORSDOF 5
ENDMDL
MODEL 9
REMARK VINA RESULT:      -9.1      2.786     11.357
REMARK  5 active torsions:
REMARK  status: ('A' for Active; 'I' for Inactive)
REMARK    1  A    between atoms: C_2  and  C_3 
REMARK    2  A    between atoms: C_6  and  C_7 
REMARK    3  A    between atoms: C_11  and  C_12 
REMARK       I    between atoms: C_12  and  N_13 
REMARK    4  A    between atoms: N_13  and  N_14 
REMARK    5  A    between atoms: C_15  and  C_16 
ROOT
HETATM    1  C   UNL     1       6.320  31.526  58.462  1.00  0.00     0.289 C 
HETATM    2  N   UNL     1       6.333  31.617  59.848  1.00  0.00    -0.242 N 
HETATM    3  O   UNL     1       5.990  32.431  57.701  1.00  0.00    -0.264 OA
HETATM    4  H   UNL     1       6.809  30.893  60.372  1.00  0.00     0.192 HD
ENDROOT
BRANCH   1   5
HETATM    5  C   UNL     1       6.748  30.249  57.943  1.00  0.00     0.121 A 
HETATM    6  N   UNL     1       7.536  29.412  58.683  1.00  0.00    -0.272 N 
HETATM    7  N   UNL     1       7.877  28.279  58.057  1.00  0.00    -0.174 NA
HETATM    8  H   UNL     1       7.878  29.576  59.626  1.00  0.00     0.189 HD
HETATM    9  C   UNL     1       7.279  28.357  56.858  1.00  0.00     0.089 A 
HETATM   10  C   UNL     1       6.561  29.582  56.748  1.00  0.00     0.071 A 
BRANCH   9  11
HETATM   11  C   UNL     1       7.413  27.291  55.860  1.00  0.00    -0.006 A 
HETATM   12  C   UNL     1       7.427  25.941  56.237  1.00  0.00     0.014 A 
HETATM   13  C   UNL     1       7.551  24.933  55.274  1.00  0.00     0.008 A 
HETATM   14  C   UNL     1       7.666  25.253  53.917  1.00  0.00    -0.059 A 
HETATM   15  C   UNL     1       7.647  26.599  53.536  1.00  0.00     0.008 A 
HETATM   16  C   UNL     1       7.526  27.606  54.499  1.00  0.00     0.014 A 
BRANCH  14  17
HETATM   17  C   UNL     1       7.786  24.167  52.878  1.00  0.00     0.034 C 
HETATM   18  C   UNL     1       7.766  22.780  53.505  1.00  0.00     0.010 C 
ENDBRANCH  14  17
ENDBRANCH   9  11
ENDBRANCH   1   5
BRANCH   2  19
HETATM   19  N   UNL     1       6.026  32.717  60.612  1.00  0.00    -0.183 NA
HETATM   20  C   UNL     1       6.430  32.773  61.841  1.00  0.00     0.153 C 
BRANCH  20  21
HETATM   21  C   UNL     1       6.095  33.925  62.665  1.00  0.00     0.018 A 
HETATM   22  C   UNL     1       5.215  34.995  62.285  1.00  0.00     0.004 A 
HETATM   23  C   UNL     1       5.149  35.884  63.357  1.00  0.00     0.043 A 
HETATM   24  C   UNL     1       4.465  35.290  61.126  1.00  0.00     0.014 A 
HETATM   25  C   UNL     1       4.368  37.046  63.334  1.00  0.00     0.030 A 
HETATM   26  N   UNL     1       5.961  35.385  64.345  1.00  0.00    -0.358 N 
HETATM   27  C   UNL     1       3.634  37.312  62.176  1.00  0.00     0.002 A 
HETATM   28  C   UNL     1       3.680  36.450  61.085  1.00  0.00     0.001 A 
HETATM   29  H   UNL     1       6.104  35.832  65.241  1.00  0.00     0.166 HD
HETATM   30  C   UNL     1       6.543  34.206  63.950  1.00  0.00     0.018 A 
HETATM   31  C   UNL     1       7.469  33.470  64.851  1.00  0.00     0.069 C 
ENDBRANCH  20  21
ENDBRANCH   2  19
TORSDOF 5
ENDMDL
MODEL 10
REMARK VINA RESULT:      -9.0      2.502     10.724
REMARK  5 active torsions:
REMARK  status: ('A' for Active; 'I' for Inactive)
REMARK    1  A    between atoms: C_2  and  C_3 
REMARK    2  A    between atoms: C_6  and  C_7 
REMARK    3  A    between atoms: C_11  and  C_12 
REMARK       I    between atoms: C_12  and  N_13 
REMARK    4  A    between atoms: N_13  and  N_14 
REMARK    5  A    between atoms: C_15  and  C_16 
ROOT
HETATM    1  C   UNL     1       8.213  31.581  59.196  1.00  0.00     0.289 C 
HETATM    2  N   UNL     1       6.959  31.663  59.788  1.00  0.00    -0.242 N 
HETATM    3  O   UNL     1       9.086  32.440  59.278  1.00  0.00    -0.264 OA
HETATM    4  H   UNL     1       6.392  30.824  59.830  1.00  0.00     0.192 HD
ENDROOT
BRANCH   1   5
HETATM    5  C   UNL     1       8.444  30.366  58.452  1.00  0.00     0.121 A 
HETATM    6  N   UNL     1       9.659  30.105  57.883  1.00  0.00    -0.272 N 
HETATM    7  N   UNL     1       9.712  28.954  57.200  1.00  0.00    -0.174 NA
HETATM    8  H   UNL     1      10.489  30.690  57.926  1.00  0.00     0.189 HD
HETATM    9  C   UNL     1       8.487  28.421  57.332  1.00  0.00     0.089 A 
HETATM   10  C   UNL     1       7.661  29.281  58.113  1.00  0.00     0.071 A 
BRANCH   9  11
HETATM   11  C   UNL     1       8.135  27.138  56.715  1.00  0.00    -0.006 A 
HETATM   12  C   UNL     1       7.570  27.080  55.434  1.00  0.00     0.014 A 
HETATM   13  C   UNL     1       7.243  25.848  54.855  1.00  0.00     0.008 A 
HETATM   14  C   UNL     1       7.470  24.652  55.545  1.00  0.00    -0.059 A 
HETATM   15  C   UNL     1       8.039  24.706  56.822  1.00  0.00     0.008 A 
HETATM   16  C   UNL     1       8.362  25.937  57.402  1.00  0.00     0.014 A 
BRANCH  14  17
HETATM   17  C   UNL     1       7.130  23.326  54.916  1.00  0.00     0.034 C 
HETATM   18  C   UNL     1       7.491  23.291  53.438  1.00  0.00     0.010 C 
ENDBRANCH  14  17
ENDBRANCH   9  11
ENDBRANCH   1   5
BRANCH   2  19
HETATM   19  N   UNL     1       6.483  32.672  60.590  1.00  0.00    -0.183 NA
HETATM   20  C   UNL     1       5.209  32.906  60.633  1.00  0.00     0.153 C 
BRANCH  20  21
HETATM   21  C   UNL     1       4.696  33.984  61.465  1.00  0.00     0.018 A 
HETATM   22  C   UNL     1       4.703  34.006  62.901  1.00  0.00     0.004 A 
HETATM   23  C   UNL     1       4.141  35.216  63.305  1.00  0.00     0.043 A 
HETATM   24  C   UNL     1       5.138  33.106  63.899  1.00  0.00     0.014 A 
HETATM   25  C   UNL     1       3.998  35.577  64.650  1.00  0.00     0.030 A 
HETATM   26  N   UNL     1       3.796  35.900  62.166  1.00  0.00    -0.358 N 
HETATM   27  C   UNL     1       4.439  34.670  65.616  1.00  0.00     0.002 A 
HETATM   28  C   UNL     1       5.000  33.450  65.249  1.00  0.00     0.001 A 
HETATM   29  H   UNL     1       3.364  36.814  62.162  1.00  0.00     0.166 HD
HETATM   30  C   UNL     1       4.119  35.176  61.045  1.00  0.00     0.018 A 
HETATM   31  C   UNL     1       3.842  35.708  59.684  1.00  0.00     0.069 C 
ENDBRANCH  20  21
ENDBRANCH   2  19
TORSDOF 5
ENDMDL
