MODEL 1
REMARK VINA RESULT:     -10.4      0.000      0.000
REMARK  5 active torsions:
REMARK  status: ('A' for Active; 'I' for Inactive)
REMARK    1  A    between atoms: C_10  and  C_11 
REMARK    2  A    between atoms: C_13  and  O_14 
REMARK    3  A    between atoms: C_16  and  O_17 
REMARK    4  A    between atoms: O_17  and  C_18 
REMARK    5  A    between atoms: C_18  and  C_19 
ROOT
HETATM    1  C   UNL     1       7.782  29.116  57.574  1.00  0.00    -0.013 A 
HETATM    2  C   UNL     1       8.608  27.992  57.367  1.00  0.00     0.050 A 
HETATM    3  C   UNL     1       8.068  26.750  57.023  1.00  0.00     0.102 A 
HETATM    4  C   UNL     1       6.684  26.643  56.839  1.00  0.00     0.112 A 
HETATM    5  C   UNL     1       5.841  27.728  57.074  1.00  0.00     0.041 A 
HETATM    6  C   UNL     1       6.391  28.960  57.429  1.00  0.00     0.014 A 
ENDROOT
BRANCH   1   7
HETATM    7  C   UNL     1       8.343  30.499  57.863  1.00  0.00     0.219 C 
HETATM    8  N   UNL     1       7.311  31.493  58.086  1.00  0.00    -0.358 N 
HETATM    9  C   UNL     1       6.968  31.835  59.345  1.00  0.00     0.088 A 
HETATM   10  H   UNL     1       6.656  31.613  57.319  1.00  0.00     0.162 HD
HETATM   11  C   UNL     1       7.713  31.493  60.447  1.00  0.00     0.073 A 
HETATM   12  S   UNL     1       5.566  32.708  59.748  1.00  0.00    -0.074 SA
HETATM   13  C   UNL     1       7.116  31.964  61.661  1.00  0.00    -0.023 A 
HETATM   14  C   UNL     1       8.945  30.749  60.263  1.00  0.00     0.256 C 
HETATM   15  C   UNL     1       5.934  32.635  61.408  1.00  0.00     0.018 A 
HETATM   16  C   UNL     1       7.632  31.773  63.057  1.00  0.00     0.068 C 
HETATM   17  C   UNL     1       5.069  33.263  62.446  1.00  0.00     0.281 C 
HETATM   18  N   UNL     1       5.426  32.724  63.826  1.00  0.00    -0.070 N 
HETATM   19  C   UNL     1       4.685  33.435  64.913  1.00  0.00     0.270 C 
HETATM   20  H   UNL     1       5.119  31.742  63.834  1.00  0.00     0.279 HD
HETATM   21  C   UNL     1       6.936  32.716  64.055  1.00  0.00     0.239 C 
HETATM   22  N   UNL     1       9.268  30.459  58.968  1.00  0.00    -0.332 N 
HETATM   23  O   UNL     1       9.668  30.427  61.199  1.00  0.00    -0.267 OA
HETATM   24  H   UNL     1      10.087  29.877  58.869  1.00  0.00     0.165 HD
ENDBRANCH   1   7
BRANCH   3  25
HETATM   25  O   UNL     1       8.798  25.611  56.811  1.00  0.00    -0.353 OA
HETATM   26  C   UNL     1       8.986  24.748  57.924  1.00  0.00     0.210 C 
ENDBRANCH   3  25
BRANCH   4  27
HETATM   27  O   UNL     1       6.177  25.387  56.464  1.00  0.00    -0.272 OA
BRANCH  27  28
HETATM   28  C   UNL     1       5.868  25.239  55.127  1.00  0.00     0.300 C 
HETATM   29  O   UNL     1       5.094  25.876  54.436  1.00  0.00    -0.259 OA
BRANCH  28  30
HETATM   30  C   UNL     1       6.638  24.091  54.633  1.00  0.00     0.061 A 
HETATM   31  C   UNL     1       6.997  23.995  53.285  1.00  0.00     0.051 A 
HETATM   32 CL   UNL     1       6.566  25.201  52.125  1.00  0.00    -0.083 Cl
HETATM   33  C   UNL     1       7.712  22.882  52.837  1.00  0.00     0.048 A 
HETATM   34  C   UNL     1       8.056  21.874  53.737  1.00  0.00     0.035 A 
HETATM   35 CL   UNL     1       8.936  20.505  53.183  1.00  0.00    -0.084 Cl
HETATM   36  C   UNL     1       7.687  21.963  55.081  1.00  0.00     0.025 A 
HETATM   37  C   UNL     1       6.971  23.073  55.534  1.00  0.00     0.021 A 
ENDBRANCH  28  30
ENDBRANCH  27  28
ENDBRANCH   4  27
TORSDOF 5
ENDMDL
MODEL 2
REMARK VINA RESULT:     -10.0      4.962     10.652
REMARK  5 active torsions:
REMARK  status: ('A' for Active; 'I' for Inactive)
REMARK    1  A    between atoms: C_10  and  C_11 
REMARK    2  A    between atoms: C_13  and  O_14 
REMARK    3  A    between atoms: C_16  and  O_17 
REMARK    4  A    between atoms: O_17  and  C_18 
REMARK    5  A    between atoms: C_18  and  C_19 
ROOT
HETATM    1  C   UNL     1       5.705  31.660  58.373  1.00  0.00    -0.013 A 
HETATM    2  C   UNL     1       4.417  32.041  58.800  1.00  0.00     0.050 A 
HETATM    3  C   UNL     1       4.199  32.547  60.085  1.00  0.00     0.102 A 
HETATM    4  C   UNL     1       5.297  32.716  60.938  1.00  0.00     0.112 A 
HETATM    5  C   UNL     1       6.575  32.312  60.556  1.00  0.00     0.041 A 
HETATM    6  C   UNL     1       6.777  31.798  59.275  1.00  0.00     0.014 A 
ENDROOT
BRANCH   1   7
HETATM    7  C   UNL     1       5.990  31.189  56.956  1.00  0.00     0.219 C 
HETATM    8  N   UNL     1       7.274  30.528  56.827  1.00  0.00    -0.358 N 
HETATM    9  C   UNL     1       7.340  29.181  56.833  1.00  0.00     0.088 A 
HETATM   10  H   UNL     1       8.076  31.088  57.100  1.00  0.00     0.162 HD
HETATM   11  C   UNL     1       6.238  28.372  56.694  1.00  0.00     0.073 A 
HETATM   12  S   UNL     1       8.778  28.296  57.036  1.00  0.00    -0.074 SA
HETATM   13  C   UNL     1       6.584  26.984  56.755  1.00  0.00    -0.023 A 
HETATM   14  C   UNL     1       4.934  28.982  56.506  1.00  0.00     0.256 C 
HETATM   15  C   UNL     1       7.942  26.816  56.948  1.00  0.00     0.018 A 
HETATM   16  C   UNL     1       5.651  25.813  56.654  1.00  0.00     0.068 C 
HETATM   17  C   UNL     1       8.636  25.501  57.042  1.00  0.00     0.281 C 
HETATM   18  N   UNL     1       7.628  24.391  57.312  1.00  0.00    -0.070 N 
HETATM   19  C   UNL     1       8.261  23.037  57.267  1.00  0.00     0.270 C 
HETATM   20  H   UNL     1       7.291  24.543  58.272  1.00  0.00     0.279 HD
HETATM   21  C   UNL     1       6.412  24.500  56.395  1.00  0.00     0.239 C 
HETATM   22  N   UNL     1       4.925  30.347  56.470  1.00  0.00    -0.332 N 
HETATM   23  O   UNL     1       3.913  28.322  56.357  1.00  0.00    -0.267 OA
HETATM   24  H   UNL     1       4.001  30.751  56.414  1.00  0.00     0.165 HD
ENDBRANCH   1   7
BRANCH   3  25
HETATM   25  O   UNL     1       2.982  32.933  60.577  1.00  0.00    -0.353 OA
HETATM   26  C   UNL     1       2.500  34.209  60.180  1.00  0.00     0.210 C 
ENDBRANCH   3  25
BRANCH   4  27
HETATM   27  O   UNL     1       5.047  33.256  62.212  1.00  0.00    -0.272 OA
BRANCH  27  28
HETATM   28  C   UNL     1       5.022  32.352  63.253  1.00  0.00     0.300 C 
HETATM   29  O   UNL     1       4.731  31.169  63.246  1.00  0.00    -0.259 OA
BRANCH  28  30
HETATM   30  C   UNL     1       5.388  33.087  64.469  1.00  0.00     0.061 A 
HETATM   31  C   UNL     1       6.730  33.301  64.803  1.00  0.00     0.051 A 
HETATM   32 CL   UNL     1       8.029  32.723  63.822  1.00  0.00    -0.083 Cl
HETATM   33  C   UNL     1       7.050  33.987  65.976  1.00  0.00     0.048 A 
HETATM   34  C   UNL     1       6.029  34.447  66.808  1.00  0.00     0.035 A 
HETATM   35 CL   UNL     1       6.427  35.291  68.252  1.00  0.00    -0.084 Cl
HETATM   36  C   UNL     1       4.690  34.223  66.483  1.00  0.00     0.025 A 
HETATM   37  C   UNL     1       4.364  33.537  65.311  1.00  0.00     0.021 A 
ENDBRANCH  28  30
ENDBRANCH  27  28
ENDBRANCH   4  27
TORSDOF 5
ENDMDL
MODEL 3
REMARK VINA RESULT:     -10.0      4.487     10.042
REMARK  5 active torsions:
REMARK  status: ('A' for Active; 'I' for Inactive)
REMARK    1  A    between atoms: C_10  and  C_11 
REMARK    2  A    between atoms: C_13  and  O_14 
REMARK    3  A    between atoms: C_16  and  O_17 
REMARK    4  A    between atoms: O_17  and  C_18 
REMARK    5  A    between atoms: C_18  and  C_19 
ROOT
HETATM    1  C   UNL     1       5.372  29.293  56.850  1.00  0.00    -0.013 A 
HETATM    2  C   UNL     1       5.028  30.654  56.979  1.00  0.00     0.050 A 
HETATM    3  C   UNL     1       5.875  31.557  57.629  1.00  0.00     0.102 A 
HETATM    4  C   UNL     1       7.105  31.097  58.116  1.00  0.00     0.112 A 
HETATM    5  C   UNL     1       7.453  29.750  58.035  1.00  0.00     0.041 A 
HETATM    6  C   UNL     1       6.594  28.857  57.395  1.00  0.00     0.014 A 
ENDROOT
BRANCH   1   7
HETATM    7  C   UNL     1       4.515  28.305  56.075  1.00  0.00     0.219 C 
HETATM    8  N   UNL     1       5.088  27.942  54.794  1.00  0.00    -0.358 N 
HETATM    9  C   UNL     1       5.778  26.790  54.668  1.00  0.00     0.088 A 
HETATM   10  H   UNL     1       5.257  28.719  54.162  1.00  0.00     0.162 HD
HETATM   11  C   UNL     1       5.760  25.794  55.615  1.00  0.00     0.073 A 
HETATM   12  S   UNL     1       6.778  26.415  53.345  1.00  0.00    -0.074 SA
HETATM   13  C   UNL     1       6.591  24.689  55.244  1.00  0.00    -0.023 A 
HETATM   14  C   UNL     1       4.945  25.966  56.804  1.00  0.00     0.256 C 
HETATM   15  C   UNL     1       7.207  24.916  54.026  1.00  0.00     0.018 A 
HETATM   16  C   UNL     1       6.831  23.433  56.027  1.00  0.00     0.068 C 
HETATM   17  C   UNL     1       8.126  23.962  53.343  1.00  0.00     0.281 C 
HETATM   18  N   UNL     1       8.620  22.909  54.327  1.00  0.00    -0.070 N 
HETATM   19  C   UNL     1       9.427  21.846  53.652  1.00  0.00     0.270 C 
HETATM   20  H   UNL     1       9.244  23.403  54.980  1.00  0.00     0.279 HD
HETATM   21  C   UNL     1       7.476  22.336  55.160  1.00  0.00     0.239 C 
HETATM   22  N   UNL     1       4.237  27.132  56.867  1.00  0.00    -0.332 N 
HETATM   23  O   UNL     1       4.868  25.112  57.679  1.00  0.00    -0.267 OA
HETATM   24  H   UNL     1       3.738  27.264  57.734  1.00  0.00     0.165 HD
ENDBRANCH   1   7
BRANCH   3  25
HETATM   25  O   UNL     1       5.613  32.889  57.801  1.00  0.00    -0.353 OA
HETATM   26  C   UNL     1       4.427  33.228  58.505  1.00  0.00     0.210 C 
ENDBRANCH   3  25
BRANCH   4  27
HETATM   27  O   UNL     1       7.946  32.037  58.735  1.00  0.00    -0.272 OA
BRANCH  27  28
HETATM   28  C   UNL     1       8.756  31.549  59.740  1.00  0.00     0.300 C 
HETATM   29  O   UNL     1       9.730  30.822  59.666  1.00  0.00    -0.259 OA
BRANCH  28  30
HETATM   30  C   UNL     1       8.207  32.039  61.010  1.00  0.00     0.061 A 
HETATM   31  C   UNL     1       8.512  31.401  62.217  1.00  0.00     0.051 A 
HETATM   32 CL   UNL     1       9.538  30.014  62.296  1.00  0.00    -0.083 Cl
HETATM   33  C   UNL     1       7.960  31.876  63.409  1.00  0.00     0.048 A 
HETATM   34  C   UNL     1       7.105  32.977  63.383  1.00  0.00     0.035 A 
HETATM   35 CL   UNL     1       6.427  33.559  64.853  1.00  0.00    -0.084 Cl
HETATM   36  C   UNL     1       6.790  33.607  62.178  1.00  0.00     0.025 A 
HETATM   37  C   UNL     1       7.338  33.136  60.983  1.00  0.00     0.021 A 
ENDBRANCH  28  30
ENDBRANCH  27  28
ENDBRANCH   4  27
TORSDOF 5
ENDMDL
MODEL 4
REMARK VINA RESULT:      -9.9      1.506      2.231
REMARK  5 active torsions:
REMARK  status: ('A' for Active; 'I' for Inactive)
REMARK    1  A    between atoms: C_10  and  C_11 
REMARK    2  A    between atoms: C_13  and  O_14 
REMARK    3  A    between atoms: C_16  and  O_17 
REMARK    4  A    between atoms: O_17  and  C_18 
REMARK    5  A    between atoms: C_18  and  C_19 
ROOT
HETATM    1  C   UNL     1       7.821  29.841  57.997  1.00  0.00    -0.013 A 
HETATM    2  C   UNL     1       6.471  29.541  57.724  1.00  0.00     0.050 A 
HETATM    3  C   UNL     1       6.092  28.288  57.234  1.00  0.00     0.102 A 
HETATM    4  C   UNL     1       7.075  27.306  57.058  1.00  0.00     0.112 A 
HETATM    5  C   UNL     1       8.422  27.587  57.284  1.00  0.00     0.041 A 
HETATM    6  C   UNL     1       8.788  28.846  57.762  1.00  0.00     0.014 A 
ENDROOT
BRANCH   1   7
HETATM    7  C   UNL     1       8.256  31.162  58.611  1.00  0.00     0.219 C 
HETATM    8  N   UNL     1       7.262  32.208  58.465  1.00  0.00    -0.358 N 
HETATM    9  C   UNL     1       6.431  32.493  59.489  1.00  0.00     0.088 A 
HETATM   10  H   UNL     1       6.996  32.419  57.508  1.00  0.00     0.162 HD
HETATM   11  C   UNL     1       6.629  32.034  60.769  1.00  0.00     0.073 A 
HETATM   12  S   UNL     1       5.021  33.432  59.342  1.00  0.00    -0.074 SA
HETATM   13  C   UNL     1       5.592  32.467  61.657  1.00  0.00    -0.023 A 
HETATM   14  C   UNL     1       7.796  31.220  61.054  1.00  0.00     0.256 C 
HETATM   15  C   UNL     1       4.652  33.231  60.991  1.00  0.00     0.018 A 
HETATM   16  C   UNL     1       5.463  32.155  63.119  1.00  0.00     0.068 C 
HETATM   17  C   UNL     1       3.452  33.851  61.621  1.00  0.00     0.281 C 
HETATM   18  N   UNL     1       3.173  33.204  62.972  1.00  0.00    -0.070 N 
HETATM   19  C   UNL     1       2.068  33.894  63.706  1.00  0.00     0.270 C 
HETATM   20  H   UNL     1       2.858  32.246  62.768  1.00  0.00     0.279 HD
HETATM   21  C   UNL     1       4.444  33.079  63.810  1.00  0.00     0.239 C 
HETATM   22  N   UNL     1       8.625  30.990  59.994  1.00  0.00    -0.332 N 
HETATM   23  O   UNL     1       8.044  30.793  62.176  1.00  0.00    -0.267 OA
HETATM   24  H   UNL     1       9.389  30.362  60.198  1.00  0.00     0.165 HD
ENDBRANCH   1   7
BRANCH   3  25
HETATM   25  O   UNL     1       4.807  27.920  56.938  1.00  0.00    -0.353 OA
HETATM   26  C   UNL     1       4.236  28.461  55.755  1.00  0.00     0.210 C 
ENDBRANCH   3  25
BRANCH   4  27
HETATM   27  O   UNL     1       6.655  26.048  56.594  1.00  0.00    -0.272 OA
BRANCH  27  28
HETATM   28  C   UNL     1       7.117  25.683  55.346  1.00  0.00     0.300 C 
HETATM   29  O   UNL     1       7.192  26.342  54.324  1.00  0.00    -0.259 OA
BRANCH  28  30
HETATM   30  C   UNL     1       7.498  24.268  55.426  1.00  0.00     0.061 A 
HETATM   31  C   UNL     1       7.276  23.404  54.349  1.00  0.00     0.051 A 
HETATM   32 CL   UNL     1       6.548  23.932  52.874  1.00  0.00    -0.083 Cl
HETATM   33  C   UNL     1       7.630  22.057  54.459  1.00  0.00     0.048 A 
HETATM   34  C   UNL     1       8.195  21.586  55.643  1.00  0.00     0.035 A 
HETATM   35 CL   UNL     1       8.630  19.927  55.776  1.00  0.00    -0.084 Cl
HETATM   36  C   UNL     1       8.406  22.445  56.723  1.00  0.00     0.025 A 
HETATM   37  C   UNL     1       8.054  23.792  56.619  1.00  0.00     0.021 A 
ENDBRANCH  28  30
ENDBRANCH  27  28
ENDBRANCH   4  27
TORSDOF 5
ENDMDL
MODEL 5
REMARK VINA RESULT:      -9.8      1.281      2.463
REMARK  5 active torsions:
REMARK  status: ('A' for Active; 'I' for Inactive)
REMARK    1  A    between atoms: C_10  and  C_11 
REMARK    2  A    between atoms: C_13  and  O_14 
REMARK    3  A    between atoms: C_16  and  O_17 
REMARK    4  A    between atoms: O_17  and  C_18 
REMARK    5  A    between atoms: C_18  and  C_19 
ROOT
HETATM    1  C   UNL     1       7.915  29.420  57.379  1.00  0.00    -0.013 A 
HETATM    2  C   UNL     1       6.591  28.950  57.263  1.00  0.00     0.050 A 
HETATM    3  C   UNL     1       6.314  27.586  57.136  1.00  0.00     0.102 A 
HETATM    4  C   UNL     1       7.378  26.676  57.170  1.00  0.00     0.112 A 
HETATM    5  C   UNL     1       8.699  27.115  57.244  1.00  0.00     0.041 A 
HETATM    6  C   UNL     1       8.962  28.480  57.359  1.00  0.00     0.014 A 
ENDROOT
BRANCH   1   7
HETATM    7  C   UNL     1       8.244  30.887  57.605  1.00  0.00     0.219 C 
HETATM    8  N   UNL     1       7.077  31.684  57.930  1.00  0.00    -0.358 N 
HETATM    9  C   UNL     1       6.806  31.986  59.217  1.00  0.00     0.088 A 
HETATM   10  H   UNL     1       6.337  31.669  57.234  1.00  0.00     0.162 HD
HETATM   11  C   UNL     1       7.708  31.806  60.238  1.00  0.00     0.073 A 
HETATM   12  S   UNL     1       5.317  32.602  59.760  1.00  0.00    -0.074 SA
HETATM   13  C   UNL     1       7.161  32.188  61.505  1.00  0.00    -0.023 A 
HETATM   14  C   UNL     1       9.029  31.290  59.930  1.00  0.00     0.256 C 
HETATM   15  C   UNL     1       5.858  32.631  61.373  1.00  0.00     0.018 A 
HETATM   16  C   UNL     1       7.840  32.121  62.842  1.00  0.00     0.068 C 
HETATM   17  C   UNL     1       5.002  33.116  62.493  1.00  0.00     0.281 C 
HETATM   18  N   UNL     1       5.587  32.678  63.830  1.00  0.00    -0.070 N 
HETATM   19  C   UNL     1       4.843  33.268  64.986  1.00  0.00     0.270 C 
HETATM   20  H   UNL     1       5.465  31.658  63.872  1.00  0.00     0.279 HD
HETATM   21  C   UNL     1       7.089  32.946  63.903  1.00  0.00     0.239 C 
HETATM   22  N   UNL     1       9.267  31.036  58.610  1.00  0.00    -0.332 N 
HETATM   23  O   UNL     1       9.888  31.123  60.788  1.00  0.00    -0.267 OA
HETATM   24  H   UNL     1      10.163  30.608  58.429  1.00  0.00     0.165 HD
ENDBRANCH   1   7
BRANCH   3  25
HETATM   25  O   UNL     1       5.060  27.050  57.014  1.00  0.00    -0.353 OA
HETATM   26  C   UNL     1       4.139  27.745  56.185  1.00  0.00     0.210 C 
ENDBRANCH   3  25
BRANCH   4  27
HETATM   27  O   UNL     1       7.063  25.310  57.070  1.00  0.00    -0.272 OA
BRANCH  27  28
HETATM   28  C   UNL     1       8.117  24.436  57.238  1.00  0.00     0.300 C 
HETATM   29  O   UNL     1       8.971  24.409  58.107  1.00  0.00    -0.259 OA
BRANCH  28  30
HETATM   30  C   UNL     1       8.079  23.495  56.112  1.00  0.00     0.061 A 
HETATM   31  C   UNL     1       8.151  22.115  56.328  1.00  0.00     0.051 A 
HETATM   32 CL   UNL     1       8.287  21.432  57.908  1.00  0.00    -0.083 Cl
HETATM   33  C   UNL     1       8.133  21.243  55.237  1.00  0.00     0.048 A 
HETATM   34  C   UNL     1       8.051  21.757  53.943  1.00  0.00     0.035 A 
HETATM   35 CL   UNL     1       8.030  20.681  52.602  1.00  0.00    -0.084 Cl
HETATM   36  C   UNL     1       7.992  23.135  53.726  1.00  0.00     0.025 A 
HETATM   37  C   UNL     1       8.011  24.011  54.813  1.00  0.00     0.021 A 
ENDBRANCH  28  30
ENDBRANCH  27  28
ENDBRANCH   4  27
TORSDOF 5
ENDMDL
MODEL 6
REMARK VINA RESULT:      -9.5      5.631      7.824
REMARK  5 active torsions:
REMARK  status: ('A' for Active; 'I' for Inactive)
REMARK    1  A    between atoms: C_10  and  C_11 
REMARK    2  A    between atoms: C_13  and  O_14 
REMARK    3  A    between atoms: C_16  and  O_17 
REMARK    4  A    between atoms: O_17  and  C_18 
REMARK    5  A    between atoms: C_18  and  C_19 
ROOT
HETATM    1  C   UNL     1       5.280  27.096  52.802  1.00  0.00    -0.013 A 
HETATM    2  C   UNL     1       5.567  28.439  52.487  1.00  0.00     0.050 A 
HETATM    3  C   UNL     1       5.619  28.878  51.161  1.00  0.00     0.102 A 
HETATM    4  C   UNL     1       5.334  27.965  50.137  1.00  0.00     0.112 A 
HETATM    5  C   UNL     1       5.085  26.623  50.418  1.00  0.00     0.041 A 
HETATM    6  C   UNL     1       5.048  26.196  51.746  1.00  0.00     0.014 A 
ENDROOT
BRANCH   1   7
HETATM    7  C   UNL     1       5.132  26.607  54.234  1.00  0.00     0.219 C 
HETATM    8  N   UNL     1       6.402  26.467  54.919  1.00  0.00    -0.358 N 
HETATM    9  C   UNL     1       6.831  27.441  55.746  1.00  0.00     0.088 A 
HETATM   10  H   UNL     1       7.063  25.835  54.475  1.00  0.00     0.162 HD
HETATM   11  C   UNL     1       6.022  28.458  56.195  1.00  0.00     0.073 A 
HETATM   12  S   UNL     1       8.424  27.567  56.330  1.00  0.00    -0.074 SA
HETATM   13  C   UNL     1       6.731  29.367  57.045  1.00  0.00    -0.023 A 
HETATM   14  C   UNL     1       4.630  28.484  55.785  1.00  0.00     0.256 C 
HETATM   15  C   UNL     1       8.053  28.990  57.187  1.00  0.00     0.018 A 
HETATM   16  C   UNL     1       6.186  30.598  57.708  1.00  0.00     0.068 C 
HETATM   17  C   UNL     1       9.063  29.708  58.014  1.00  0.00     0.281 C 
HETATM   18  N   UNL     1       8.572  31.114  58.341  1.00  0.00    -0.070 N 
HETATM   19  C   UNL     1       9.486  31.818  59.293  1.00  0.00     0.270 C 
HETATM   20  H   UNL     1       8.590  31.633  57.453  1.00  0.00     0.279 HD
HETATM   21  C   UNL     1       7.122  31.107  58.819  1.00  0.00     0.239 C 
HETATM   22  N   UNL     1       4.236  27.456  54.978  1.00  0.00    -0.332 N 
HETATM   23  O   UNL     1       3.849  29.350  56.162  1.00  0.00    -0.267 OA
HETATM   24  H   UNL     1       3.286  27.536  54.646  1.00  0.00     0.165 HD
ENDBRANCH   1   7
BRANCH   3  25
HETATM   25  O   UNL     1       5.895  30.161  50.771  1.00  0.00    -0.353 OA
HETATM   26  C   UNL     1       4.901  31.142  51.029  1.00  0.00     0.210 C 
ENDBRANCH   3  25
BRANCH   4  27
HETATM   27  O   UNL     1       5.364  28.446  48.817  1.00  0.00    -0.272 OA
BRANCH  27  28
HETATM   28  C   UNL     1       4.998  27.543  47.840  1.00  0.00     0.300 C 
HETATM   29  O   UNL     1       5.670  26.700  47.274  1.00  0.00    -0.259 OA
BRANCH  28  30
HETATM   30  C   UNL     1       3.586  27.793  47.532  1.00  0.00     0.061 A 
HETATM   31  C   UNL     1       2.660  26.744  47.508  1.00  0.00     0.051 A 
HETATM   32 CL   UNL     1       3.109  25.108  47.835  1.00  0.00    -0.083 Cl
HETATM   33  C   UNL     1       1.325  27.006  47.192  1.00  0.00     0.048 A 
HETATM   34  C   UNL     1       0.929  28.310  46.896  1.00  0.00     0.035 A 
HETATM   35 CL   UNL     1      -0.715  28.630  46.506  1.00  0.00    -0.084 Cl
HETATM   36  C   UNL     1       1.854  29.356  46.906  1.00  0.00     0.025 A 
HETATM   37  C   UNL     1       3.190  29.099  47.221  1.00  0.00     0.021 A 
ENDBRANCH  28  30
ENDBRANCH  27  28
ENDBRANCH   4  27
TORSDOF 5
ENDMDL
MODEL 7
REMARK VINA RESULT:      -9.4      8.036     11.268
REMARK  5 active torsions:
REMARK  status: ('A' for Active; 'I' for Inactive)
REMARK    1  A    between atoms: C_10  and  C_11 
REMARK    2  A    between atoms: C_13  and  O_14 
REMARK    3  A    between atoms: C_16  and  O_17 
REMARK    4  A    between atoms: O_17  and  C_18 
REMARK    5  A    between atoms: C_18  and  C_19 
ROOT
HETATM    1  C   UNL     1       4.760  27.558  49.157  1.00  0.00    -0.013 A 
HETATM    2  C   UNL     1       4.884  28.595  50.104  1.00  0.00     0.050 A 
HETATM    3  C   UNL     1       5.112  28.319  51.455  1.00  0.00     0.102 A 
HETATM    4  C   UNL     1       5.262  26.985  51.855  1.00  0.00     0.112 A 
HETATM    5  C   UNL     1       5.107  25.939  50.947  1.00  0.00     0.041 A 
HETATM    6  C   UNL     1       4.868  26.228  49.603  1.00  0.00     0.014 A 
ENDROOT
BRANCH   1   7
HETATM    7  C   UNL     1       4.599  27.826  47.669  1.00  0.00     0.219 C 
HETATM    8  N   UNL     1       3.389  27.248  47.118  1.00  0.00    -0.358 N 
HETATM    9  C   UNL     1       2.296  28.019  46.942  1.00  0.00     0.088 A 
HETATM   10  H   UNL     1       3.302  26.242  47.230  1.00  0.00     0.162 HD
HETATM   11  C   UNL     1       2.324  29.391  47.008  1.00  0.00     0.073 A 
HETATM   12  S   UNL     1       0.737  27.410  46.639  1.00  0.00    -0.074 SA
HETATM   13  C   UNL     1       1.026  29.961  46.803  1.00  0.00    -0.023 A 
HETATM   14  C   UNL     1       3.588  30.060  47.255  1.00  0.00     0.256 C 
HETATM   15  C   UNL     1       0.076  28.978  46.599  1.00  0.00     0.018 A 
HETATM   16  C   UNL     1       0.664  31.417  46.816  1.00  0.00     0.068 C 
HETATM   17  C   UNL     1      -1.370  29.227  46.341  1.00  0.00     0.281 C 
HETATM   18  N   UNL     1      -1.738  30.652  46.736  1.00  0.00    -0.070 N 
HETATM   19  C   UNL     1      -3.144  30.993  46.356  1.00  0.00     0.270 C 
HETATM   20  H   UNL     1      -1.678  30.686  47.763  1.00  0.00     0.279 HD
HETATM   21  C   UNL     1      -0.726  31.664  46.203  1.00  0.00     0.239 C 
HETATM   22  N   UNL     1       4.670  29.239  47.390  1.00  0.00    -0.332 N 
HETATM   23  O   UNL     1       3.689  31.280  47.309  1.00  0.00    -0.267 OA
HETATM   24  H   UNL     1       5.523  29.720  47.635  1.00  0.00     0.165 HD
ENDBRANCH   1   7
BRANCH   3  25
HETATM   25  O   UNL     1       5.238  29.265  52.436  1.00  0.00    -0.353 OA
HETATM   26  C   UNL     1       4.048  29.909  52.868  1.00  0.00     0.210 C 
ENDBRANCH   3  25
BRANCH   4  27
HETATM   27  O   UNL     1       5.521  26.744  53.215  1.00  0.00    -0.272 OA
BRANCH  27  28
HETATM   28  C   UNL     1       6.851  26.637  53.564  1.00  0.00     0.300 C 
HETATM   29  O   UNL     1       7.697  27.507  53.672  1.00  0.00    -0.259 OA
BRANCH  28  30
HETATM   30  C   UNL     1       7.129  25.210  53.764  1.00  0.00     0.061 A 
HETATM   31  C   UNL     1       6.836  24.585  54.981  1.00  0.00     0.051 A 
HETATM   32 CL   UNL     1       6.137  25.436  56.312  1.00  0.00    -0.083 Cl
HETATM   33  C   UNL     1       7.129  23.230  55.151  1.00  0.00     0.048 A 
HETATM   34  C   UNL     1       7.718  22.515  54.109  1.00  0.00     0.035 A 
HETATM   35 CL   UNL     1       8.078  20.847  54.322  1.00  0.00    -0.084 Cl
HETATM   36  C   UNL     1       8.023  23.140  52.899  1.00  0.00     0.025 A 
HETATM   37  C   UNL     1       7.733  24.495  52.723  1.00  0.00     0.021 A 
ENDBRANCH  28  30
ENDBRANCH  27  28
ENDBRANCH   4  27
TORSDOF 5
ENDMDL
MODEL 8
REMARK VINA RESULT:      -9.3      6.103      7.491
REMARK  5 active torsions:
REMARK  status: ('A' for Active; 'I' for Inactive)
REMARK    1  A    between atoms: C_10  and  C_11 
REMARK    2  A    between atoms: C_13  and  O_14 
REMARK    3  A    between atoms: C_16  and  O_17 
REMARK    4  A    between atoms: O_17  and  C_18 
REMARK    5  A    between atoms: C_18  and  C_19 
ROOT
HETATM    1  C   UNL     1       3.675  29.074  52.357  1.00  0.00    -0.013 A 
HETATM    2  C   UNL     1       4.100  28.274  51.278  1.00  0.00     0.050 A 
HETATM    3  C   UNL     1       4.765  27.063  51.490  1.00  0.00     0.102 A 
HETATM    4  C   UNL     1       4.967  26.626  52.806  1.00  0.00     0.112 A 
HETATM    5  C   UNL     1       4.592  27.416  53.892  1.00  0.00     0.041 A 
HETATM    6  C   UNL     1       3.940  28.628  53.666  1.00  0.00     0.014 A 
ENDROOT
BRANCH   1   7
HETATM    7  C   UNL     1       2.874  30.351  52.161  1.00  0.00     0.219 C 
HETATM    8  N   UNL     1       3.021  31.285  53.261  1.00  0.00    -0.358 N 
HETATM    9  C   UNL     1       3.885  32.316  53.158  1.00  0.00     0.088 A 
HETATM   10  H   UNL     1       2.751  30.924  54.172  1.00  0.00     0.162 HD
HETATM   11  C   UNL     1       4.458  32.701  51.970  1.00  0.00     0.073 A 
HETATM   12  S   UNL     1       4.403  33.263  54.471  1.00  0.00    -0.074 SA
HETATM   13  C   UNL     1       5.349  33.808  52.142  1.00  0.00    -0.023 A 
HETATM   14  C   UNL     1       4.109  31.988  50.754  1.00  0.00     0.256 C 
HETATM   15  C   UNL     1       5.409  34.199  53.467  1.00  0.00     0.018 A 
HETATM   16  C   UNL     1       6.162  34.491  51.081  1.00  0.00     0.068 C 
HETATM   17  C   UNL     1       6.229  35.328  53.988  1.00  0.00     0.281 C 
HETATM   18  N   UNL     1       7.291  35.724  52.970  1.00  0.00    -0.070 N 
HETATM   19  C   UNL     1       8.040  36.949  53.388  1.00  0.00     0.270 C 
HETATM   20  H   UNL     1       7.962  34.944  52.944  1.00  0.00     0.279 HD
HETATM   21  C   UNL     1       6.705  35.847  51.565  1.00  0.00     0.239 C 
HETATM   22  N   UNL     1       3.203  30.978  50.905  1.00  0.00    -0.332 N 
HETATM   23  O   UNL     1       4.568  32.289  49.659  1.00  0.00    -0.267 OA
HETATM   24  H   UNL     1       3.033  30.449  50.063  1.00  0.00     0.165 HD
ENDBRANCH   1   7
BRANCH   3  25
HETATM   25  O   UNL     1       5.214  26.232  50.499  1.00  0.00    -0.353 OA
HETATM   26  C   UNL     1       4.565  26.322  49.239  1.00  0.00     0.210 C 
ENDBRANCH   3  25
BRANCH   4  27
HETATM   27  O   UNL     1       5.611  25.390  52.984  1.00  0.00    -0.272 OA
BRANCH  27  28
HETATM   28  C   UNL     1       6.940  25.452  53.349  1.00  0.00     0.300 C 
HETATM   29  O   UNL     1       7.712  26.394  53.309  1.00  0.00    -0.259 OA
BRANCH  28  30
HETATM   30  C   UNL     1       7.328  24.107  53.788  1.00  0.00     0.061 A 
HETATM   31  C   UNL     1       7.153  23.707  55.117  1.00  0.00     0.051 A 
HETATM   32 CL   UNL     1       6.478  24.752  56.315  1.00  0.00    -0.083 Cl
HETATM   33  C   UNL     1       7.549  22.427  55.512  1.00  0.00     0.048 A 
HETATM   34  C   UNL     1       8.123  21.563  54.579  1.00  0.00     0.035 A 
HETATM   35 CL   UNL     1       8.611  19.988  55.069  1.00  0.00    -0.084 Cl
HETATM   36  C   UNL     1       8.310  21.965  53.256  1.00  0.00     0.025 A 
HETATM   37  C   UNL     1       7.917  23.244  52.856  1.00  0.00     0.021 A 
ENDBRANCH  28  30
ENDBRANCH  27  28
ENDBRANCH   4  27
TORSDOF 5
ENDMDL
MODEL 9
REMARK VINA RESULT:      -9.2      6.707      9.541
REMARK  5 active torsions:
REMARK  status: ('A' for Active; 'I' for Inactive)
REMARK    1  A    between atoms: C_10  and  C_11 
REMARK    2  A    between atoms: C_13  and  O_14 
REMARK    3  A    between atoms: C_16  and  O_17 
REMARK    4  A    between atoms: O_17  and  C_18 
REMARK    5  A    between atoms: C_18  and  C_19 
ROOT
HETATM    1  C   UNL     1       4.356  28.855  52.544  1.00  0.00    -0.013 A 
HETATM    2  C   UNL     1       4.430  28.065  51.379  1.00  0.00     0.050 A 
HETATM    3  C   UNL     1       4.978  26.779  51.408  1.00  0.00     0.102 A 
HETATM    4  C   UNL     1       5.416  26.261  52.633  1.00  0.00     0.112 A 
HETATM    5  C   UNL     1       5.390  27.034  53.793  1.00  0.00     0.041 A 
HETATM    6  C   UNL     1       4.852  28.320  53.748  1.00  0.00     0.014 A 
ENDROOT
BRANCH   1   7
HETATM    7  C   UNL     1       3.689  30.221  52.563  1.00  0.00     0.219 C 
HETATM    8  N   UNL     1       4.580  31.291  52.160  1.00  0.00    -0.358 N 
HETATM    9  C   UNL     1       4.538  31.761  50.896  1.00  0.00     0.088 A 
HETATM   10  H   UNL     1       5.422  31.385  52.720  1.00  0.00     0.162 HD
HETATM   11  C   UNL     1       3.521  31.470  50.019  1.00  0.00     0.073 A 
HETATM   12  S   UNL     1       5.736  32.749  50.205  1.00  0.00    -0.074 SA
HETATM   13  C   UNL     1       3.730  32.079  48.740  1.00  0.00    -0.023 A 
HETATM   14  C   UNL     1       2.419  30.639  50.467  1.00  0.00     0.256 C 
HETATM   15  C   UNL     1       4.911  32.797  48.716  1.00  0.00     0.018 A 
HETATM   16  C   UNL     1       2.845  31.978  47.533  1.00  0.00     0.068 C 
HETATM   17  C   UNL     1       5.422  33.564  47.546  1.00  0.00     0.281 C 
HETATM   18  N   UNL     1       4.706  33.125  46.274  1.00  0.00    -0.070 N 
HETATM   19  C   UNL     1       5.080  33.971  45.099  1.00  0.00     0.270 C 
HETATM   20  H   UNL     1       5.031  32.167  46.083  1.00  0.00     0.279 HD
HETATM   21  C   UNL     1       3.194  33.044  46.479  1.00  0.00     0.239 C 
HETATM   22  N   UNL     1       2.489  30.219  51.764  1.00  0.00    -0.332 N 
HETATM   23  O   UNL     1       1.471  30.355  49.744  1.00  0.00    -0.267 OA
HETATM   24  H   UNL     1       1.753  29.582  52.031  1.00  0.00     0.165 HD
ENDBRANCH   1   7
BRANCH   3  25
HETATM   25  O   UNL     1       5.092  25.952  50.323  1.00  0.00    -0.353 OA
HETATM   26  C   UNL     1       4.381  26.324  49.151  1.00  0.00     0.210 C 
ENDBRANCH   3  25
BRANCH   4  27
HETATM   27  O   UNL     1       5.933  24.954  52.633  1.00  0.00    -0.272 OA
BRANCH  27  28
HETATM   28  C   UNL     1       7.304  24.849  52.749  1.00  0.00     0.300 C 
HETATM   29  O   UNL     1       8.177  25.554  52.274  1.00  0.00    -0.259 OA
BRANCH  28  30
HETATM   30  C   UNL     1       7.577  23.654  53.554  1.00  0.00     0.061 A 
HETATM   31  C   UNL     1       7.730  23.743  54.942  1.00  0.00     0.051 A 
HETATM   32 CL   UNL     1       7.610  25.242  55.791  1.00  0.00    -0.083 Cl
HETATM   33  C   UNL     1       8.009  22.592  55.682  1.00  0.00     0.048 A 
HETATM   34  C   UNL     1       8.141  21.366  55.030  1.00  0.00     0.035 A 
HETATM   35 CL   UNL     1       8.485  19.951  55.944  1.00  0.00    -0.084 Cl
HETATM   36  C   UNL     1       8.001  21.278  53.644  1.00  0.00     0.025 A 
HETATM   37  C   UNL     1       7.722  22.425  52.899  1.00  0.00     0.021 A 
ENDBRANCH  28  30
ENDBRANCH  27  28
ENDBRANCH   4  27
TORSDOF 5
ENDMDL
MODEL 10
REMARK VINA RESULT:      -9.2      5.978      8.845
REMARK  5 active torsions:
REMARK  status: ('A' for Active; 'I' for Inactive)
REMARK    1  A    between atoms: C_10  and  C_11 
REMARK    2  A    between atoms: C_13  and  O_14 
REMARK    3  A    between atoms: C_16  and  O_17 
REMARK    4  A    between atoms: O_17  and  C_18 
REMARK    5  A    between atoms: C_18  and  C_19 
ROOT
HETATM    1  C   UNL     1       4.141  28.844  53.563  1.00  0.00    -0.013 A 
HETATM    2  C   UNL     1       5.132  29.229  54.489  1.00  0.00     0.050 A 
HETATM    3  C   UNL     1       6.116  28.331  54.913  1.00  0.00     0.102 A 
HETATM    4  C   UNL     1       6.133  27.041  54.367  1.00  0.00     0.112 A 
HETATM    5  C   UNL     1       5.143  26.622  53.480  1.00  0.00     0.041 A 
HETATM    6  C   UNL     1       4.160  27.525  53.073  1.00  0.00     0.014 A 
ENDROOT
BRANCH   1   7
HETATM    7  C   UNL     1       3.112  29.820  53.016  1.00  0.00     0.219 C 
HETATM    8  N   UNL     1       3.652  31.147  52.796  1.00  0.00    -0.358 N 
HETATM    9  C   UNL     1       4.036  31.520  51.558  1.00  0.00     0.088 A 
HETATM   10  H   UNL     1       4.049  31.593  53.618  1.00  0.00     0.162 HD
HETATM   11  C   UNL     1       3.711  30.814  50.425  1.00  0.00     0.073 A 
HETATM   12  S   UNL     1       4.988  32.889  51.225  1.00  0.00    -0.074 SA
HETATM   13  C   UNL     1       4.259  31.415  49.246  1.00  0.00    -0.023 A 
HETATM   14  C   UNL     1       2.896  29.620  50.547  1.00  0.00     0.256 C 
HETATM   15  C   UNL     1       4.984  32.551  49.557  1.00  0.00     0.018 A 
HETATM   16  C   UNL     1       4.128  30.925  47.834  1.00  0.00     0.068 C 
HETATM   17  C   UNL     1       5.673  33.423  48.565  1.00  0.00     0.281 C 
HETATM   18  N   UNL     1       5.827  32.691  47.237  1.00  0.00    -0.070 N 
HETATM   19  C   UNL     1       6.379  33.580  46.168  1.00  0.00     0.270 C 
HETATM   20  H   UNL     1       6.514  31.944  47.403  1.00  0.00     0.279 HD
HETATM   21  C   UNL     1       4.527  32.009  46.816  1.00  0.00     0.239 C 
HETATM   22  N   UNL     1       2.501  29.306  51.816  1.00  0.00    -0.332 N 
HETATM   23  O   UNL     1       2.553  28.953  49.578  1.00  0.00    -0.267 OA
HETATM   24  H   UNL     1       1.999  28.432  51.886  1.00  0.00     0.165 HD
ENDBRANCH   1   7
BRANCH   3  25
HETATM   25  O   UNL     1       7.107  28.623  55.811  1.00  0.00    -0.353 OA
HETATM   26  C   UNL     1       6.724  28.768  57.171  1.00  0.00     0.210 C 
ENDBRANCH   3  25
BRANCH   4  27
HETATM   27  O   UNL     1       7.153  26.173  54.792  1.00  0.00    -0.272 OA
BRANCH  27  28
HETATM   28  C   UNL     1       6.750  25.104  55.564  1.00  0.00     0.300 C 
HETATM   29  O   UNL     1       6.090  25.092  56.588  1.00  0.00    -0.259 OA
BRANCH  28  30
HETATM   30  C   UNL     1       7.305  23.894  54.946  1.00  0.00     0.061 A 
HETATM   31  C   UNL     1       8.120  23.024  55.678  1.00  0.00     0.051 A 
HETATM   32 CL   UNL     1       8.522  23.307  57.333  1.00  0.00    -0.083 Cl
HETATM   33  C   UNL     1       8.651  21.890  55.060  1.00  0.00     0.048 A 
HETATM   34  C   UNL     1       8.371  21.640  53.716  1.00  0.00     0.035 A 
HETATM   35 CL   UNL     1       9.028  20.244  52.958  1.00  0.00    -0.084 Cl
HETATM   36  C   UNL     1       7.569  22.515  52.982  1.00  0.00     0.025 A 
HETATM   37  C   UNL     1       7.035  23.650  53.594  1.00  0.00     0.021 A 
ENDBRANCH  28  30
ENDBRANCH  27  28
ENDBRANCH   4  27
TORSDOF 5
ENDMDL
