MODEL 1
REMARK VINA RESULT:      -9.3      0.000      0.000
REMARK  6 active torsions:
REMARK  status: ('A' for Active; 'I' for Inactive)
REMARK    1  A    between atoms: C_2  and  C_3 
REMARK    2  A    between atoms: C_2  and  C_9 
REMARK    3  A    between atoms: C_9  and  C_10 
REMARK    4  A    between atoms: C_10  and  C_11 
REMARK       I    between atoms: C_11  and  N_12 
REMARK    5  A    between atoms: N_12  and  C_13 
REMARK    6  A    between atoms: C_20  and  C_21 
REMARK       I    between atoms: C_21  and  N_22 
ROOT
HETATM    1  C   UNL     1       6.086  27.764  54.219  1.00  0.00     0.035 A 
HETATM    2  C   UNL     1       7.310  28.301  54.627  1.00  0.00     0.046 A 
HETATM    3  C   UNL     1       7.569  28.512  56.000  1.00  0.00     0.030 A 
HETATM    4  C   UNL     1       6.593  28.185  56.929  1.00  0.00     0.063 A 
HETATM    5  N   UNL     1       7.134  28.495  58.147  1.00  0.00    -0.277 N 
HETATM    6  H   UNL     1       6.703  28.383  59.058  1.00  0.00     0.189 HD
HETATM    7  N   UNL     1       8.377  29.006  58.089  1.00  0.00    -0.168 NA
HETATM    8  C   UNL     1       8.658  29.025  56.767  1.00  0.00     0.156 A 
HETATM    9  C   UNL     1       5.354  27.658  56.568  1.00  0.00     0.034 A 
HETATM   10  C   UNL     1       5.124  27.462  55.199  1.00  0.00     0.032 A 
ENDROOT
BRANCH   1  11
HETATM   11  N   UNL     1       5.710  27.502  52.886  1.00  0.00    -0.327 N 
HETATM   12  C   UNL     1       6.062  26.569  51.954  1.00  0.00     0.222 C 
HETATM   13  O   UNL     1       5.525  26.656  50.845  1.00  0.00    -0.273 OA
HETATM   14  H   UNL     1       4.995  28.111  52.503  1.00  0.00     0.169 HD
BRANCH  12  15
HETATM   15  C   UNL     1       7.045  25.469  52.277  1.00  0.00     0.103 C 
BRANCH  15  16
HETATM   16  C   UNL     1       6.505  24.379  53.210  1.00  0.00     0.018 C 
BRANCH  16  17
HETATM   17  C   UNL     1       7.389  24.020  54.425  1.00  0.00     0.015 C 
HETATM   18  C   UNL     1       6.715  24.290  55.776  1.00  0.00     0.015 C 
BRANCH  17  19
HETATM   19  C   UNL     1       7.831  22.564  54.326  1.00  0.00    -0.054 A 
HETATM   20  C   UNL     1       8.012  21.933  53.085  1.00  0.00     0.007 A 
HETATM   21  C   UNL     1       8.429  20.602  53.015  1.00  0.00     0.001 A 
HETATM   22  C   UNL     1       8.671  19.885  54.183  1.00  0.00     0.000 A 
HETATM   23  C   UNL     1       8.499  20.498  55.422  1.00  0.00     0.001 A 
HETATM   24  C   UNL     1       8.084  21.829  55.494  1.00  0.00     0.007 A 
ENDBRANCH  17  19
ENDBRANCH  16  17
ENDBRANCH  15  16
ENDBRANCH  12  15
ENDBRANCH   1  11
BRANCH   8  25
HETATM   25  C   UNL     1       9.944  29.523  56.259  1.00  0.00     0.270 C 
HETATM   26  N   UNL     1      10.916  29.642  57.213  1.00  0.00    -0.365 N 
HETATM   27  H   UNL     1      10.695  29.389  58.168  1.00  0.00     0.159 HD
HETATM   28  H   UNL     1      11.832  29.980  56.958  1.00  0.00     0.159 HD
HETATM   29  O   UNL     1      10.157  29.819  55.088  1.00  0.00    -0.266 OA
ENDBRANCH   8  25
TORSDOF 6
ENDMDL
MODEL 2
REMARK VINA RESULT:      -9.0      3.043      5.205
REMARK  6 active torsions:
REMARK  status: ('A' for Active; 'I' for Inactive)
REMARK    1  A    between atoms: C_2  and  C_3 
REMARK    2  A    between atoms: C_2  and  C_9 
REMARK    3  A    between atoms: C_9  and  C_10 
REMARK    4  A    between atoms: C_10  and  C_11 
REMARK       I    between atoms: C_11  and  N_12 
REMARK    5  A    between atoms: N_12  and  C_13 
REMARK    6  A    between atoms: C_20  and  C_21 
REMARK       I    between atoms: C_21  and  N_22 
ROOT
HETATM    1  C   UNL     1       4.868  26.774  53.111  1.00  0.00     0.035 A 
HETATM    2  C   UNL     1       5.075  27.946  52.378  1.00  0.00     0.046 A 
HETATM    3  C   UNL     1       5.155  27.896  50.968  1.00  0.00     0.030 A 
HETATM    4  C   UNL     1       5.032  26.672  50.328  1.00  0.00     0.063 A 
HETATM    5  N   UNL     1       5.146  26.948  48.994  1.00  0.00    -0.277 N 
HETATM    6  H   UNL     1       5.100  26.290  48.224  1.00  0.00     0.189 HD
HETATM    7  N   UNL     1       5.344  28.248  48.710  1.00  0.00    -0.168 NA
HETATM    8  C   UNL     1       5.354  28.846  49.922  1.00  0.00     0.156 A 
HETATM    9  C   UNL     1       4.836  25.476  51.018  1.00  0.00     0.034 A 
HETATM   10  C   UNL     1       4.764  25.557  52.417  1.00  0.00     0.032 A 
ENDROOT
BRANCH   1  11
HETATM   11  N   UNL     1       4.766  26.693  54.514  1.00  0.00    -0.327 N 
HETATM   12  C   UNL     1       5.653  26.498  55.533  1.00  0.00     0.222 C 
HETATM   13  O   UNL     1       5.193  26.467  56.679  1.00  0.00    -0.273 OA
HETATM   14  H   UNL     1       3.837  26.835  54.897  1.00  0.00     0.169 HD
BRANCH  12  15
HETATM   15  C   UNL     1       7.133  26.349  55.268  1.00  0.00     0.103 C 
BRANCH  15  16
HETATM   16  C   UNL     1       7.642  24.904  55.264  1.00  0.00     0.018 C 
BRANCH  16  17
HETATM   17  C   UNL     1       7.388  24.093  53.974  1.00  0.00     0.015 C 
HETATM   18  C   UNL     1       8.085  24.671  52.736  1.00  0.00     0.015 C 
BRANCH  17  19
HETATM   19  C   UNL     1       7.798  22.640  54.191  1.00  0.00    -0.054 A 
HETATM   20  C   UNL     1       7.783  22.055  55.468  1.00  0.00     0.007 A 
HETATM   21  C   UNL     1       8.151  20.719  55.646  1.00  0.00     0.001 A 
HETATM   22  C   UNL     1       8.538  19.952  54.551  1.00  0.00     0.000 A 
HETATM   23  C   UNL     1       8.555  20.517  53.278  1.00  0.00     0.001 A 
HETATM   24  C   UNL     1       8.186  21.852  53.098  1.00  0.00     0.007 A 
ENDBRANCH  17  19
ENDBRANCH  16  17
ENDBRANCH  15  16
ENDBRANCH  12  15
ENDBRANCH   1  11
BRANCH   8  25
HETATM   25  C   UNL     1       5.550  30.295  50.065  1.00  0.00     0.270 C 
HETATM   26  N   UNL     1       4.422  30.982  50.422  1.00  0.00    -0.365 N 
HETATM   27  H   UNL     1       3.561  30.466  50.558  1.00  0.00     0.159 HD
HETATM   28  H   UNL     1       4.459  31.983  50.540  1.00  0.00     0.159 HD
HETATM   29  O   UNL     1       6.618  30.871  49.885  1.00  0.00    -0.266 OA
ENDBRANCH   8  25
TORSDOF 6
ENDMDL
MODEL 3
REMARK VINA RESULT:      -8.9      2.845      5.890
REMARK  6 active torsions:
REMARK  status: ('A' for Active; 'I' for Inactive)
REMARK    1  A    between atoms: C_2  and  C_3 
REMARK    2  A    between atoms: C_2  and  C_9 
REMARK    3  A    between atoms: C_9  and  C_10 
REMARK    4  A    between atoms: C_10  and  C_11 
REMARK       I    between atoms: C_11  and  N_12 
REMARK    5  A    between atoms: N_12  and  C_13 
REMARK    6  A    between atoms: C_20  and  C_21 
REMARK       I    between atoms: C_21  and  N_22 
ROOT
HETATM    1  C   UNL     1       5.417  28.584  52.209  1.00  0.00     0.035 A 
HETATM    2  C   UNL     1       5.372  28.063  50.913  1.00  0.00     0.046 A 
HETATM    3  C   UNL     1       4.155  28.056  50.194  1.00  0.00     0.030 A 
HETATM    4  C   UNL     1       3.014  28.568  50.793  1.00  0.00     0.063 A 
HETATM    5  N   UNL     1       2.023  28.428  49.862  1.00  0.00    -0.277 N 
HETATM    6  H   UNL     1       1.050  28.700  49.953  1.00  0.00     0.189 HD
HETATM    7  N   UNL     1       2.419  27.858  48.709  1.00  0.00    -0.168 NA
HETATM    8  C   UNL     1       3.736  27.621  48.901  1.00  0.00     0.156 A 
HETATM    9  C   UNL     1       3.010  29.088  52.087  1.00  0.00     0.034 A 
HETATM   10  C   UNL     1       4.231  29.077  52.777  1.00  0.00     0.032 A 
ENDROOT
BRANCH   1  11
HETATM   11  N   UNL     1       6.565  28.651  53.025  1.00  0.00    -0.327 N 
HETATM   12  C   UNL     1       7.068  27.890  54.040  1.00  0.00     0.222 C 
HETATM   13  O   UNL     1       8.125  28.269  54.554  1.00  0.00    -0.273 OA
HETATM   14  H   UNL     1       7.204  29.412  52.824  1.00  0.00     0.169 HD
BRANCH  12  15
HETATM   15  C   UNL     1       6.372  26.628  54.495  1.00  0.00     0.103 C 
BRANCH  15  16
HETATM   16  C   UNL     1       7.266  25.385  54.548  1.00  0.00     0.018 C 
BRANCH  16  17
HETATM   17  C   UNL     1       7.152  24.409  53.355  1.00  0.00     0.015 C 
HETATM   18  C   UNL     1       8.014  24.807  52.151  1.00  0.00     0.015 C 
BRANCH  17  19
HETATM   19  C   UNL     1       7.490  22.995  53.814  1.00  0.00    -0.054 A 
HETATM   20  C   UNL     1       7.850  21.991  52.901  1.00  0.00     0.007 A 
HETATM   21  C   UNL     1       8.168  20.705  53.342  1.00  0.00     0.001 A 
HETATM   22  C   UNL     1       8.130  20.405  54.701  1.00  0.00     0.000 A 
HETATM   23  C   UNL     1       7.777  21.391  55.620  1.00  0.00     0.001 A 
HETATM   24  C   UNL     1       7.461  22.678  55.180  1.00  0.00     0.007 A 
ENDBRANCH  17  19
ENDBRANCH  16  17
ENDBRANCH  15  16
ENDBRANCH  12  15
ENDBRANCH   1  11
BRANCH   8  25
HETATM   25  C   UNL     1       4.565  26.992  47.864  1.00  0.00     0.270 C 
HETATM   26  N   UNL     1       5.657  27.728  47.495  1.00  0.00    -0.365 N 
HETATM   27  H   UNL     1       5.815  28.622  47.944  1.00  0.00     0.159 HD
HETATM   28  H   UNL     1       6.283  27.378  46.786  1.00  0.00     0.159 HD
HETATM   29  O   UNL     1       4.324  25.904  47.351  1.00  0.00    -0.266 OA
ENDBRANCH   8  25
TORSDOF 6
ENDMDL
MODEL 4
REMARK VINA RESULT:      -8.9      2.384      4.255
REMARK  6 active torsions:
REMARK  status: ('A' for Active; 'I' for Inactive)
REMARK    1  A    between atoms: C_2  and  C_3 
REMARK    2  A    between atoms: C_2  and  C_9 
REMARK    3  A    between atoms: C_9  and  C_10 
REMARK    4  A    between atoms: C_10  and  C_11 
REMARK       I    between atoms: C_11  and  N_12 
REMARK    5  A    between atoms: N_12  and  C_13 
REMARK    6  A    between atoms: C_20  and  C_21 
REMARK       I    between atoms: C_21  and  N_22 
ROOT
HETATM    1  C   UNL     1       7.400  25.183  57.229  1.00  0.00     0.035 A 
HETATM    2  C   UNL     1       8.152  26.335  56.984  1.00  0.00     0.046 A 
HETATM    3  C   UNL     1       7.516  27.517  56.544  1.00  0.00     0.030 A 
HETATM    4  C   UNL     1       6.142  27.514  56.356  1.00  0.00     0.063 A 
HETATM    5  N   UNL     1       5.831  28.780  55.940  1.00  0.00    -0.277 N 
HETATM    6  H   UNL     1       4.913  29.143  55.712  1.00  0.00     0.189 HD
HETATM    7  N   UNL     1       6.888  29.605  55.831  1.00  0.00    -0.168 NA
HETATM    8  C   UNL     1       7.938  28.837  56.200  1.00  0.00     0.156 A 
HETATM    9  C   UNL     1       5.353  26.386  56.577  1.00  0.00     0.034 A 
HETATM   10  C   UNL     1       6.013  25.227  57.010  1.00  0.00     0.032 A 
ENDROOT
BRANCH   1  11
HETATM   11  N   UNL     1       7.914  23.949  57.674  1.00  0.00    -0.327 N 
HETATM   12  C   UNL     1       8.139  22.735  57.090  1.00  0.00     0.222 C 
HETATM   13  O   UNL     1       8.601  21.844  57.810  1.00  0.00    -0.273 OA
HETATM   14  H   UNL     1       8.226  23.923  58.638  1.00  0.00     0.169 HD
BRANCH  12  15
HETATM   15  C   UNL     1       7.856  22.505  55.624  1.00  0.00     0.103 C 
BRANCH  15  16
HETATM   16  C   UNL     1       8.739  23.312  54.666  1.00  0.00     0.018 C 
BRANCH  16  17
HETATM   17  C   UNL     1       8.255  23.402  53.201  1.00  0.00     0.015 C 
HETATM   18  C   UNL     1       7.688  22.084  52.659  1.00  0.00     0.015 C 
BRANCH  17  19
HETATM   19  C   UNL     1       7.230  24.524  53.068  1.00  0.00    -0.054 A 
HETATM   20  C   UNL     1       5.853  24.257  53.006  1.00  0.00     0.007 A 
HETATM   21  C   UNL     1       4.929  25.299  52.896  1.00  0.00     0.001 A 
HETATM   22  C   UNL     1       5.368  26.618  52.847  1.00  0.00     0.000 A 
HETATM   23  C   UNL     1       6.732  26.899  52.910  1.00  0.00     0.001 A 
HETATM   24  C   UNL     1       7.657  25.859  53.022  1.00  0.00     0.007 A 
ENDBRANCH  17  19
ENDBRANCH  16  17
ENDBRANCH  15  16
ENDBRANCH  12  15
ENDBRANCH   1  11
BRANCH   8  25
HETATM   25  C   UNL     1       9.309  29.364  56.219  1.00  0.00     0.270 C 
HETATM   26  N   UNL     1       9.851  29.472  57.469  1.00  0.00    -0.365 N 
HETATM   27  H   UNL     1       9.294  29.193  58.267  1.00  0.00     0.159 HD
HETATM   28  H   UNL     1      10.788  29.828  57.582  1.00  0.00     0.159 HD
HETATM   29  O   UNL     1       9.939  29.690  55.218  1.00  0.00    -0.266 OA
ENDBRANCH   8  25
TORSDOF 6
ENDMDL
MODEL 5
REMARK VINA RESULT:      -8.9      2.277      3.230
REMARK  6 active torsions:
REMARK  status: ('A' for Active; 'I' for Inactive)
REMARK    1  A    between atoms: C_2  and  C_3 
REMARK    2  A    between atoms: C_2  and  C_9 
REMARK    3  A    between atoms: C_9  and  C_10 
REMARK    4  A    between atoms: C_10  and  C_11 
REMARK       I    between atoms: C_11  and  N_12 
REMARK    5  A    between atoms: N_12  and  C_13 
REMARK    6  A    between atoms: C_20  and  C_21 
REMARK       I    between atoms: C_21  and  N_22 
ROOT
HETATM    1  C   UNL     1       7.307  29.021  55.951  1.00  0.00     0.035 A 
HETATM    2  C   UNL     1       7.138  29.704  57.158  1.00  0.00     0.046 A 
HETATM    3  C   UNL     1       8.251  30.287  57.806  1.00  0.00     0.030 A 
HETATM    4  C   UNL     1       9.506  30.166  57.229  1.00  0.00     0.063 A 
HETATM    5  N   UNL     1      10.357  30.825  58.074  1.00  0.00    -0.277 N 
HETATM    6  H   UNL     1      11.358  30.946  57.966  1.00  0.00     0.189 HD
HETATM    7  N   UNL     1       9.764  31.357  59.157  1.00  0.00    -0.168 NA
HETATM    8  C   UNL     1       8.460  31.030  59.006  1.00  0.00     0.156 A 
HETATM    9  C   UNL     1       9.725  29.484  56.032  1.00  0.00     0.034 A 
HETATM   10  C   UNL     1       8.602  28.913  55.415  1.00  0.00     0.032 A 
ENDROOT
BRANCH   1  11
HETATM   11  N   UNL     1       6.281  28.403  55.209  1.00  0.00    -0.327 N 
HETATM   12  C   UNL     1       5.822  27.122  55.084  1.00  0.00     0.222 C 
HETATM   13  O   UNL     1       4.884  26.938  54.304  1.00  0.00    -0.273 OA
HETATM   14  H   UNL     1       5.710  29.023  54.646  1.00  0.00     0.169 HD
BRANCH  12  15
HETATM   15  C   UNL     1       6.425  25.991  55.884  1.00  0.00     0.103 C 
BRANCH  15  16
HETATM   16  C   UNL     1       7.583  25.263  55.193  1.00  0.00     0.018 C 
BRANCH  16  17
HETATM   17  C   UNL     1       7.237  24.512  53.887  1.00  0.00     0.015 C 
HETATM   18  C   UNL     1       7.928  25.089  52.645  1.00  0.00     0.015 C 
BRANCH  17  19
HETATM   19  C   UNL     1       7.562  23.031  54.044  1.00  0.00    -0.054 A 
HETATM   20  C   UNL     1       7.870  22.224  52.937  1.00  0.00     0.007 A 
HETATM   21  C   UNL     1       8.177  20.871  53.103  1.00  0.00     0.001 A 
HETATM   22  C   UNL     1       8.182  20.309  54.376  1.00  0.00     0.000 A 
HETATM   23  C   UNL     1       7.882  21.098  55.485  1.00  0.00     0.001 A 
HETATM   24  C   UNL     1       7.576  22.450  55.321  1.00  0.00     0.007 A 
ENDBRANCH  17  19
ENDBRANCH  16  17
ENDBRANCH  15  16
ENDBRANCH  12  15
ENDBRANCH   1  11
BRANCH   8  25
HETATM   25  C   UNL     1       7.447  31.425  59.993  1.00  0.00     0.270 C 
HETATM   26  N   UNL     1       7.657  30.921  61.247  1.00  0.00    -0.365 N 
HETATM   27  H   UNL     1       8.466  30.332  61.405  1.00  0.00     0.159 HD
HETATM   28  H   UNL     1       7.010  31.135  61.990  1.00  0.00     0.159 HD
HETATM   29  O   UNL     1       6.482  32.141  59.746  1.00  0.00    -0.266 OA
ENDBRANCH   8  25
TORSDOF 6
ENDMDL
MODEL 6
REMARK VINA RESULT:      -8.6      2.005      2.848
REMARK  6 active torsions:
REMARK  status: ('A' for Active; 'I' for Inactive)
REMARK    1  A    between atoms: C_2  and  C_3 
REMARK    2  A    between atoms: C_2  and  C_9 
REMARK    3  A    between atoms: C_9  and  C_10 
REMARK    4  A    between atoms: C_10  and  C_11 
REMARK       I    between atoms: C_11  and  N_12 
REMARK    5  A    between atoms: N_12  and  C_13 
REMARK    6  A    between atoms: C_20  and  C_21 
REMARK       I    between atoms: C_21  and  N_22 
ROOT
HETATM    1  C   UNL     1       6.451  28.322  54.220  1.00  0.00     0.035 A 
HETATM    2  C   UNL     1       5.760  29.050  55.193  1.00  0.00     0.046 A 
HETATM    3  C   UNL     1       6.455  29.601  56.293  1.00  0.00     0.030 A 
HETATM    4  C   UNL     1       7.824  29.404  56.394  1.00  0.00     0.063 A 
HETATM    5  N   UNL     1       8.199  30.049  57.540  1.00  0.00    -0.277 N 
HETATM    6  H   UNL     1       9.133  30.120  57.928  1.00  0.00     0.189 HD
HETATM    7  N   UNL     1       7.188  30.642  58.201  1.00  0.00    -0.168 NA
HETATM    8  C   UNL     1       6.102  30.371  57.442  1.00  0.00     0.156 A 
HETATM    9  C   UNL     1       8.552  28.676  55.454  1.00  0.00     0.034 A 
HETATM   10  C   UNL     1       7.835  28.139  54.375  1.00  0.00     0.032 A 
ENDROOT
BRANCH   1  11
HETATM   11  N   UNL     1       5.875  27.729  53.079  1.00  0.00    -0.327 N 
HETATM   12  C   UNL     1       5.286  26.526  52.813  1.00  0.00     0.222 C 
HETATM   13  O   UNL     1       4.898  26.335  51.657  1.00  0.00    -0.273 OA
HETATM   14  H   UNL     1       5.848  28.309  52.247  1.00  0.00     0.169 HD
BRANCH  12  15
HETATM   15  C   UNL     1       5.099  25.488  53.896  1.00  0.00     0.103 C 
BRANCH  15  16
HETATM   16  C   UNL     1       6.370  24.718  54.272  1.00  0.00     0.018 C 
BRANCH  16  17
HETATM   17  C   UNL     1       6.995  23.847  53.160  1.00  0.00     0.015 C 
HETATM   18  C   UNL     1       8.101  24.558  52.371  1.00  0.00     0.015 C 
BRANCH  17  19
HETATM   19  C   UNL     1       7.516  22.545  53.760  1.00  0.00    -0.054 A 
HETATM   20  C   UNL     1       8.005  21.506  52.952  1.00  0.00     0.007 A 
HETATM   21  C   UNL     1       8.489  20.326  53.521  1.00  0.00     0.001 A 
HETATM   22  C   UNL     1       8.490  20.168  54.903  1.00  0.00     0.000 A 
HETATM   23  C   UNL     1       8.011  21.191  55.719  1.00  0.00     0.001 A 
HETATM   24  C   UNL     1       7.528  22.372  55.152  1.00  0.00     0.007 A 
ENDBRANCH  17  19
ENDBRANCH  16  17
ENDBRANCH  15  16
ENDBRANCH  12  15
ENDBRANCH   1  11
BRANCH   8  25
HETATM   25  C   UNL     1       4.763  30.843  57.817  1.00  0.00     0.270 C 
HETATM   26  N   UNL     1       3.883  29.845  58.132  1.00  0.00    -0.365 N 
HETATM   27  H   UNL     1       4.201  28.884  58.087  1.00  0.00     0.159 HD
HETATM   28  H   UNL     1       2.937  30.073  58.397  1.00  0.00     0.159 HD
HETATM   29  O   UNL     1       4.429  32.023  57.851  1.00  0.00    -0.266 OA
ENDBRANCH   8  25
TORSDOF 6
ENDMDL
MODEL 7
REMARK VINA RESULT:      -8.6      2.284      3.760
REMARK  6 active torsions:
REMARK  status: ('A' for Active; 'I' for Inactive)
REMARK    1  A    between atoms: C_2  and  C_3 
REMARK    2  A    between atoms: C_2  and  C_9 
REMARK    3  A    between atoms: C_9  and  C_10 
REMARK    4  A    between atoms: C_10  and  C_11 
REMARK       I    between atoms: C_11  and  N_12 
REMARK    5  A    between atoms: N_12  and  C_13 
REMARK    6  A    between atoms: C_20  and  C_21 
REMARK       I    between atoms: C_21  and  N_22 
ROOT
HETATM    1  C   UNL     1       6.069  28.130  53.457  1.00  0.00     0.035 A 
HETATM    2  C   UNL     1       5.288  28.749  54.437  1.00  0.00     0.046 A 
HETATM    3  C   UNL     1       5.878  29.178  55.648  1.00  0.00     0.030 A 
HETATM    4  C   UNL     1       7.234  28.970  55.849  1.00  0.00     0.063 A 
HETATM    5  N   UNL     1       7.500  29.487  57.086  1.00  0.00    -0.277 N 
HETATM    6  H   UNL     1       8.395  29.515  57.562  1.00  0.00     0.189 HD
HETATM    7  N   UNL     1       6.430  30.006  57.714  1.00  0.00    -0.168 NA
HETATM    8  C   UNL     1       5.418  29.820  56.837  1.00  0.00     0.156 A 
HETATM    9  C   UNL     1       8.050  28.346  54.905  1.00  0.00     0.034 A 
HETATM   10  C   UNL     1       7.436  27.929  53.715  1.00  0.00     0.032 A 
ENDROOT
BRANCH   1  11
HETATM   11  N   UNL     1       5.602  27.664  52.212  1.00  0.00    -0.327 N 
HETATM   12  C   UNL     1       5.790  26.528  51.479  1.00  0.00     0.222 C 
HETATM   13  O   UNL     1       5.218  26.465  50.387  1.00  0.00    -0.273 OA
HETATM   14  H   UNL     1       4.952  28.274  51.729  1.00  0.00     0.169 HD
BRANCH  12  15
HETATM   15  C   UNL     1       6.641  25.391  51.996  1.00  0.00     0.103 C 
BRANCH  15  16
HETATM   16  C   UNL     1       5.936  24.463  52.991  1.00  0.00     0.018 C 
BRANCH  16  17
HETATM   17  C   UNL     1       6.851  23.633  53.919  1.00  0.00     0.015 C 
HETATM   18  C   UNL     1       8.206  23.282  53.292  1.00  0.00     0.015 C 
BRANCH  17  19
HETATM   19  C   UNL     1       7.045  24.368  55.241  1.00  0.00    -0.054 A 
HETATM   20  C   UNL     1       8.287  24.388  55.896  1.00  0.00     0.007 A 
HETATM   21  C   UNL     1       8.448  25.076  57.100  1.00  0.00     0.001 A 
HETATM   22  C   UNL     1       7.372  25.755  57.664  1.00  0.00     0.000 A 
HETATM   23  C   UNL     1       6.134  25.747  57.024  1.00  0.00     0.001 A 
HETATM   24  C   UNL     1       5.972  25.060  55.820  1.00  0.00     0.007 A 
ENDBRANCH  17  19
ENDBRANCH  16  17
ENDBRANCH  15  16
ENDBRANCH  12  15
ENDBRANCH   1  11
BRANCH   8  25
HETATM   25  C   UNL     1       4.046  30.250  57.139  1.00  0.00     0.270 C 
HETATM   26  N   UNL     1       3.676  30.073  58.443  1.00  0.00    -0.365 N 
HETATM   27  H   UNL     1       4.346  29.672  59.088  1.00  0.00     0.159 HD
HETATM   28  H   UNL     1       2.750  30.336  58.743  1.00  0.00     0.159 HD
HETATM   29  O   UNL     1       3.274  30.729  56.314  1.00  0.00    -0.266 OA
ENDBRANCH   8  25
TORSDOF 6
ENDMDL
MODEL 8
REMARK VINA RESULT:      -8.5      2.595      5.598
REMARK  6 active torsions:
REMARK  status: ('A' for Active; 'I' for Inactive)
REMARK    1  A    between atoms: C_2  and  C_3 
REMARK    2  A    between atoms: C_2  and  C_9 
REMARK    3  A    between atoms: C_9  and  C_10 
REMARK    4  A    between atoms: C_10  and  C_11 
REMARK       I    between atoms: C_11  and  N_12 
REMARK    5  A    between atoms: N_12  and  C_13 
REMARK    6  A    between atoms: C_20  and  C_21 
REMARK       I    between atoms: C_21  and  N_22 
ROOT
HETATM    1  C   UNL     1       5.941  27.297  53.416  1.00  0.00     0.035 A 
HETATM    2  C   UNL     1       4.956  27.971  52.690  1.00  0.00     0.046 A 
HETATM    3  C   UNL     1       4.684  27.603  51.353  1.00  0.00     0.030 A 
HETATM    4  C   UNL     1       5.410  26.572  50.776  1.00  0.00     0.063 A 
HETATM    5  N   UNL     1       4.921  26.453  49.504  1.00  0.00    -0.277 N 
HETATM    6  H   UNL     1       5.215  25.794  48.792  1.00  0.00     0.189 HD
HETATM    7  N   UNL     1       3.945  27.326  49.199  1.00  0.00    -0.168 NA
HETATM    8  C   UNL     1       3.789  28.046  50.333  1.00  0.00     0.156 A 
HETATM    9  C   UNL     1       6.409  25.879  51.458  1.00  0.00     0.034 A 
HETATM   10  C   UNL     1       6.659  26.269  52.782  1.00  0.00     0.032 A 
ENDROOT
BRANCH   1  11
HETATM   11  N   UNL     1       6.301  27.566  54.752  1.00  0.00    -0.327 N 
HETATM   12  C   UNL     1       6.175  26.896  55.935  1.00  0.00     0.222 C 
HETATM   13  O   UNL     1       6.604  27.460  56.946  1.00  0.00    -0.273 OA
HETATM   14  H   UNL     1       6.795  28.438  54.908  1.00  0.00     0.169 HD
BRANCH  12  15
HETATM   15  C   UNL     1       5.559  25.518  55.995  1.00  0.00     0.103 C 
BRANCH  15  16
HETATM   16  C   UNL     1       6.456  24.441  56.615  1.00  0.00     0.018 C 
BRANCH  16  17
HETATM   17  C   UNL     1       7.852  24.263  55.976  1.00  0.00     0.015 C 
HETATM   18  C   UNL     1       9.000  24.292  56.992  1.00  0.00     0.015 C 
BRANCH  17  19
HETATM   19  C   UNL     1       7.884  22.972  55.165  1.00  0.00    -0.054 A 
HETATM   20  C   UNL     1       7.875  21.712  55.786  1.00  0.00     0.007 A 
HETATM   21  C   UNL     1       7.893  20.541  55.025  1.00  0.00     0.001 A 
HETATM   22  C   UNL     1       7.920  20.613  53.636  1.00  0.00     0.000 A 
HETATM   23  C   UNL     1       7.926  21.856  53.005  1.00  0.00     0.001 A 
HETATM   24  C   UNL     1       7.906  23.027  53.763  1.00  0.00     0.007 A 
ENDBRANCH  17  19
ENDBRANCH  16  17
ENDBRANCH  15  16
ENDBRANCH  12  15
ENDBRANCH   1  11
BRANCH   8  25
HETATM   25  C   UNL     1       2.802  29.131  50.429  1.00  0.00     0.270 C 
HETATM   26  N   UNL     1       1.677  28.806  51.135  1.00  0.00    -0.365 N 
HETATM   27  H   UNL     1       1.602  27.877  51.530  1.00  0.00     0.159 HD
HETATM   28  H   UNL     1       0.942  29.487  51.250  1.00  0.00     0.159 HD
HETATM   29  O   UNL     1       2.944  30.241  49.927  1.00  0.00    -0.266 OA
ENDBRANCH   8  25
TORSDOF 6
ENDMDL
MODEL 9
REMARK VINA RESULT:      -8.4      2.015      4.655
REMARK  6 active torsions:
REMARK  status: ('A' for Active; 'I' for Inactive)
REMARK    1  A    between atoms: C_2  and  C_3 
REMARK    2  A    between atoms: C_2  and  C_9 
REMARK    3  A    between atoms: C_9  and  C_10 
REMARK    4  A    between atoms: C_10  and  C_11 
REMARK       I    between atoms: C_11  and  N_12 
REMARK    5  A    between atoms: N_12  and  C_13 
REMARK    6  A    between atoms: C_20  and  C_21 
REMARK       I    between atoms: C_21  and  N_22 
ROOT
HETATM    1  C   UNL     1       5.786  28.457  55.434  1.00  0.00     0.035 A 
HETATM    2  C   UNL     1       5.682  27.991  54.121  1.00  0.00     0.046 A 
HETATM    3  C   UNL     1       4.667  28.486  53.271  1.00  0.00     0.030 A 
HETATM    4  C   UNL     1       3.779  29.431  53.760  1.00  0.00     0.063 A 
HETATM    5  N   UNL     1       2.936  29.708  52.719  1.00  0.00    -0.277 N 
HETATM    6  H   UNL     1       2.161  30.362  52.713  1.00  0.00     0.189 HD
HETATM    7  N   UNL     1       3.194  29.016  51.596  1.00  0.00    -0.168 NA
HETATM    8  C   UNL     1       4.261  28.253  51.923  1.00  0.00     0.156 A 
HETATM    9  C   UNL     1       3.837  29.917  55.066  1.00  0.00     0.034 A 
HETATM   10  C   UNL     1       4.852  29.405  55.887  1.00  0.00     0.032 A 
ENDROOT
BRANCH   1  11
HETATM   11  N   UNL     1       6.752  28.047  56.375  1.00  0.00    -0.327 N 
HETATM   12  C   UNL     1       7.090  26.856  56.950  1.00  0.00     0.222 C 
HETATM   13  O   UNL     1       8.009  26.872  57.773  1.00  0.00    -0.273 OA
HETATM   14  H   UNL     1       7.380  28.772  56.705  1.00  0.00     0.169 HD
BRANCH  12  15
HETATM   15  C   UNL     1       6.382  25.575  56.573  1.00  0.00     0.103 C 
BRANCH  15  16
HETATM   16  C   UNL     1       7.299  24.468  56.041  1.00  0.00     0.018 C 
BRANCH  16  17
HETATM   17  C   UNL     1       7.026  23.990  54.597  1.00  0.00     0.015 C 
HETATM   18  C   UNL     1       7.581  24.934  53.522  1.00  0.00     0.015 C 
BRANCH  17  19
HETATM   19  C   UNL     1       7.577  22.580  54.410  1.00  0.00    -0.054 A 
HETATM   20  C   UNL     1       7.859  22.064  53.135  1.00  0.00     0.007 A 
HETATM   21  C   UNL     1       8.374  20.774  52.985  1.00  0.00     0.001 A 
HETATM   22  C   UNL     1       8.615  19.986  54.106  1.00  0.00     0.000 A 
HETATM   23  C   UNL     1       8.344  20.485  55.378  1.00  0.00     0.001 A 
HETATM   24  C   UNL     1       7.830  21.775  55.530  1.00  0.00     0.007 A 
ENDBRANCH  17  19
ENDBRANCH  16  17
ENDBRANCH  15  16
ENDBRANCH  12  15
ENDBRANCH   1  11
BRANCH   8  25
HETATM   25  C   UNL     1       4.871  27.327  50.960  1.00  0.00     0.270 C 
HETATM   26  N   UNL     1       4.742  26.007  51.290  1.00  0.00    -0.365 N 
HETATM   27  H   UNL     1       4.253  25.765  52.144  1.00  0.00     0.159 HD
HETATM   28  H   UNL     1       5.133  25.297  50.690  1.00  0.00     0.159 HD
HETATM   29  O   UNL     1       5.456  27.676  49.939  1.00  0.00    -0.266 OA
ENDBRANCH   8  25
TORSDOF 6
ENDMDL
MODEL 10
REMARK VINA RESULT:      -8.3      2.213      2.605
REMARK  6 active torsions:
REMARK  status: ('A' for Active; 'I' for Inactive)
REMARK    1  A    between atoms: C_2  and  C_3 
REMARK    2  A    between atoms: C_2  and  C_9 
REMARK    3  A    between atoms: C_9  and  C_10 
REMARK    4  A    between atoms: C_10  and  C_11 
REMARK       I    between atoms: C_11  and  N_12 
REMARK    5  A    between atoms: N_12  and  C_13 
REMARK    6  A    between atoms: C_20  and  C_21 
REMARK       I    between atoms: C_21  and  N_22 
ROOT
HETATM    1  C   UNL     1       4.793  28.837  55.339  1.00  0.00     0.035 A 
HETATM    2  C   UNL     1       5.776  28.923  56.328  1.00  0.00     0.046 A 
HETATM    3  C   UNL     1       5.982  30.138  57.019  1.00  0.00     0.030 A 
HETATM    4  C   UNL     1       5.200  31.238  56.699  1.00  0.00     0.063 A 
HETATM    5  N   UNL     1       5.627  32.239  57.527  1.00  0.00    -0.277 N 
HETATM    6  H   UNL     1       5.276  33.189  57.575  1.00  0.00     0.189 HD
HETATM    7  N   UNL     1       6.628  31.888  58.354  1.00  0.00    -0.168 NA
HETATM    8  C   UNL     1       6.859  30.591  58.050  1.00  0.00     0.156 A 
HETATM    9  C   UNL     1       4.216  31.202  55.711  1.00  0.00     0.034 A 
HETATM   10  C   UNL     1       4.037  29.984  55.040  1.00  0.00     0.032 A 
ENDROOT
BRANCH   1  11
HETATM   11  N   UNL     1       4.489  27.686  54.584  1.00  0.00    -0.327 N 
HETATM   12  C   UNL     1       5.224  26.672  54.039  1.00  0.00     0.222 C 
HETATM   13  O   UNL     1       4.606  25.810  53.407  1.00  0.00    -0.273 OA
HETATM   14  H   UNL     1       3.504  27.523  54.407  1.00  0.00     0.169 HD
BRANCH  12  15
HETATM   15  C   UNL     1       6.722  26.601  54.225  1.00  0.00     0.103 C 
BRANCH  15  16
HETATM   16  C   UNL     1       7.267  25.196  54.508  1.00  0.00     0.018 C 
BRANCH  16  17
HETATM   17  C   UNL     1       7.167  24.178  53.350  1.00  0.00     0.015 C 
HETATM   18  C   UNL     1       7.994  24.565  52.118  1.00  0.00     0.015 C 
BRANCH  17  19
HETATM   19  C   UNL     1       7.562  22.792  53.850  1.00  0.00    -0.054 A 
HETATM   20  C   UNL     1       7.956  21.776  52.964  1.00  0.00     0.007 A 
HETATM   21  C   UNL     1       8.326  20.517  53.442  1.00  0.00     0.001 A 
HETATM   22  C   UNL     1       8.308  20.257  54.809  1.00  0.00     0.000 A 
HETATM   23  C   UNL     1       7.922  21.256  55.700  1.00  0.00     0.001 A 
HETATM   24  C   UNL     1       7.554  22.516  55.225  1.00  0.00     0.007 A 
ENDBRANCH  17  19
ENDBRANCH  16  17
ENDBRANCH  15  16
ENDBRANCH  12  15
ENDBRANCH   1  11
BRANCH   8  25
HETATM   25  C   UNL     1       7.898  29.812  58.736  1.00  0.00     0.270 C 
HETATM   26  N   UNL     1       8.141  30.209  60.022  1.00  0.00    -0.365 N 
HETATM   27  H   UNL     1       7.610  30.983  60.401  1.00  0.00     0.159 HD
HETATM   28  H   UNL     1       8.842  29.735  60.571  1.00  0.00     0.159 HD
HETATM   29  O   UNL     1       8.516  28.882  58.227  1.00  0.00    -0.266 OA
ENDBRANCH   8  25
TORSDOF 6
ENDMDL
