MODEL 1
REMARK VINA RESULT:      -9.4      0.000      0.000
REMARK  4 active torsions:
REMARK  status: ('A' for Active; 'I' for Inactive)
REMARK    1  A    between atoms: O_2  and  C_3 
REMARK    2  A    between atoms: C_4  and  N_5 
REMARK    3  A    between atoms: N_8  and  C_9 
REMARK    4  A    between atoms: C_9  and  C_10 
ROOT
HETATM    1  N   UNL     1       6.941  24.925  55.923  1.00  0.00    -0.375 N 
HETATM    2  C   UNL     1       5.831  25.808  55.524  1.00  0.00     0.153 C 
HETATM    3  C   UNL     1       5.417  26.718  56.709  1.00  0.00     0.292 C 
HETATM    4  N   UNL     1       6.511  27.520  57.316  1.00  0.00     0.095 N 
HETATM    5  C   UNL     1       7.629  26.592  57.636  1.00  0.00     0.292 C 
HETATM    6  C   UNL     1       8.093  25.667  56.484  1.00  0.00     0.153 C 
ENDROOT
BRANCH   4   7
HETATM    7  C   UNL     1       6.937  28.602  56.405  1.00  0.00     0.313 C 
BRANCH   7   8
HETATM    8  C   UNL     1       8.177  29.333  56.877  1.00  0.00    -0.001 A 
HETATM    9  C   UNL     1       8.223  30.152  58.019  1.00  0.00     0.070 A 
HETATM   10  C   UNL     1       9.348  30.849  58.434  1.00  0.00     0.012 A 
HETATM   11  N   UNL     1       7.260  30.434  58.957  1.00  0.00    -0.277 N 
HETATM   12  C   UNL     1       8.941  31.512  59.614  1.00  0.00     0.152 A 
HETATM   13  C   UNL     1      10.528  30.758  57.679  1.00  0.00     0.015 A 
HETATM   14  N   UNL     1       7.668  31.264  59.936  1.00  0.00    -0.186 NA
HETATM   15  C   UNL     1      10.523  29.965  56.524  1.00  0.00     0.002 A 
HETATM   16  C   UNL     1       9.372  29.276  56.132  1.00  0.00     0.011 A 
HETATM   17  H   UNL     1       6.318  30.054  58.979  1.00  0.00     0.189 HD
ENDBRANCH   7   8
ENDBRANCH   4   7
BRANCH   1  18
HETATM   18  C   UNL     1       7.308  23.845  55.097  1.00  0.00     0.064 A 
HETATM   19  C   UNL     1       7.856  22.612  55.529  1.00  0.00     0.097 A 
HETATM   20  C   UNL     1       8.154  21.599  54.604  1.00  0.00     0.081 A 
HETATM   21  C   UNL     1       7.963  21.816  53.248  1.00  0.00     0.119 A 
HETATM   22  C   UNL     1       7.472  23.022  52.785  1.00  0.00     0.044 A 
HETATM   23  F   UNL     1       8.256  20.842  52.376  1.00  0.00    -0.206 F 
HETATM   24  C   UNL     1       7.150  24.022  53.703  1.00  0.00     0.035 A 
BRANCH  19  25
HETATM   25  O   UNL     1       8.004  22.371  56.875  1.00  0.00    -0.354 OA
HETATM   26  C   UNL     1       8.385  21.032  57.185  1.00  0.00     0.210 C 
ENDBRANCH  19  25
ENDBRANCH   1  18
TORSDOF 4
ENDMDL
MODEL 2
REMARK VINA RESULT:      -9.2      3.482      8.164
REMARK  4 active torsions:
REMARK  status: ('A' for Active; 'I' for Inactive)
REMARK    1  A    between atoms: O_2  and  C_3 
REMARK    2  A    between atoms: C_4  and  N_5 
REMARK    3  A    between atoms: N_8  and  C_9 
REMARK    4  A    between atoms: C_9  and  C_10 
ROOT
HETATM    1  N   UNL     1       7.024  27.656  56.616  1.00  0.00    -0.375 N 
HETATM    2  C   UNL     1       7.296  26.333  57.204  1.00  0.00     0.153 C 
HETATM    3  C   UNL     1       6.462  25.243  56.483  1.00  0.00     0.292 C 
HETATM    4  N   UNL     1       6.620  25.185  55.006  1.00  0.00     0.095 N 
HETATM    5  C   UNL     1       6.403  26.557  54.473  1.00  0.00     0.292 C 
HETATM    6  C   UNL     1       7.221  27.685  55.149  1.00  0.00     0.153 C 
ENDROOT
BRANCH   4   7
HETATM    7  C   UNL     1       7.951  24.658  54.641  1.00  0.00     0.313 C 
BRANCH   7   8
HETATM    8  C   UNL     1       7.950  23.171  54.349  1.00  0.00    -0.001 A 
HETATM    9  C   UNL     1       8.148  22.176  55.322  1.00  0.00     0.070 A 
HETATM   10  C   UNL     1       8.180  20.816  55.050  1.00  0.00     0.012 A 
HETATM   11  N   UNL     1       8.320  22.275  56.681  1.00  0.00    -0.277 N 
HETATM   12  C   UNL     1       8.384  20.207  56.309  1.00  0.00     0.152 A 
HETATM   13  C   UNL     1       8.019  20.377  53.726  1.00  0.00     0.015 A 
HETATM   14  N   UNL     1       8.472  21.092  57.306  1.00  0.00    -0.186 NA
HETATM   15  C   UNL     1       7.836  21.336  52.722  1.00  0.00     0.002 A 
HETATM   16  C   UNL     1       7.809  22.700  53.028  1.00  0.00     0.011 A 
HETATM   17  H   UNL     1       8.309  23.133  57.223  1.00  0.00     0.189 HD
ENDBRANCH   7   8
ENDBRANCH   4   7
BRANCH   1  18
HETATM   18  C   UNL     1       7.470  28.819  57.273  1.00  0.00     0.064 A 
HETATM   19  C   UNL     1       6.654  29.877  57.744  1.00  0.00     0.097 A 
HETATM   20  C   UNL     1       7.220  30.975  58.412  1.00  0.00     0.081 A 
HETATM   21  C   UNL     1       8.596  31.058  58.572  1.00  0.00     0.119 A 
HETATM   22  C   UNL     1       9.428  30.067  58.085  1.00  0.00     0.044 A 
HETATM   23  F   UNL     1       9.123  32.113  59.207  1.00  0.00    -0.206 F 
HETATM   24  C   UNL     1       8.866  28.963  57.444  1.00  0.00     0.035 A 
BRANCH  19  25
HETATM   25  O   UNL     1       5.287  29.779  57.633  1.00  0.00    -0.354 OA
HETATM   26  C   UNL     1       4.752  30.422  56.477  1.00  0.00     0.210 C 
ENDBRANCH  19  25
ENDBRANCH   1  18
TORSDOF 4
ENDMDL
MODEL 3
REMARK VINA RESULT:      -8.9      4.168      8.586
REMARK  4 active torsions:
REMARK  status: ('A' for Active; 'I' for Inactive)
REMARK    1  A    between atoms: O_2  and  C_3 
REMARK    2  A    between atoms: C_4  and  N_5 
REMARK    3  A    between atoms: N_8  and  C_9 
REMARK    4  A    between atoms: C_9  and  C_10 
ROOT
HETATM    1  N   UNL     1       7.747  30.281  57.926  1.00  0.00    -0.375 N 
HETATM    2  C   UNL     1       6.475  29.609  57.612  1.00  0.00     0.153 C 
HETATM    3  C   UNL     1       6.399  29.284  56.098  1.00  0.00     0.292 C 
HETATM    4  N   UNL     1       7.537  28.499  55.552  1.00  0.00     0.095 N 
HETATM    5  C   UNL     1       8.794  29.184  55.956  1.00  0.00     0.292 C 
HETATM    6  C   UNL     1       8.930  29.522  57.460  1.00  0.00     0.153 C 
ENDROOT
BRANCH   4   7
HETATM    7  C   UNL     1       7.491  27.104  56.033  1.00  0.00     0.313 C 
BRANCH   7   8
HETATM    8  C   UNL     1       7.536  26.080  54.918  1.00  0.00    -0.001 A 
HETATM    9  C   UNL     1       7.664  24.695  55.123  1.00  0.00     0.070 A 
HETATM   10  C   UNL     1       7.739  23.760  54.101  1.00  0.00     0.012 A 
HETATM   11  N   UNL     1       7.719  23.963  56.284  1.00  0.00    -0.277 N 
HETATM   12  C   UNL     1       7.844  22.516  54.765  1.00  0.00     0.152 A 
HETATM   13  C   UNL     1       7.697  24.196  52.767  1.00  0.00     0.015 A 
HETATM   14  N   UNL     1       7.834  22.636  56.096  1.00  0.00    -0.186 NA
HETATM   15  C   UNL     1       7.586  25.569  52.517  1.00  0.00     0.002 A 
HETATM   16  C   UNL     1       7.514  26.487  53.569  1.00  0.00     0.011 A 
HETATM   17  H   UNL     1       7.651  24.334  57.227  1.00  0.00     0.189 HD
ENDBRANCH   7   8
ENDBRANCH   4   7
BRANCH   1  18
HETATM   18  C   UNL     1       7.924  30.895  59.182  1.00  0.00     0.064 A 
HETATM   19  C   UNL     1       7.294  32.084  59.626  1.00  0.00     0.097 A 
HETATM   20  C   UNL     1       7.533  32.580  60.918  1.00  0.00     0.081 A 
HETATM   21  C   UNL     1       8.432  31.936  61.756  1.00  0.00     0.119 A 
HETATM   22  C   UNL     1       9.099  30.799  61.341  1.00  0.00     0.044 A 
HETATM   23  F   UNL     1       8.654  32.423  62.984  1.00  0.00    -0.206 F 
HETATM   24  C   UNL     1       8.844  30.289  60.067  1.00  0.00     0.035 A 
BRANCH  19  25
HETATM   25  O   UNL     1       6.366  32.701  58.821  1.00  0.00    -0.354 OA
HETATM   26  C   UNL     1       5.050  32.729  59.370  1.00  0.00     0.210 C 
ENDBRANCH  19  25
ENDBRANCH   1  18
TORSDOF 4
ENDMDL
MODEL 4
REMARK VINA RESULT:      -8.8      4.676      7.094
REMARK  4 active torsions:
REMARK  status: ('A' for Active; 'I' for Inactive)
REMARK    1  A    between atoms: O_2  and  C_3 
REMARK    2  A    between atoms: C_4  and  N_5 
REMARK    3  A    between atoms: N_8  and  C_9 
REMARK    4  A    between atoms: C_9  and  C_10 
ROOT
HETATM    1  N   UNL     1       6.656  24.692  53.890  1.00  0.00    -0.375 N 
HETATM    2  C   UNL     1       5.379  24.745  53.158  1.00  0.00     0.153 C 
HETATM    3  C   UNL     1       4.753  26.159  53.272  1.00  0.00     0.292 C 
HETATM    4  N   UNL     1       5.627  27.284  52.850  1.00  0.00     0.095 N 
HETATM    5  C   UNL     1       6.924  27.143  53.566  1.00  0.00     0.292 C 
HETATM    6  C   UNL     1       7.601  25.753  53.475  1.00  0.00     0.153 C 
ENDROOT
BRANCH   4   7
HETATM    7  C   UNL     1       5.806  27.289  51.384  1.00  0.00     0.313 C 
BRANCH   7   8
HETATM    8  C   UNL     1       4.571  27.736  50.628  1.00  0.00    -0.001 A 
HETATM    9  C   UNL     1       4.273  27.355  49.308  1.00  0.00     0.070 A 
HETATM   10  C   UNL     1       3.160  27.789  48.604  1.00  0.00     0.012 A 
HETATM   11  N   UNL     1       4.932  26.508  48.451  1.00  0.00    -0.277 N 
HETATM   12  C   UNL     1       3.262  27.150  47.348  1.00  0.00     0.152 A 
HETATM   13  C   UNL     1       2.261  28.675  49.220  1.00  0.00     0.015 A 
HETATM   14  N   UNL     1       4.342  26.369  47.249  1.00  0.00    -0.186 NA
HETATM   15  C   UNL     1       2.528  29.093  50.530  1.00  0.00     0.002 A 
HETATM   16  C   UNL     1       3.660  28.638  51.212  1.00  0.00     0.011 A 
HETATM   17  H   UNL     1       5.774  25.980  48.662  1.00  0.00     0.189 HD
ENDBRANCH   7   8
ENDBRANCH   4   7
BRANCH   1  18
HETATM   18  C   UNL     1       7.270  23.449  54.137  1.00  0.00     0.064 A 
HETATM   19  C   UNL     1       7.671  22.952  55.402  1.00  0.00     0.097 A 
HETATM   20  C   UNL     1       8.249  21.678  55.521  1.00  0.00     0.081 A 
HETATM   21  C   UNL     1       8.482  20.912  54.388  1.00  0.00     0.119 A 
HETATM   22  C   UNL     1       8.146  21.381  53.133  1.00  0.00     0.044 A 
HETATM   23  F   UNL     1       9.040  19.700  54.515  1.00  0.00    -0.206 F 
HETATM   24  C   UNL     1       7.548  22.636  53.014  1.00  0.00     0.035 A 
BRANCH  19  25
HETATM   25  O   UNL     1       7.399  23.685  56.534  1.00  0.00    -0.354 OA
HETATM   26  C   UNL     1       8.554  24.258  57.144  1.00  0.00     0.210 C 
ENDBRANCH  19  25
ENDBRANCH   1  18
TORSDOF 4
ENDMDL
MODEL 5
REMARK VINA RESULT:      -8.8      5.007      7.972
REMARK  4 active torsions:
REMARK  status: ('A' for Active; 'I' for Inactive)
REMARK    1  A    between atoms: O_2  and  C_3 
REMARK    2  A    between atoms: C_4  and  N_5 
REMARK    3  A    between atoms: N_8  and  C_9 
REMARK    4  A    between atoms: C_9  and  C_10 
ROOT
HETATM    1  N   UNL     1       5.161  26.686  52.034  1.00  0.00    -0.375 N 
HETATM    2  C   UNL     1       6.385  27.273  52.606  1.00  0.00     0.153 C 
HETATM    3  C   UNL     1       6.578  26.792  54.067  1.00  0.00     0.292 C 
HETATM    4  N   UNL     1       6.581  25.319  54.264  1.00  0.00     0.095 N 
HETATM    5  C   UNL     1       5.362  24.772  53.609  1.00  0.00     0.292 C 
HETATM    6  C   UNL     1       5.126  25.210  52.143  1.00  0.00     0.153 C 
ENDROOT
BRANCH   4   7
HETATM    7  C   UNL     1       7.815  24.719  53.718  1.00  0.00     0.313 C 
BRANCH   7   8
HETATM    8  C   UNL     1       7.910  23.224  53.945  1.00  0.00    -0.001 A 
HETATM    9  C   UNL     1       8.103  22.629  55.204  1.00  0.00     0.070 A 
HETATM   10  C   UNL     1       8.224  21.262  55.409  1.00  0.00     0.012 A 
HETATM   11  N   UNL     1       8.192  23.189  56.455  1.00  0.00    -0.277 N 
HETATM   12  C   UNL     1       8.387  21.126  56.807  1.00  0.00     0.152 A 
HETATM   13  C   UNL     1       8.162  20.395  54.307  1.00  0.00     0.015 A 
HETATM   14  N   UNL     1       8.370  22.298  57.448  1.00  0.00    -0.186 NA
HETATM   15  C   UNL     1       7.987  20.946  53.032  1.00  0.00     0.002 A 
HETATM   16  C   UNL     1       7.870  22.329  52.858  1.00  0.00     0.011 A 
HETATM   17  H   UNL     1       8.105  24.177  56.675  1.00  0.00     0.189 HD
ENDBRANCH   7   8
ENDBRANCH   4   7
BRANCH   1  18
HETATM   18  C   UNL     1       4.652  27.178  50.817  1.00  0.00     0.064 A 
HETATM   19  C   UNL     1       3.950  28.396  50.637  1.00  0.00     0.097 A 
HETATM   20  C   UNL     1       3.517  28.791  49.361  1.00  0.00     0.081 A 
HETATM   21  C   UNL     1       3.726  27.963  48.268  1.00  0.00     0.119 A 
HETATM   22  C   UNL     1       4.366  26.746  48.412  1.00  0.00     0.044 A 
HETATM   23  F   UNL     1       3.303  28.349  47.057  1.00  0.00    -0.206 F 
HETATM   24  C   UNL     1       4.821  26.363  49.674  1.00  0.00     0.035 A 
BRANCH  19  25
HETATM   25  O   UNL     1       3.781  29.245  51.706  1.00  0.00    -0.354 OA
HETATM   26  C   UNL     1       4.471  30.487  51.574  1.00  0.00     0.210 C 
ENDBRANCH  19  25
ENDBRANCH   1  18
TORSDOF 4
ENDMDL
MODEL 6
REMARK VINA RESULT:      -8.5      3.968      7.774
REMARK  4 active torsions:
REMARK  status: ('A' for Active; 'I' for Inactive)
REMARK    1  A    between atoms: O_2  and  C_3 
REMARK    2  A    between atoms: C_4  and  N_5 
REMARK    3  A    between atoms: N_8  and  C_9 
REMARK    4  A    between atoms: C_9  and  C_10 
ROOT
HETATM    1  N   UNL     1       5.517  27.260  53.979  1.00  0.00    -0.375 N 
HETATM    2  C   UNL     1       5.561  25.985  54.715  1.00  0.00     0.153 C 
HETATM    3  C   UNL     1       5.434  24.793  53.731  1.00  0.00     0.292 C 
HETATM    4  N   UNL     1       6.419  24.772  52.618  1.00  0.00     0.095 N 
HETATM    5  C   UNL     1       6.382  26.103  51.955  1.00  0.00     0.292 C 
HETATM    6  C   UNL     1       6.517  27.330  52.889  1.00  0.00     0.153 C 
ENDROOT
BRANCH   4   7
HETATM    7  C   UNL     1       7.770  24.444  53.118  1.00  0.00     0.313 C 
BRANCH   7   8
HETATM    8  C   UNL     1       7.892  23.027  53.639  1.00  0.00    -0.001 A 
HETATM    9  C   UNL     1       8.104  22.698  54.990  1.00  0.00     0.070 A 
HETATM   10  C   UNL     1       8.249  21.403  55.463  1.00  0.00     0.012 A 
HETATM   11  N   UNL     1       8.191  23.499  56.102  1.00  0.00    -0.277 N 
HETATM   12  C   UNL     1       8.424  21.551  56.858  1.00  0.00     0.152 A 
HETATM   13  C   UNL     1       8.195  20.331  54.557  1.00  0.00     0.015 A 
HETATM   14  N   UNL     1       8.391  22.828  57.252  1.00  0.00    -0.186 NA
HETATM   15  C   UNL     1       8.001  20.614  53.199  1.00  0.00     0.002 A 
HETATM   16  C   UNL     1       7.860  21.931  52.754  1.00  0.00     0.011 A 
HETATM   17  H   UNL     1       8.088  24.509  56.121  1.00  0.00     0.189 HD
ENDBRANCH   7   8
ENDBRANCH   4   7
BRANCH   1  18
HETATM   18  C   UNL     1       5.357  28.470  54.683  1.00  0.00     0.064 A 
HETATM   19  C   UNL     1       6.245  28.993  55.655  1.00  0.00     0.097 A 
HETATM   20  C   UNL     1       5.987  30.230  56.268  1.00  0.00     0.081 A 
HETATM   21  C   UNL     1       4.828  30.929  55.964  1.00  0.00     0.119 A 
HETATM   22  C   UNL     1       3.916  30.428  55.054  1.00  0.00     0.044 A 
HETATM   23  F   UNL     1       4.592  32.105  56.560  1.00  0.00    -0.206 F 
HETATM   24  C   UNL     1       4.182  29.212  54.424  1.00  0.00     0.035 A 
BRANCH  19  25
HETATM   25  O   UNL     1       7.419  28.331  55.927  1.00  0.00    -0.354 OA
HETATM   26  C   UNL     1       8.591  29.116  55.711  1.00  0.00     0.210 C 
ENDBRANCH  19  25
ENDBRANCH   1  18
TORSDOF 4
ENDMDL
MODEL 7
REMARK VINA RESULT:      -8.4      4.387      7.322
REMARK  4 active torsions:
REMARK  status: ('A' for Active; 'I' for Inactive)
REMARK    1  A    between atoms: O_2  and  C_3 
REMARK    2  A    between atoms: C_4  and  N_5 
REMARK    3  A    between atoms: N_8  and  C_9 
REMARK    4  A    between atoms: C_9  and  C_10 
ROOT
HETATM    1  N   UNL     1       7.875  30.705  58.675  1.00  0.00    -0.375 N 
HETATM    2  C   UNL     1       8.714  30.460  59.860  1.00  0.00     0.153 C 
HETATM    3  C   UNL     1       8.901  31.771  60.666  1.00  0.00     0.292 C 
HETATM    4  N   UNL     1       7.648  32.463  61.066  1.00  0.00     0.095 N 
HETATM    5  C   UNL     1       6.811  32.623  59.846  1.00  0.00     0.292 C 
HETATM    6  C   UNL     1       6.580  31.342  59.008  1.00  0.00     0.153 C 
ENDROOT
BRANCH   4   7
HETATM    7  C   UNL     1       6.943  31.707  62.121  1.00  0.00     0.313 C 
BRANCH   7   8
HETATM    8  C   UNL     1       6.572  32.552  63.322  1.00  0.00    -0.001 A 
HETATM    9  C   UNL     1       5.278  33.041  63.573  1.00  0.00     0.070 A 
HETATM   10  C   UNL     1       4.944  33.843  64.654  1.00  0.00     0.012 A 
HETATM   11  N   UNL     1       4.102  32.851  62.890  1.00  0.00    -0.277 N 
HETATM   12  C   UNL     1       3.557  34.074  64.510  1.00  0.00     0.152 A 
HETATM   13  C   UNL     1       5.944  34.214  65.568  1.00  0.00     0.015 A 
HETATM   14  N   UNL     1       3.039  33.473  63.435  1.00  0.00    -0.186 NA
HETATM   15  C   UNL     1       7.251  33.763  65.347  1.00  0.00     0.002 A 
HETATM   16  C   UNL     1       7.555  32.957  64.246  1.00  0.00     0.011 A 
HETATM   17  H   UNL     1       3.978  32.277  62.061  1.00  0.00     0.189 HD
ENDBRANCH   7   8
ENDBRANCH   4   7
BRANCH   1  18
HETATM   18  C   UNL     1       7.784  29.725  57.667  1.00  0.00     0.064 A 
HETATM   19  C   UNL     1       8.688  29.549  56.590  1.00  0.00     0.097 A 
HETATM   20  C   UNL     1       8.502  28.512  55.662  1.00  0.00     0.081 A 
HETATM   21  C   UNL     1       7.397  27.679  55.762  1.00  0.00     0.119 A 
HETATM   22  C   UNL     1       6.469  27.849  56.772  1.00  0.00     0.044 A 
HETATM   23  F   UNL     1       7.229  26.696  54.866  1.00  0.00    -0.206 F 
HETATM   24  C   UNL     1       6.665  28.862  57.711  1.00  0.00     0.035 A 
BRANCH  19  25
HETATM   25  O   UNL     1       9.811  30.339  56.512  1.00  0.00    -0.354 OA
HETATM   26  C   UNL     1      10.996  29.712  56.997  1.00  0.00     0.210 C 
ENDBRANCH  19  25
ENDBRANCH   1  18
TORSDOF 4
ENDMDL
MODEL 8
REMARK VINA RESULT:      -8.3      1.908      2.944
REMARK  4 active torsions:
REMARK  status: ('A' for Active; 'I' for Inactive)
REMARK    1  A    between atoms: O_2  and  C_3 
REMARK    2  A    between atoms: C_4  and  N_5 
REMARK    3  A    between atoms: N_8  and  C_9 
REMARK    4  A    between atoms: C_9  and  C_10 
ROOT
HETATM    1  N   UNL     1       6.855  24.940  54.011  1.00  0.00    -0.375 N 
HETATM    2  C   UNL     1       7.488  26.041  54.758  1.00  0.00     0.153 C 
HETATM    3  C   UNL     1       6.996  27.408  54.217  1.00  0.00     0.292 C 
HETATM    4  N   UNL     1       5.522  27.595  54.187  1.00  0.00     0.095 N 
HETATM    5  C   UNL     1       4.931  26.425  53.484  1.00  0.00     0.292 C 
HETATM    6  C   UNL     1       5.377  25.032  53.992  1.00  0.00     0.153 C 
ENDROOT
BRANCH   4   7
HETATM    7  C   UNL     1       4.984  27.744  55.555  1.00  0.00     0.313 C 
BRANCH   7   8
HETATM    8  C   UNL     1       5.293  29.089  56.181  1.00  0.00    -0.001 A 
HETATM    9  C   UNL     1       6.303  29.301  57.135  1.00  0.00     0.070 A 
HETATM   10  C   UNL     1       6.565  30.525  57.733  1.00  0.00     0.012 A 
HETATM   11  N   UNL     1       7.231  28.437  57.663  1.00  0.00    -0.277 N 
HETATM   12  C   UNL     1       7.655  30.271  58.598  1.00  0.00     0.152 A 
HETATM   13  C   UNL     1       5.782  31.638  57.390  1.00  0.00     0.015 A 
HETATM   14  N   UNL     1       8.063  29.000  58.560  1.00  0.00    -0.186 NA
HETATM   15  C   UNL     1       4.754  31.468  56.455  1.00  0.00     0.002 A 
HETATM   16  C   UNL     1       4.514  30.221  55.871  1.00  0.00     0.011 A 
HETATM   17  H   UNL     1       7.348  27.460  57.413  1.00  0.00     0.189 HD
ENDBRANCH   7   8
ENDBRANCH   4   7
BRANCH   1  18
HETATM   18  C   UNL     1       7.341  23.626  54.156  1.00  0.00     0.064 A 
HETATM   19  C   UNL     1       7.657  22.982  55.378  1.00  0.00     0.097 A 
HETATM   20  C   UNL     1       8.108  21.653  55.391  1.00  0.00     0.081 A 
HETATM   21  C   UNL     1       8.300  20.971  54.197  1.00  0.00     0.119 A 
HETATM   22  C   UNL     1       8.047  21.582  52.984  1.00  0.00     0.044 A 
HETATM   23  F   UNL     1       8.737  19.705  54.224  1.00  0.00    -0.206 F 
HETATM   24  C   UNL     1       7.573  22.894  52.969  1.00  0.00     0.035 A 
BRANCH  19  25
HETATM   25  O   UNL     1       7.423  23.633  56.566  1.00  0.00    -0.354 OA
HETATM   26  C   UNL     1       8.595  23.845  57.351  1.00  0.00     0.210 C 
ENDBRANCH  19  25
ENDBRANCH   1  18
TORSDOF 4
ENDMDL
MODEL 9
REMARK VINA RESULT:      -8.3      5.468      8.360
REMARK  4 active torsions:
REMARK  status: ('A' for Active; 'I' for Inactive)
REMARK    1  A    between atoms: O_2  and  C_3 
REMARK    2  A    between atoms: C_4  and  N_5 
REMARK    3  A    between atoms: N_8  and  C_9 
REMARK    4  A    between atoms: C_9  and  C_10 
ROOT
HETATM    1  N   UNL     1       4.946  27.207  51.452  1.00  0.00    -0.375 N 
HETATM    2  C   UNL     1       5.414  27.676  52.768  1.00  0.00     0.153 C 
HETATM    3  C   UNL     1       5.096  26.621  53.858  1.00  0.00     0.292 C 
HETATM    4  N   UNL     1       5.609  25.251  53.595  1.00  0.00     0.095 N 
HETATM    5  C   UNL     1       5.165  24.855  52.231  1.00  0.00     0.292 C 
HETATM    6  C   UNL     1       5.469  25.867  51.099  1.00  0.00     0.153 C 
ENDROOT
BRANCH   4   7
HETATM    7  C   UNL     1       7.079  25.205  53.730  1.00  0.00     0.313 C 
BRANCH   7   8
HETATM    8  C   UNL     1       7.566  24.102  54.648  1.00  0.00    -0.001 A 
HETATM    9  C   UNL     1       7.738  22.765  54.251  1.00  0.00     0.070 A 
HETATM   10  C   UNL     1       8.152  21.748  55.099  1.00  0.00     0.012 A 
HETATM   11  N   UNL     1       7.581  22.168  53.025  1.00  0.00    -0.277 N 
HETATM   12  C   UNL     1       8.197  20.598  54.278  1.00  0.00     0.152 A 
HETATM   13  C   UNL     1       8.413  22.042  56.447  1.00  0.00     0.015 A 
HETATM   14  N   UNL     1       7.849  20.849  53.013  1.00  0.00    -0.186 NA
HETATM   15  C   UNL     1       8.239  23.359  56.889  1.00  0.00     0.002 A 
HETATM   16  C   UNL     1       7.819  24.361  56.010  1.00  0.00     0.011 A 
HETATM   17  H   UNL     1       7.321  22.636  52.161  1.00  0.00     0.189 HD
ENDBRANCH   7   8
ENDBRANCH   4   7
BRANCH   1  18
HETATM   18  C   UNL     1       4.897  28.102  50.366  1.00  0.00     0.064 A 
HETATM   19  C   UNL     1       4.196  27.903  49.151  1.00  0.00     0.097 A 
HETATM   20  C   UNL     1       4.203  28.890  48.152  1.00  0.00     0.081 A 
HETATM   21  C   UNL     1       4.941  30.052  48.325  1.00  0.00     0.119 A 
HETATM   22  C   UNL     1       5.674  30.261  49.478  1.00  0.00     0.044 A 
HETATM   23  F   UNL     1       4.942  30.982  47.362  1.00  0.00    -0.206 F 
HETATM   24  C   UNL     1       5.649  29.294  50.484  1.00  0.00     0.035 A 
BRANCH  19  25
HETATM   25  O   UNL     1       3.423  26.777  48.991  1.00  0.00    -0.354 OA
HETATM   26  C   UNL     1       3.731  26.025  47.819  1.00  0.00     0.210 C 
ENDBRANCH  19  25
ENDBRANCH   1  18
TORSDOF 4
ENDMDL
MODEL 10
REMARK VINA RESULT:      -8.2      3.861      8.202
REMARK  4 active torsions:
REMARK  status: ('A' for Active; 'I' for Inactive)
REMARK    1  A    between atoms: O_2  and  C_3 
REMARK    2  A    between atoms: C_4  and  N_5 
REMARK    3  A    between atoms: N_8  and  C_9 
REMARK    4  A    between atoms: C_9  and  C_10 
ROOT
HETATM    1  N   UNL     1       6.670  28.536  56.560  1.00  0.00    -0.375 N 
HETATM    2  C   UNL     1       6.341  28.039  55.213  1.00  0.00     0.153 C 
HETATM    3  C   UNL     1       7.489  27.147  54.675  1.00  0.00     0.292 C 
HETATM    4  N   UNL     1       7.887  26.014  55.551  1.00  0.00     0.095 N 
HETATM    5  C   UNL     1       8.140  26.561  56.911  1.00  0.00     0.292 C 
HETATM    6  C   UNL     1       7.020  27.450  57.504  1.00  0.00     0.153 C 
ENDROOT
BRANCH   4   7
HETATM    7  C   UNL     1       6.843  24.969  55.564  1.00  0.00     0.313 C 
BRANCH   7   8
HETATM    8  C   UNL     1       7.280  23.673  54.913  1.00  0.00    -0.001 A 
HETATM    9  C   UNL     1       7.796  22.571  55.617  1.00  0.00     0.070 A 
HETATM   10  C   UNL     1       8.228  21.396  55.019  1.00  0.00     0.012 A 
HETATM   11  N   UNL     1       7.971  22.372  56.965  1.00  0.00    -0.277 N 
HETATM   12  C   UNL     1       8.643  20.580  56.096  1.00  0.00     0.152 A 
HETATM   13  C   UNL     1       8.167  21.276  53.621  1.00  0.00     0.015 A 
HETATM   14  N   UNL     1       8.489  21.172  57.284  1.00  0.00    -0.186 NA
HETATM   15  C   UNL     1       7.674  22.356  52.879  1.00  0.00     0.002 A 
HETATM   16  C   UNL     1       7.248  23.527  53.512  1.00  0.00     0.011 A 
HETATM   17  H   UNL     1       7.719  23.024  57.702  1.00  0.00     0.189 HD
ENDBRANCH   7   8
ENDBRANCH   4   7
BRANCH   1  18
HETATM   18  C   UNL     1       5.897  29.563  57.135  1.00  0.00     0.064 A 
HETATM   19  C   UNL     1       6.375  30.592  57.984  1.00  0.00     0.097 A 
HETATM   20  C   UNL     1       5.503  31.579  58.472  1.00  0.00     0.081 A 
HETATM   21  C   UNL     1       4.151  31.525  58.169  1.00  0.00     0.119 A 
HETATM   22  C   UNL     1       3.640  30.511  57.382  1.00  0.00     0.044 A 
HETATM   23  F   UNL     1       3.330  32.471  58.646  1.00  0.00    -0.206 F 
HETATM   24  C   UNL     1       4.508  29.543  56.873  1.00  0.00     0.035 A 
BRANCH  19  25
HETATM   25  O   UNL     1       7.721  30.681  58.250  1.00  0.00    -0.354 OA
HETATM   26  C   UNL     1       8.027  30.887  59.628  1.00  0.00     0.210 C 
ENDBRANCH  19  25
ENDBRANCH   1  18
TORSDOF 4
ENDMDL
