MODEL 1
REMARK VINA RESULT:      -8.8      0.000      0.000
REMARK  7 active torsions:
REMARK  status: ('A' for Active; 'I' for Inactive)
REMARK    1  A    between atoms: C_10  and  C_11 
REMARK       I    between atoms: C_11  and  N_12 
REMARK    2  A    between atoms: N_12  and  C_13 
REMARK    3  A    between atoms: C_13  and  C_14 
REMARK    4  A    between atoms: C_14  and  O_15 
REMARK    5  A    between atoms: C_14  and  C_16 
REMARK    6  A    between atoms: C_16  and  O_17 
REMARK    7  A    between atoms: O_17  and  C_18 
ROOT
HETATM    1  C   UNL     1       7.967  28.594  55.261  1.00  0.00     0.257 C 
HETATM    2  N   UNL     1       6.820  28.150  55.870  1.00  0.00    -0.354 N 
HETATM    3  O   UNL     1       8.238  28.343  54.090  1.00  0.00    -0.267 OA
HETATM    4  H   UNL     1       6.735  28.295  56.875  1.00  0.00     0.162 HD
ENDROOT
BRANCH   2   5
HETATM    5  C   UNL     1       5.836  27.311  55.216  1.00  0.00     0.156 C 
BRANCH   5   6
HETATM    6  C   UNL     1       5.388  26.112  56.062  1.00  0.00     0.160 C 
BRANCH   6   7
HETATM    7  O   UNL     1       4.466  26.554  57.072  1.00  0.00    -0.392 OA
HETATM    8  H   UNL     1       4.949  26.491  57.917  1.00  0.00     0.210 HD
ENDBRANCH   6   7
BRANCH   6   9
HETATM    9  C   UNL     1       6.555  25.354  56.706  1.00  0.00     0.209 C 
BRANCH   9  10
HETATM   10  O   UNL     1       7.638  25.364  55.762  1.00  0.00    -0.349 OA
BRANCH  10  11
HETATM   11  C   UNL     1       7.771  24.258  54.968  1.00  0.00     0.069 A 
HETATM   12  C   UNL     1       7.864  23.049  55.662  1.00  0.00     0.038 A 
HETATM   13  C   UNL     1       7.995  21.840  54.975  1.00  0.00     0.026 A 
HETATM   14  C   UNL     1       8.026  21.841  53.583  1.00  0.00     0.034 A 
HETATM   15 CL   UNL     1       8.182  20.357  52.728  1.00  0.00    -0.084 Cl
HETATM   16  C   UNL     1       7.927  23.040  52.879  1.00  0.00     0.026 A 
HETATM   17  C   UNL     1       7.802  24.250  53.572  1.00  0.00     0.038 A 
ENDBRANCH  10  11
ENDBRANCH   9  10
ENDBRANCH   6   9
ENDBRANCH   5   6
ENDBRANCH   2   5
BRANCH   1  18
HETATM   18  C   UNL     1       8.856  29.364  56.109  1.00  0.00     0.098 A 
HETATM   19  C   UNL     1       8.556  30.066  57.263  1.00  0.00     0.167 A 
HETATM   20  N   UNL     1       9.758  30.638  57.697  1.00  0.00    -0.226 N 
HETATM   21  N   UNL     1       7.380  30.250  57.947  1.00  0.00    -0.240 NA
HETATM   22  C   UNL     1       9.795  31.426  58.842  1.00  0.00     0.128 A 
HETATM   23  N   UNL     1      10.790  30.324  56.879  1.00  0.00    -0.178 NA
HETATM   24  C   UNL     1       8.680  31.651  59.555  1.00  0.00    -0.027 A 
HETATM   25  C   UNL     1       8.569  32.471  60.789  1.00  0.00     0.051 C 
HETATM   26  C   UNL     1       7.452  30.990  59.013  1.00  0.00     0.127 A 
HETATM   27  C   UNL     1      10.240  29.562  55.932  1.00  0.00     0.160 A 
ENDBRANCH   1  18
TORSDOF 7
ENDMDL
MODEL 2
REMARK VINA RESULT:      -8.7      1.937      2.997
REMARK  7 active torsions:
REMARK  status: ('A' for Active; 'I' for Inactive)
REMARK    1  A    between atoms: C_10  and  C_11 
REMARK       I    between atoms: C_11  and  N_12 
REMARK    2  A    between atoms: N_12  and  C_13 
REMARK    3  A    between atoms: C_13  and  C_14 
REMARK    4  A    between atoms: C_14  and  O_15 
REMARK    5  A    between atoms: C_14  and  C_16 
REMARK    6  A    between atoms: C_16  and  O_17 
REMARK    7  A    between atoms: O_17  and  C_18 
ROOT
HETATM    1  C   UNL     1       8.374  29.712  58.156  1.00  0.00     0.257 C 
HETATM    2  N   UNL     1       7.615  28.579  58.000  1.00  0.00    -0.354 N 
HETATM    3  O   UNL     1       9.523  29.805  57.734  1.00  0.00    -0.267 OA
HETATM    4  H   UNL     1       6.722  28.540  58.490  1.00  0.00     0.162 HD
ENDROOT
BRANCH   2   5
HETATM    5  C   UNL     1       8.097  27.370  57.364  1.00  0.00     0.156 C 
BRANCH   5   6
HETATM    6  C   UNL     1       7.338  26.105  57.787  1.00  0.00     0.160 C 
BRANCH   6   7
HETATM    7  O   UNL     1       8.235  25.207  58.460  1.00  0.00    -0.392 OA
HETATM    8  H   UNL     1       7.728  24.836  59.206  1.00  0.00     0.210 HD
ENDBRANCH   6   7
BRANCH   6   9
HETATM    9  C   UNL     1       6.652  25.390  56.616  1.00  0.00     0.209 C 
BRANCH   9  10
HETATM   10  O   UNL     1       7.537  25.481  55.488  1.00  0.00    -0.349 OA
BRANCH  10  11
HETATM   11  C   UNL     1       7.713  24.342  54.751  1.00  0.00     0.069 A 
HETATM   12  C   UNL     1       7.836  23.172  55.506  1.00  0.00     0.038 A 
HETATM   13  C   UNL     1       8.013  21.936  54.882  1.00  0.00     0.026 A 
HETATM   14  C   UNL     1       8.057  21.869  53.492  1.00  0.00     0.034 A 
HETATM   15 CL   UNL     1       8.268  20.349  52.713  1.00  0.00    -0.084 Cl
HETATM   16  C   UNL     1       7.928  23.028  52.728  1.00  0.00     0.026 A 
HETATM   17  C   UNL     1       7.758  24.266  53.358  1.00  0.00     0.038 A 
ENDBRANCH  10  11
ENDBRANCH   9  10
ENDBRANCH   6   9
ENDBRANCH   5   6
ENDBRANCH   2   5
BRANCH   1  18
HETATM   18  C   UNL     1       7.729  30.789  58.881  1.00  0.00     0.098 A 
HETATM   19  C   UNL     1       7.914  31.179  60.196  1.00  0.00     0.167 A 
HETATM   20  N   UNL     1       7.053  32.261  60.409  1.00  0.00    -0.226 N 
HETATM   21  N   UNL     1       8.730  30.697  61.190  1.00  0.00    -0.240 NA
HETATM   22  C   UNL     1       6.991  32.884  61.651  1.00  0.00     0.128 A 
HETATM   23  N   UNL     1       6.348  32.572  59.296  1.00  0.00    -0.178 NA
HETATM   24  C   UNL     1       7.758  32.460  62.669  1.00  0.00    -0.027 A 
HETATM   25  C   UNL     1       7.793  33.023  64.044  1.00  0.00     0.051 C 
HETATM   26  C   UNL     1       8.647  31.304  62.337  1.00  0.00     0.127 A 
HETATM   27  C   UNL     1       6.758  31.684  58.388  1.00  0.00     0.160 A 
ENDBRANCH   1  18
TORSDOF 7
ENDMDL
MODEL 3
REMARK VINA RESULT:      -8.2      4.253      9.067
REMARK  7 active torsions:
REMARK  status: ('A' for Active; 'I' for Inactive)
REMARK    1  A    between atoms: C_10  and  C_11 
REMARK       I    between atoms: C_11  and  N_12 
REMARK    2  A    between atoms: N_12  and  C_13 
REMARK    3  A    between atoms: C_13  and  C_14 
REMARK    4  A    between atoms: C_14  and  O_15 
REMARK    5  A    between atoms: C_14  and  C_16 
REMARK    6  A    between atoms: C_16  and  O_17 
REMARK    7  A    between atoms: O_17  and  C_18 
ROOT
HETATM    1  C   UNL     1       7.235  26.636  56.285  1.00  0.00     0.257 C 
HETATM    2  N   UNL     1       6.422  27.740  56.222  1.00  0.00    -0.354 N 
HETATM    3  O   UNL     1       7.765  26.259  57.326  1.00  0.00    -0.267 OA
HETATM    4  H   UNL     1       6.128  28.056  55.300  1.00  0.00     0.162 HD
ENDROOT
BRANCH   2   5
HETATM    5  C   UNL     1       6.139  28.595  57.358  1.00  0.00     0.156 C 
BRANCH   5   6
HETATM    6  C   UNL     1       7.221  29.649  57.622  1.00  0.00     0.160 C 
BRANCH   6   7
HETATM    7  O   UNL     1       8.234  29.096  58.477  1.00  0.00    -0.392 OA
HETATM    8  H   UNL     1       7.942  28.187  58.680  1.00  0.00     0.210 HD
ENDBRANCH   6   7
BRANCH   6   9
HETATM    9  C   UNL     1       6.669  30.947  58.225  1.00  0.00     0.209 C 
BRANCH   9  10
HETATM   10  O   UNL     1       7.796  31.718  58.673  1.00  0.00    -0.349 OA
BRANCH  10  11
HETATM   11  C   UNL     1       7.860  31.992  60.012  1.00  0.00     0.069 A 
HETATM   12  C   UNL     1       6.694  32.543  60.551  1.00  0.00     0.038 A 
HETATM   13  C   UNL     1       6.618  32.865  61.908  1.00  0.00     0.026 A 
HETATM   14  C   UNL     1       7.714  32.625  62.732  1.00  0.00     0.034 A 
HETATM   15 CL   UNL     1       7.628  33.012  64.406  1.00  0.00    -0.084 Cl
HETATM   16  C   UNL     1       8.880  32.070  62.207  1.00  0.00     0.026 A 
HETATM   17  C   UNL     1       8.955  31.755  60.846  1.00  0.00     0.038 A 
ENDBRANCH  10  11
ENDBRANCH   9  10
ENDBRANCH   6   9
ENDBRANCH   5   6
ENDBRANCH   2   5
BRANCH   1  18
HETATM   18  C   UNL     1       7.446  25.956  55.023  1.00  0.00     0.098 A 
HETATM   19  C   UNL     1       7.546  24.597  54.778  1.00  0.00     0.167 A 
HETATM   20  N   UNL     1       7.754  24.461  53.400  1.00  0.00    -0.226 N 
HETATM   21  N   UNL     1       7.477  23.507  55.610  1.00  0.00    -0.240 NA
HETATM   22  C   UNL     1       7.907  23.203  52.827  1.00  0.00     0.128 A 
HETATM   23  N   UNL     1       7.781  25.661  52.773  1.00  0.00    -0.178 NA
HETATM   24  C   UNL     1       7.856  22.096  53.584  1.00  0.00    -0.027 A 
HETATM   25  C   UNL     1       8.008  20.694  53.112  1.00  0.00     0.051 C 
HETATM   26  C   UNL     1       7.623  22.347  55.040  1.00  0.00     0.127 A 
HETATM   27  C   UNL     1       7.598  26.548  53.753  1.00  0.00     0.160 A 
ENDBRANCH   1  18
TORSDOF 7
ENDMDL
MODEL 4
REMARK VINA RESULT:      -8.1      1.463      2.232
REMARK  7 active torsions:
REMARK  status: ('A' for Active; 'I' for Inactive)
REMARK    1  A    between atoms: C_10  and  C_11 
REMARK       I    between atoms: C_11  and  N_12 
REMARK    2  A    between atoms: N_12  and  C_13 
REMARK    3  A    between atoms: C_13  and  C_14 
REMARK    4  A    between atoms: C_14  and  O_15 
REMARK    5  A    between atoms: C_14  and  C_16 
REMARK    6  A    between atoms: C_16  and  O_17 
REMARK    7  A    between atoms: O_17  and  C_18 
ROOT
HETATM    1  C   UNL     1       7.999  28.560  55.902  1.00  0.00     0.257 C 
HETATM    2  N   UNL     1       7.070  29.237  55.150  1.00  0.00    -0.354 N 
HETATM    3  O   UNL     1       8.006  27.337  56.005  1.00  0.00    -0.267 OA
HETATM    4  H   UNL     1       7.058  30.253  55.221  1.00  0.00     0.162 HD
ENDROOT
BRANCH   2   5
HETATM    5  C   UNL     1       5.985  28.590  54.440  1.00  0.00     0.156 C 
BRANCH   5   6
HETATM    6  C   UNL     1       6.372  28.094  53.041  1.00  0.00     0.160 C 
BRANCH   6   7
HETATM    7  O   UNL     1       6.068  29.108  52.070  1.00  0.00    -0.392 OA
HETATM    8  H   UNL     1       6.749  29.797  52.185  1.00  0.00     0.210 HD
ENDBRANCH   6   7
BRANCH   6   9
HETATM    9  C   UNL     1       5.694  26.772  52.658  1.00  0.00     0.209 C 
BRANCH   9  10
HETATM   10  O   UNL     1       5.571  25.996  53.860  1.00  0.00    -0.349 OA
BRANCH  10  11
HETATM   11  C   UNL     1       6.343  24.870  53.947  1.00  0.00     0.069 A 
HETATM   12  C   UNL     1       6.884  24.439  52.732  1.00  0.00     0.038 A 
HETATM   13  C   UNL     1       7.699  23.306  52.677  1.00  0.00     0.026 A 
HETATM   14  C   UNL     1       7.981  22.605  53.846  1.00  0.00     0.034 A 
HETATM   15 CL   UNL     1       8.989  21.212  53.789  1.00  0.00    -0.084 Cl
HETATM   16  C   UNL     1       7.453  23.030  55.064  1.00  0.00     0.026 A 
HETATM   17  C   UNL     1       6.632  24.162  55.115  1.00  0.00     0.038 A 
ENDBRANCH  10  11
ENDBRANCH   9  10
ENDBRANCH   6   9
ENDBRANCH   5   6
ENDBRANCH   2   5
BRANCH   1  18
HETATM   18  C   UNL     1       8.961  29.397  56.590  1.00  0.00     0.098 A 
HETATM   19  C   UNL     1       8.852  30.001  57.830  1.00  0.00     0.167 A 
HETATM   20  N   UNL     1      10.047  30.702  58.032  1.00  0.00    -0.226 N 
HETATM   21  N   UNL     1       7.847  30.001  58.766  1.00  0.00    -0.240 NA
HETATM   22  C   UNL     1      10.251  31.434  59.197  1.00  0.00     0.128 A 
HETATM   23  N   UNL     1      10.897  30.560  56.988  1.00  0.00    -0.178 NA
HETATM   24  C   UNL     1       9.307  31.481  60.150  1.00  0.00    -0.027 A 
HETATM   25  C   UNL     1       9.385  32.222  61.436  1.00  0.00     0.051 C 
HETATM   26  C   UNL     1       8.073  30.694  59.843  1.00  0.00     0.127 A 
HETATM   27  C   UNL     1      10.238  29.780  56.130  1.00  0.00     0.160 A 
ENDBRANCH   1  18
TORSDOF 7
ENDMDL
MODEL 5
REMARK VINA RESULT:      -8.0      5.686     10.208
REMARK  7 active torsions:
REMARK  status: ('A' for Active; 'I' for Inactive)
REMARK    1  A    between atoms: C_10  and  C_11 
REMARK       I    between atoms: C_11  and  N_12 
REMARK    2  A    between atoms: N_12  and  C_13 
REMARK    3  A    between atoms: C_13  and  C_14 
REMARK    4  A    between atoms: C_14  and  O_15 
REMARK    5  A    between atoms: C_14  and  C_16 
REMARK    6  A    between atoms: C_16  and  O_17 
REMARK    7  A    between atoms: O_17  and  C_18 
ROOT
HETATM    1  C   UNL     1       8.328  29.707  58.536  1.00  0.00     0.257 C 
HETATM    2  N   UNL     1       7.917  30.233  59.735  1.00  0.00    -0.354 N 
HETATM    3  O   UNL     1       9.434  29.936  58.054  1.00  0.00    -0.267 OA
HETATM    4  H   UNL     1       6.942  30.097  59.999  1.00  0.00     0.162 HD
ENDROOT
BRANCH   2   5
HETATM    5  C   UNL     1       8.720  31.138  60.533  1.00  0.00     0.156 C 
BRANCH   5   6
HETATM    6  C   UNL     1       8.636  30.871  62.041  1.00  0.00     0.160 C 
BRANCH   6   7
HETATM    7  O   UNL     1       9.066  29.528  62.317  1.00  0.00    -0.392 OA
HETATM    8  H   UNL     1       8.306  29.088  62.743  1.00  0.00     0.210 HD
ENDBRANCH   6   7
BRANCH   6   9
HETATM    9  C   UNL     1       7.237  31.108  62.623  1.00  0.00     0.209 C 
BRANCH   9  10
HETATM   10  O   UNL     1       7.037  32.530  62.676  1.00  0.00    -0.349 OA
BRANCH  10  11
HETATM   11  C   UNL     1       6.612  33.047  63.870  1.00  0.00     0.069 A 
HETATM   12  C   UNL     1       5.224  33.124  64.012  1.00  0.00     0.038 A 
HETATM   13  C   UNL     1       4.654  33.625  65.184  1.00  0.00     0.026 A 
HETATM   14  C   UNL     1       5.479  34.043  66.224  1.00  0.00     0.034 A 
HETATM   15 CL   UNL     1       4.786  34.656  67.674  1.00  0.00    -0.084 Cl
HETATM   16  C   UNL     1       6.865  33.965  66.097  1.00  0.00     0.026 A 
HETATM   17  C   UNL     1       7.433  33.469  64.918  1.00  0.00     0.038 A 
ENDBRANCH  10  11
ENDBRANCH   9  10
ENDBRANCH   6   9
ENDBRANCH   5   6
ENDBRANCH   2   5
BRANCH   1  18
HETATM   18  C   UNL     1       7.350  28.878  57.860  1.00  0.00     0.098 A 
HETATM   19  C   UNL     1       7.472  27.566  57.436  1.00  0.00     0.167 A 
HETATM   20  N   UNL     1       6.251  27.232  56.838  1.00  0.00    -0.226 N 
HETATM   21  N   UNL     1       8.508  26.669  57.516  1.00  0.00    -0.240 NA
HETATM   22  C   UNL     1       6.051  25.968  56.293  1.00  0.00     0.128 A 
HETATM   23  N   UNL     1       5.373  28.262  56.874  1.00  0.00    -0.178 NA
HETATM   24  C   UNL     1       7.025  25.044  56.333  1.00  0.00    -0.027 A 
HETATM   25  C   UNL     1       6.955  23.663  55.789  1.00  0.00     0.051 C 
HETATM   26  C   UNL     1       8.285  25.497  56.998  1.00  0.00     0.127 A 
HETATM   27  C   UNL     1       6.040  29.242  57.486  1.00  0.00     0.160 A 
ENDBRANCH   1  18
TORSDOF 7
ENDMDL
MODEL 6
REMARK VINA RESULT:      -8.0      5.673      9.865
REMARK  7 active torsions:
REMARK  status: ('A' for Active; 'I' for Inactive)
REMARK    1  A    between atoms: C_10  and  C_11 
REMARK       I    between atoms: C_11  and  N_12 
REMARK    2  A    between atoms: N_12  and  C_13 
REMARK    3  A    between atoms: C_13  and  C_14 
REMARK    4  A    between atoms: C_14  and  O_15 
REMARK    5  A    between atoms: C_14  and  C_16 
REMARK    6  A    between atoms: C_16  and  O_17 
REMARK    7  A    between atoms: O_17  and  C_18 
ROOT
HETATM    1  C   UNL     1       9.803  31.163  58.631  1.00  0.00     0.257 C 
HETATM    2  N   UNL     1       9.082  30.890  59.767  1.00  0.00    -0.354 N 
HETATM    3  O   UNL     1      10.615  32.081  58.564  1.00  0.00    -0.267 OA
HETATM    4  H   UNL     1       8.340  30.195  59.698  1.00  0.00     0.162 HD
ENDROOT
BRANCH   2   5
HETATM    5  C   UNL     1       9.171  31.673  60.983  1.00  0.00     0.156 C 
BRANCH   5   6
HETATM    6  C   UNL     1       8.708  30.920  62.237  1.00  0.00     0.160 C 
BRANCH   6   7
HETATM    7  O   UNL     1       9.027  29.525  62.106  1.00  0.00    -0.392 OA
HETATM    8  H   UNL     1       9.354  29.413  61.193  1.00  0.00     0.210 HD
ENDBRANCH   6   7
BRANCH   6   9
HETATM    9  C   UNL     1       7.214  31.096  62.534  1.00  0.00     0.209 C 
BRANCH   9  10
HETATM   10  O   UNL     1       6.949  32.508  62.550  1.00  0.00    -0.349 OA
BRANCH  10  11
HETATM   11  C   UNL     1       6.431  33.023  63.707  1.00  0.00     0.069 A 
HETATM   12  C   UNL     1       7.382  33.367  64.671  1.00  0.00     0.038 A 
HETATM   13  C   UNL     1       6.991  33.911  65.896  1.00  0.00     0.026 A 
HETATM   14  C   UNL     1       5.640  34.120  66.154  1.00  0.00     0.034 A 
HETATM   15 CL   UNL     1       5.149  34.796  67.659  1.00  0.00    -0.084 Cl
HETATM   16  C   UNL     1       4.682  33.788  65.198  1.00  0.00     0.026 A 
HETATM   17  C   UNL     1       5.077  33.237  63.974  1.00  0.00     0.038 A 
ENDBRANCH  10  11
ENDBRANCH   9  10
ENDBRANCH   6   9
ENDBRANCH   5   6
ENDBRANCH   2   5
BRANCH   1  18
HETATM   18  C   UNL     1       9.518  30.303  57.500  1.00  0.00     0.098 A 
HETATM   19  C   UNL     1       8.386  29.545  57.253  1.00  0.00     0.167 A 
HETATM   20  N   UNL     1       8.609  28.893  56.035  1.00  0.00    -0.226 N 
HETATM   21  N   UNL     1       7.223  29.373  57.964  1.00  0.00    -0.240 NA
HETATM   22  C   UNL     1       7.651  28.035  55.504  1.00  0.00     0.128 A 
HETATM   23  N   UNL     1       9.814  29.210  55.506  1.00  0.00    -0.178 NA
HETATM   24  C   UNL     1       6.494  27.818  56.150  1.00  0.00    -0.027 A 
HETATM   25  C   UNL     1       5.388  26.929  55.708  1.00  0.00     0.051 C 
HETATM   26  C   UNL     1       6.350  28.566  57.437  1.00  0.00     0.127 A 
HETATM   27  C   UNL     1      10.350  30.053  56.391  1.00  0.00     0.160 A 
ENDBRANCH   1  18
TORSDOF 7
ENDMDL
MODEL 7
REMARK VINA RESULT:      -8.0      1.968      2.239
REMARK  7 active torsions:
REMARK  status: ('A' for Active; 'I' for Inactive)
REMARK    1  A    between atoms: C_10  and  C_11 
REMARK       I    between atoms: C_11  and  N_12 
REMARK    2  A    between atoms: N_12  and  C_13 
REMARK    3  A    between atoms: C_13  and  C_14 
REMARK    4  A    between atoms: C_14  and  O_15 
REMARK    5  A    between atoms: C_14  and  C_16 
REMARK    6  A    between atoms: C_16  and  O_17 
REMARK    7  A    between atoms: O_17  and  C_18 
ROOT
HETATM    1  C   UNL     1       6.010  28.790  55.191  1.00  0.00     0.257 C 
HETATM    2  N   UNL     1       6.512  28.022  54.170  1.00  0.00    -0.354 N 
HETATM    3  O   UNL     1       4.934  29.378  55.113  1.00  0.00    -0.267 OA
HETATM    4  H   UNL     1       7.466  27.676  54.267  1.00  0.00     0.162 HD
ENDROOT
BRANCH   2   5
HETATM    5  C   UNL     1       5.855  27.858  52.889  1.00  0.00     0.156 C 
BRANCH   5   6
HETATM    6  C   UNL     1       4.840  26.708  52.859  1.00  0.00     0.160 C 
BRANCH   6   7
HETATM    7  O   UNL     1       3.557  27.187  53.293  1.00  0.00    -0.392 OA
HETATM    8  H   UNL     1       3.673  28.142  53.457  1.00  0.00     0.210 HD
ENDBRANCH   6   7
BRANCH   6   9
HETATM    9  C   UNL     1       5.267  25.500  53.703  1.00  0.00     0.209 C 
BRANCH   9  10
HETATM   10  O   UNL     1       6.666  25.286  53.457  1.00  0.00    -0.349 OA
BRANCH  10  11
HETATM   11  C   UNL     1       7.152  24.034  53.720  1.00  0.00     0.069 A 
HETATM   12  C   UNL     1       7.103  23.660  55.066  1.00  0.00     0.038 A 
HETATM   13  C   UNL     1       7.559  22.405  55.474  1.00  0.00     0.026 A 
HETATM   14  C   UNL     1       8.059  21.515  54.527  1.00  0.00     0.034 A 
HETATM   15 CL   UNL     1       8.618  19.964  55.020  1.00  0.00    -0.084 Cl
HETATM   16  C   UNL     1       8.107  21.874  53.181  1.00  0.00     0.026 A 
HETATM   17  C   UNL     1       7.655  23.135  52.777  1.00  0.00     0.038 A 
ENDBRANCH  10  11
ENDBRANCH   9  10
ENDBRANCH   6   9
ENDBRANCH   5   6
ENDBRANCH   2   5
BRANCH   1  18
HETATM   18  C   UNL     1       6.854  28.881  56.365  1.00  0.00     0.098 A 
HETATM   19  C   UNL     1       6.886  29.869  57.334  1.00  0.00     0.167 A 
HETATM   20  N   UNL     1       7.878  29.492  58.247  1.00  0.00    -0.226 N 
HETATM   21  N   UNL     1       6.160  31.025  57.490  1.00  0.00    -0.240 NA
HETATM   22  C   UNL     1       8.167  30.290  59.349  1.00  0.00     0.128 A 
HETATM   23  N   UNL     1       8.460  28.319  57.903  1.00  0.00    -0.178 NA
HETATM   24  C   UNL     1       7.500  31.436  59.558  1.00  0.00    -0.027 A 
HETATM   25  C   UNL     1       7.705  32.386  60.683  1.00  0.00     0.051 C 
HETATM   26  C   UNL     1       6.457  31.745  58.532  1.00  0.00     0.127 A 
HETATM   27  C   UNL     1       7.842  27.963  56.776  1.00  0.00     0.160 A 
ENDBRANCH   1  18
TORSDOF 7
ENDMDL
MODEL 8
REMARK VINA RESULT:      -8.0      4.251      9.021
REMARK  7 active torsions:
REMARK  status: ('A' for Active; 'I' for Inactive)
REMARK    1  A    between atoms: C_10  and  C_11 
REMARK       I    between atoms: C_11  and  N_12 
REMARK    2  A    between atoms: N_12  and  C_13 
REMARK    3  A    between atoms: C_13  and  C_14 
REMARK    4  A    between atoms: C_14  and  O_15 
REMARK    5  A    between atoms: C_14  and  C_16 
REMARK    6  A    between atoms: C_16  and  O_17 
REMARK    7  A    between atoms: O_17  and  C_18 
ROOT
HETATM    1  C   UNL     1       7.549  26.676  56.025  1.00  0.00     0.257 C 
HETATM    2  N   UNL     1       8.280  27.527  56.817  1.00  0.00    -0.354 N 
HETATM    3  O   UNL     1       6.661  27.067  55.273  1.00  0.00    -0.267 OA
HETATM    4  H   UNL     1       8.907  27.109  57.502  1.00  0.00     0.162 HD
ENDROOT
BRANCH   2   5
HETATM    5  C   UNL     1       8.055  28.957  56.882  1.00  0.00     0.156 C 
BRANCH   5   6
HETATM    6  C   UNL     1       9.344  29.780  57.002  1.00  0.00     0.160 C 
BRANCH   6   7
HETATM    7  O   UNL     1      10.482  28.913  56.873  1.00  0.00    -0.392 OA
HETATM    8  H   UNL     1      10.614  28.517  57.756  1.00  0.00     0.210 HD
ENDBRANCH   6   7
BRANCH   6   9
HETATM    9  C   UNL     1       9.433  30.581  58.307  1.00  0.00     0.209 C 
BRANCH   9  10
HETATM   10  O   UNL     1       8.194  30.385  59.008  1.00  0.00    -0.349 OA
BRANCH  10  11
HETATM   11  C   UNL     1       8.031  31.085  60.173  1.00  0.00     0.069 A 
HETATM   12  C   UNL     1       8.845  30.661  61.227  1.00  0.00     0.038 A 
HETATM   13  C   UNL     1       8.786  31.293  62.471  1.00  0.00     0.026 A 
HETATM   14  C   UNL     1       7.913  32.361  62.659  1.00  0.00     0.034 A 
HETATM   15 CL   UNL     1       7.838  33.149  64.186  1.00  0.00    -0.084 Cl
HETATM   16  C   UNL     1       7.101  32.797  61.613  1.00  0.00     0.026 A 
HETATM   17  C   UNL     1       7.158  32.157  60.369  1.00  0.00     0.038 A 
ENDBRANCH  10  11
ENDBRANCH   9  10
ENDBRANCH   6   9
ENDBRANCH   5   6
ENDBRANCH   2   5
BRANCH   1  18
HETATM   18  C   UNL     1       7.885  25.273  56.158  1.00  0.00     0.098 A 
HETATM   19  C   UNL     1       7.922  24.295  55.178  1.00  0.00     0.167 A 
HETATM   20  N   UNL     1       8.296  23.110  55.820  1.00  0.00    -0.226 N 
HETATM   21  N   UNL     1       7.667  24.338  53.829  1.00  0.00    -0.240 NA
HETATM   22  C   UNL     1       8.416  21.923  55.105  1.00  0.00     0.128 A 
HETATM   23  N   UNL     1       8.502  23.297  57.145  1.00  0.00    -0.178 NA
HETATM   24  C   UNL     1       8.176  21.893  53.784  1.00  0.00    -0.027 A 
HETATM   25  C   UNL     1       8.259  20.703  52.897  1.00  0.00     0.051 C 
HETATM   26  C   UNL     1       7.790  23.211  53.192  1.00  0.00     0.127 A 
HETATM   27  C   UNL     1       8.252  24.594  57.337  1.00  0.00     0.160 A 
ENDBRANCH   1  18
TORSDOF 7
ENDMDL
MODEL 9
REMARK VINA RESULT:      -8.0      2.562      3.737
REMARK  7 active torsions:
REMARK  status: ('A' for Active; 'I' for Inactive)
REMARK    1  A    between atoms: C_10  and  C_11 
REMARK       I    between atoms: C_11  and  N_12 
REMARK    2  A    between atoms: N_12  and  C_13 
REMARK    3  A    between atoms: C_13  and  C_14 
REMARK    4  A    between atoms: C_14  and  O_15 
REMARK    5  A    between atoms: C_14  and  C_16 
REMARK    6  A    between atoms: C_16  and  O_17 
REMARK    7  A    between atoms: O_17  and  C_18 
ROOT
HETATM    1  C   UNL     1       7.097  31.076  58.780  1.00  0.00     0.257 C 
HETATM    2  N   UNL     1       7.066  29.783  58.319  1.00  0.00    -0.354 N 
HETATM    3  O   UNL     1       6.599  32.013  58.162  1.00  0.00    -0.267 OA
HETATM    4  H   UNL     1       7.612  29.090  58.829  1.00  0.00     0.162 HD
ENDROOT
BRANCH   2   5
HETATM    5  C   UNL     1       6.487  29.396  57.049  1.00  0.00     0.156 C 
BRANCH   5   6
HETATM    6  C   UNL     1       7.398  28.497  56.204  1.00  0.00     0.160 C 
BRANCH   6   7
HETATM    7  O   UNL     1       8.142  29.302  55.275  1.00  0.00    -0.392 OA
HETATM    8  H   UNL     1       8.632  29.948  55.818  1.00  0.00     0.210 HD
ENDBRANCH   6   7
BRANCH   6   9
HETATM    9  C   UNL     1       6.638  27.393  55.457  1.00  0.00     0.209 C 
BRANCH   9  10
HETATM   10  O   UNL     1       7.363  27.126  54.245  1.00  0.00    -0.349 OA
BRANCH  10  11
HETATM   11  C   UNL     1       7.499  25.813  53.888  1.00  0.00     0.069 A 
HETATM   12  C   UNL     1       7.358  24.904  54.940  1.00  0.00     0.038 A 
HETATM   13  C   UNL     1       7.466  23.530  54.714  1.00  0.00     0.026 A 
HETATM   14  C   UNL     1       7.709  23.063  53.426  1.00  0.00     0.034 A 
HETATM   15 CL   UNL     1       7.838  21.371  53.137  1.00  0.00    -0.084 Cl
HETATM   16  C   UNL     1       7.845  23.959  52.367  1.00  0.00     0.026 A 
HETATM   17  C   UNL     1       7.743  25.336  52.598  1.00  0.00     0.038 A 
ENDBRANCH  10  11
ENDBRANCH   9  10
ENDBRANCH   6   9
ENDBRANCH   5   6
ENDBRANCH   2   5
BRANCH   1  18
HETATM   18  C   UNL     1       7.784  31.264  60.042  1.00  0.00     0.098 A 
HETATM   19  C   UNL     1       7.344  31.923  61.177  1.00  0.00     0.167 A 
HETATM   20  N   UNL     1       8.380  31.825  62.113  1.00  0.00    -0.226 N 
HETATM   21  N   UNL     1       6.171  32.577  61.462  1.00  0.00    -0.240 NA
HETATM   22  C   UNL     1       8.255  32.402  63.372  1.00  0.00     0.128 A 
HETATM   23  N   UNL     1       9.438  31.134  61.625  1.00  0.00    -0.178 NA
HETATM   24  C   UNL     1       7.136  33.061  63.714  1.00  0.00    -0.027 A 
HETATM   25  C   UNL     1       6.866  33.729  65.014  1.00  0.00     0.051 C 
HETATM   26  C   UNL     1       6.088  33.103  62.648  1.00  0.00     0.127 A 
HETATM   27  C   UNL     1       9.071  30.805  60.385  1.00  0.00     0.160 A 
ENDBRANCH   1  18
TORSDOF 7
ENDMDL
MODEL 10
REMARK VINA RESULT:      -7.9      2.756      4.259
REMARK  7 active torsions:
REMARK  status: ('A' for Active; 'I' for Inactive)
REMARK    1  A    between atoms: C_10  and  C_11 
REMARK       I    between atoms: C_11  and  N_12 
REMARK    2  A    between atoms: N_12  and  C_13 
REMARK    3  A    between atoms: C_13  and  C_14 
REMARK    4  A    between atoms: C_14  and  O_15 
REMARK    5  A    between atoms: C_14  and  C_16 
REMARK    6  A    between atoms: C_16  and  O_17 
REMARK    7  A    between atoms: O_17  and  C_18 
ROOT
HETATM    1  C   UNL     1       9.444  31.442  58.972  1.00  0.00     0.257 C 
HETATM    2  N   UNL     1       9.042  30.251  58.419  1.00  0.00    -0.354 N 
HETATM    3  O   UNL     1      10.274  32.174  58.440  1.00  0.00    -0.267 OA
HETATM    4  H   UNL     1       8.448  29.646  58.985  1.00  0.00     0.162 HD
ENDROOT
BRANCH   2   5
HETATM    5  C   UNL     1       9.580  29.715  57.185  1.00  0.00     0.156 C 
BRANCH   5   6
HETATM    6  C   UNL     1       8.654  28.705  56.495  1.00  0.00     0.160 C 
BRANCH   6   7
HETATM    7  O   UNL     1       8.155  29.269  55.271  1.00  0.00    -0.392 OA
HETATM    8  H   UNL     1       8.892  29.215  54.634  1.00  0.00     0.210 HD
ENDBRANCH   6   7
BRANCH   6   9
HETATM    9  C   UNL     1       7.489  28.247  57.381  1.00  0.00     0.209 C 
BRANCH   9  10
HETATM   10  O   UNL     1       7.903  27.034  58.030  1.00  0.00    -0.349 OA
BRANCH  10  11
HETATM   11  C   UNL     1       7.745  25.874  57.322  1.00  0.00     0.069 A 
HETATM   12  C   UNL     1       8.720  24.903  57.567  1.00  0.00     0.038 A 
HETATM   13  C   UNL     1       8.675  23.667  56.917  1.00  0.00     0.026 A 
HETATM   14  C   UNL     1       7.642  23.399  56.023  1.00  0.00     0.034 A 
HETATM   15 CL   UNL     1       7.576  21.878  55.222  1.00  0.00    -0.084 Cl
HETATM   16  C   UNL     1       6.660  24.357  55.776  1.00  0.00     0.026 A 
HETATM   17  C   UNL     1       6.712  25.596  56.424  1.00  0.00     0.038 A 
ENDBRANCH  10  11
ENDBRANCH   9  10
ENDBRANCH   6   9
ENDBRANCH   5   6
ENDBRANCH   2   5
BRANCH   1  18
HETATM   18  C   UNL     1       8.835  31.765  60.246  1.00  0.00     0.098 A 
HETATM   19  C   UNL     1       7.509  32.050  60.524  1.00  0.00     0.167 A 
HETATM   20  N   UNL     1       7.442  32.299  61.900  1.00  0.00    -0.226 N 
HETATM   21  N   UNL     1       6.396  32.113  59.722  1.00  0.00    -0.240 NA
HETATM   22  C   UNL     1       6.232  32.629  62.502  1.00  0.00     0.128 A 
HETATM   23  N   UNL     1       8.651  32.176  62.495  1.00  0.00    -0.178 NA
HETATM   24  C   UNL     1       5.107  32.714  61.775  1.00  0.00    -0.027 A 
HETATM   25  C   UNL     1       3.752  33.060  62.279  1.00  0.00     0.051 C 
HETATM   26  C   UNL     1       5.283  32.423  60.319  1.00  0.00     0.127 A 
HETATM   27  C   UNL     1       9.478  31.858  61.497  1.00  0.00     0.160 A 
ENDBRANCH   1  18
TORSDOF 7
ENDMDL
