MODEL 1
REMARK VINA RESULT:      -8.9      0.000      0.000
REMARK  7 active torsions:
REMARK  status: ('A' for Active; 'I' for Inactive)
REMARK    1  A    between atoms: C_10  and  C_11 
REMARK       I    between atoms: C_11  and  N_12 
REMARK    2  A    between atoms: N_12  and  C_13 
REMARK    3  A    between atoms: C_13  and  C_14 
REMARK    4  A    between atoms: C_14  and  O_15 
REMARK    5  A    between atoms: C_14  and  C_16 
REMARK    6  A    between atoms: C_16  and  O_17 
REMARK    7  A    between atoms: O_17  and  C_18 
ROOT
HETATM    1  C   UNL     1       8.329  29.307  57.757  1.00  0.00     0.257 C 
HETATM    2  N   UNL     1       7.553  28.246  57.352  1.00  0.00    -0.354 N 
HETATM    3  O   UNL     1       9.519  29.414  57.482  1.00  0.00    -0.267 OA
HETATM    4  H   UNL     1       6.615  28.227  57.751  1.00  0.00     0.162 HD
ENDROOT
BRANCH   2   5
HETATM    5  C   UNL     1       8.073  26.986  56.830  1.00  0.00     0.156 C 
BRANCH   5   6
HETATM    6  C   UNL     1       7.937  25.757  57.749  1.00  0.00     0.160 C 
BRANCH   6   7
HETATM    7  O   UNL     1       6.621  25.199  57.609  1.00  0.00    -0.392 OA
HETATM    8  H   UNL     1       6.700  24.488  56.935  1.00  0.00     0.210 HD
ENDBRANCH   6   7
BRANCH   6   9
HETATM    9  C   UNL     1       8.945  24.667  57.351  1.00  0.00     0.209 C 
BRANCH   9  10
HETATM   10  O   UNL     1       8.311  23.387  57.486  1.00  0.00    -0.349 OA
BRANCH  10  11
HETATM   11  C   UNL     1       8.316  22.566  56.394  1.00  0.00     0.069 A 
HETATM   12  C   UNL     1       8.560  23.215  55.180  1.00  0.00     0.038 A 
HETATM   13  C   UNL     1       8.590  22.498  53.981  1.00  0.00     0.026 A 
HETATM   14  C   UNL     1       8.371  21.124  53.999  1.00  0.00     0.034 A 
HETATM   15 CL   UNL     1       8.405  20.231  52.528  1.00  0.00    -0.084 Cl
HETATM   16  C   UNL     1       8.121  20.467  55.203  1.00  0.00     0.026 A 
HETATM   17  C   UNL     1       8.091  21.189  56.402  1.00  0.00     0.038 A 
ENDBRANCH  10  11
ENDBRANCH   9  10
ENDBRANCH   6   9
ENDBRANCH   5   6
ENDBRANCH   2   5
BRANCH   1  18
HETATM   18  C   UNL     1       7.646  30.310  58.548  1.00  0.00     0.098 A 
HETATM   19  C   UNL     1       7.907  30.721  59.843  1.00  0.00     0.167 A 
HETATM   20  N   UNL     1       7.003  31.756  60.113  1.00  0.00    -0.226 N 
HETATM   21  N   UNL     1       8.845  30.318  60.762  1.00  0.00    -0.240 NA
HETATM   22  C   UNL     1       7.044  32.434  61.325  1.00  0.00     0.128 A 
HETATM   23  N   UNL     1       6.166  31.980  59.074  1.00  0.00    -0.178 NA
HETATM   24  C   UNL     1       7.951  32.109  62.260  1.00  0.00    -0.027 A 
HETATM   25  C   UNL     1       8.125  32.765  63.583  1.00  0.00     0.051 C 
HETATM   26  C   UNL     1       8.853  30.978  61.885  1.00  0.00     0.127 A 
HETATM   27  C   UNL     1       6.569  31.121  58.136  1.00  0.00     0.160 A 
ENDBRANCH   1  18
TORSDOF 7
ENDMDL
MODEL 2
REMARK VINA RESULT:      -8.9      1.933      2.674
REMARK  7 active torsions:
REMARK  status: ('A' for Active; 'I' for Inactive)
REMARK    1  A    between atoms: C_10  and  C_11 
REMARK       I    between atoms: C_11  and  N_12 
REMARK    2  A    between atoms: N_12  and  C_13 
REMARK    3  A    between atoms: C_13  and  C_14 
REMARK    4  A    between atoms: C_14  and  O_15 
REMARK    5  A    between atoms: C_14  and  C_16 
REMARK    6  A    between atoms: C_16  and  O_17 
REMARK    7  A    between atoms: O_17  and  C_18 
ROOT
HETATM    1  C   UNL     1       8.239  28.967  55.972  1.00  0.00     0.257 C 
HETATM    2  N   UNL     1       7.043  28.576  56.527  1.00  0.00    -0.354 N 
HETATM    3  O   UNL     1       8.598  28.642  54.846  1.00  0.00    -0.267 OA
HETATM    4  H   UNL     1       6.928  28.819  57.510  1.00  0.00     0.162 HD
ENDROOT
BRANCH   2   5
HETATM    5  C   UNL     1       6.198  27.503  56.010  1.00  0.00     0.156 C 
BRANCH   5   6
HETATM    6  C   UNL     1       5.684  26.481  57.043  1.00  0.00     0.160 C 
BRANCH   6   7
HETATM    7  O   UNL     1       4.270  26.298  56.870  1.00  0.00    -0.392 OA
HETATM    8  H   UNL     1       4.146  26.011  55.939  1.00  0.00     0.210 HD
ENDBRANCH   6   7
BRANCH   6   9
HETATM    9  C   UNL     1       6.355  25.114  56.834  1.00  0.00     0.209 C 
BRANCH   9  10
HETATM   10  O   UNL     1       7.368  25.250  55.828  1.00  0.00    -0.349 OA
BRANCH  10  11
HETATM   11  C   UNL     1       7.582  24.183  55.004  1.00  0.00     0.069 A 
HETATM   12  C   UNL     1       7.670  22.951  55.659  1.00  0.00     0.038 A 
HETATM   13  C   UNL     1       7.890  21.774  54.940  1.00  0.00     0.026 A 
HETATM   14  C   UNL     1       8.027  21.832  53.556  1.00  0.00     0.034 A 
HETATM   15 CL   UNL     1       8.299  20.388  52.660  1.00  0.00    -0.084 Cl
HETATM   16  C   UNL     1       7.946  23.055  52.892  1.00  0.00     0.026 A 
HETATM   17  C   UNL     1       7.726  24.232  53.616  1.00  0.00     0.038 A 
ENDBRANCH  10  11
ENDBRANCH   9  10
ENDBRANCH   6   9
ENDBRANCH   5   6
ENDBRANCH   2   5
BRANCH   1  18
HETATM   18  C   UNL     1       9.072  29.800  56.817  1.00  0.00     0.098 A 
HETATM   19  C   UNL     1       8.770  30.375  58.038  1.00  0.00     0.167 A 
HETATM   20  N   UNL     1       9.936  31.024  58.462  1.00  0.00    -0.226 N 
HETATM   21  N   UNL     1       7.628  30.360  58.802  1.00  0.00    -0.240 NA
HETATM   22  C   UNL     1       9.985  31.658  59.698  1.00  0.00     0.128 A 
HETATM   23  N   UNL     1      10.932  30.920  57.552  1.00  0.00    -0.178 NA
HETATM   24  C   UNL     1       8.914  31.662  60.507  1.00  0.00    -0.027 A 
HETATM   25  C   UNL     1       8.834  32.275  61.859  1.00  0.00     0.051 C 
HETATM   26  C   UNL     1       7.713  30.964  59.954  1.00  0.00     0.127 A 
HETATM   27  C   UNL     1      10.410  30.172  56.578  1.00  0.00     0.160 A 
ENDBRANCH   1  18
TORSDOF 7
ENDMDL
MODEL 3
REMARK VINA RESULT:      -8.8      2.710      3.553
REMARK  7 active torsions:
REMARK  status: ('A' for Active; 'I' for Inactive)
REMARK    1  A    between atoms: C_10  and  C_11 
REMARK       I    between atoms: C_11  and  N_12 
REMARK    2  A    between atoms: N_12  and  C_13 
REMARK    3  A    between atoms: C_13  and  C_14 
REMARK    4  A    between atoms: C_14  and  O_15 
REMARK    5  A    between atoms: C_14  and  C_16 
REMARK    6  A    between atoms: C_16  and  O_17 
REMARK    7  A    between atoms: O_17  and  C_18 
ROOT
HETATM    1  C   UNL     1       7.958  28.414  56.039  1.00  0.00     0.257 C 
HETATM    2  N   UNL     1       7.089  28.954  55.119  1.00  0.00    -0.354 N 
HETATM    3  O   UNL     1       7.950  27.230  56.359  1.00  0.00    -0.267 OA
HETATM    4  H   UNL     1       7.129  29.969  55.039  1.00  0.00     0.162 HD
ENDROOT
BRANCH   2   5
HETATM    5  C   UNL     1       5.874  28.302  54.640  1.00  0.00     0.156 C 
BRANCH   5   6
HETATM    6  C   UNL     1       5.841  27.931  53.145  1.00  0.00     0.160 C 
BRANCH   6   7
HETATM    7  O   UNL     1       6.457  28.979  52.379  1.00  0.00    -0.392 OA
HETATM    8  H   UNL     1       6.780  29.637  53.033  1.00  0.00     0.210 HD
ENDBRANCH   6   7
BRANCH   6   9
HETATM    9  C   UNL     1       6.639  26.642  52.887  1.00  0.00     0.209 C 
BRANCH   9  10
HETATM   10  O   UNL     1       6.587  25.829  54.067  1.00  0.00    -0.349 OA
BRANCH  10  11
HETATM   11  C   UNL     1       7.037  24.543  53.964  1.00  0.00     0.069 A 
HETATM   12  C   UNL     1       7.072  23.841  55.172  1.00  0.00     0.038 A 
HETATM   13  C   UNL     1       7.514  22.516  55.215  1.00  0.00     0.026 A 
HETATM   14  C   UNL     1       7.926  21.893  54.041  1.00  0.00     0.034 A 
HETATM   15 CL   UNL     1       8.473  20.262  54.082  1.00  0.00    -0.084 Cl
HETATM   16  C   UNL     1       7.900  22.585  52.831  1.00  0.00     0.026 A 
HETATM   17  C   UNL     1       7.458  23.912  52.792  1.00  0.00     0.038 A 
ENDBRANCH  10  11
ENDBRANCH   9  10
ENDBRANCH   6   9
ENDBRANCH   5   6
ENDBRANCH   2   5
BRANCH   1  18
HETATM   18  C   UNL     1       8.899  29.346  56.625  1.00  0.00     0.098 A 
HETATM   19  C   UNL     1       8.827  30.007  57.838  1.00  0.00     0.167 A 
HETATM   20  N   UNL     1      10.017  30.735  57.956  1.00  0.00    -0.226 N 
HETATM   21  N   UNL     1       7.873  30.009  58.826  1.00  0.00    -0.240 NA
HETATM   22  C   UNL     1      10.287  31.471  59.104  1.00  0.00     0.128 A 
HETATM   23  N   UNL     1      10.805  30.597  56.865  1.00  0.00    -0.178 NA
HETATM   24  C   UNL     1       9.410  31.498  60.120  1.00  0.00    -0.027 A 
HETATM   25  C   UNL     1       9.580  32.217  61.411  1.00  0.00     0.051 C 
HETATM   26  C   UNL     1       8.162  30.709  59.886  1.00  0.00     0.127 A 
HETATM   27  C   UNL     1      10.135  29.751  56.081  1.00  0.00     0.160 A 
ENDBRANCH   1  18
TORSDOF 7
ENDMDL
MODEL 4
REMARK VINA RESULT:      -8.6      1.580      2.056
REMARK  7 active torsions:
REMARK  status: ('A' for Active; 'I' for Inactive)
REMARK    1  A    between atoms: C_10  and  C_11 
REMARK       I    between atoms: C_11  and  N_12 
REMARK    2  A    between atoms: N_12  and  C_13 
REMARK    3  A    between atoms: C_13  and  C_14 
REMARK    4  A    between atoms: C_14  and  O_15 
REMARK    5  A    between atoms: C_14  and  C_16 
REMARK    6  A    between atoms: C_16  and  O_17 
REMARK    7  A    between atoms: O_17  and  C_18 
ROOT
HETATM    1  C   UNL     1       8.124  29.830  58.002  1.00  0.00     0.257 C 
HETATM    2  N   UNL     1       7.440  29.455  56.869  1.00  0.00    -0.354 N 
HETATM    3  O   UNL     1       9.213  29.363  58.317  1.00  0.00    -0.267 OA
HETATM    4  H   UNL     1       6.496  29.834  56.795  1.00  0.00     0.162 HD
ENDROOT
BRANCH   2   5
HETATM    5  C   UNL     1       7.739  28.270  56.071  1.00  0.00     0.156 C 
BRANCH   5   6
HETATM    6  C   UNL     1       6.954  28.117  54.754  1.00  0.00     0.160 C 
BRANCH   6   7
HETATM    7  O   UNL     1       7.792  28.498  53.651  1.00  0.00    -0.392 OA
HETATM    8  H   UNL     1       8.705  28.234  53.902  1.00  0.00     0.210 HD
ENDBRANCH   6   7
BRANCH   6   9
HETATM    9  C   UNL     1       6.540  26.653  54.534  1.00  0.00     0.209 C 
BRANCH   9  10
HETATM   10  O   UNL     1       7.464  25.807  55.232  1.00  0.00    -0.349 OA
BRANCH  10  11
HETATM   11  C   UNL     1       7.591  24.519  54.794  1.00  0.00     0.069 A 
HETATM   12  C   UNL     1       7.743  24.388  53.410  1.00  0.00     0.038 A 
HETATM   13  C   UNL     1       7.881  23.128  52.824  1.00  0.00     0.026 A 
HETATM   14  C   UNL     1       7.862  21.992  53.628  1.00  0.00     0.034 A 
HETATM   15 CL   UNL     1       8.031  20.435  52.916  1.00  0.00    -0.084 Cl
HETATM   16  C   UNL     1       7.706  22.110  55.008  1.00  0.00     0.026 A 
HETATM   17  C   UNL     1       7.568  23.375  55.592  1.00  0.00     0.038 A 
ENDBRANCH  10  11
ENDBRANCH   9  10
ENDBRANCH   6   9
ENDBRANCH   5   6
ENDBRANCH   2   5
BRANCH   1  18
HETATM   18  C   UNL     1       7.466  30.826  58.823  1.00  0.00     0.098 A 
HETATM   19  C   UNL     1       7.704  31.158  60.145  1.00  0.00     0.167 A 
HETATM   20  N   UNL     1       6.845  32.224  60.439  1.00  0.00    -0.226 N 
HETATM   21  N   UNL     1       8.586  30.659  61.071  1.00  0.00    -0.240 NA
HETATM   22  C   UNL     1       6.878  32.837  61.686  1.00  0.00     0.128 A 
HETATM   23  N   UNL     1       6.057  32.544  59.387  1.00  0.00    -0.178 NA
HETATM   24  C   UNL     1       7.734  32.418  62.631  1.00  0.00    -0.027 A 
HETATM   25  C   UNL     1       7.896  32.995  63.992  1.00  0.00     0.051 C 
HETATM   26  C   UNL     1       8.590  31.260  62.227  1.00  0.00     0.127 A 
HETATM   27  C   UNL     1       6.447  31.713  58.419  1.00  0.00     0.160 A 
ENDBRANCH   1  18
TORSDOF 7
ENDMDL
MODEL 5
REMARK VINA RESULT:      -8.6      4.325      9.615
REMARK  7 active torsions:
REMARK  status: ('A' for Active; 'I' for Inactive)
REMARK    1  A    between atoms: C_10  and  C_11 
REMARK       I    between atoms: C_11  and  N_12 
REMARK    2  A    between atoms: N_12  and  C_13 
REMARK    3  A    between atoms: C_13  and  C_14 
REMARK    4  A    between atoms: C_14  and  O_15 
REMARK    5  A    between atoms: C_14  and  C_16 
REMARK    6  A    between atoms: C_16  and  O_17 
REMARK    7  A    between atoms: O_17  and  C_18 
ROOT
HETATM    1  C   UNL     1       7.367  27.306  54.180  1.00  0.00     0.257 C 
HETATM    2  N   UNL     1       7.650  27.540  55.505  1.00  0.00    -0.354 N 
HETATM    3  O   UNL     1       6.959  28.173  53.415  1.00  0.00    -0.267 OA
HETATM    4  H   UNL     1       7.864  26.705  56.050  1.00  0.00     0.162 HD
ENDROOT
BRANCH   2   5
HETATM    5  C   UNL     1       7.228  28.722  56.250  1.00  0.00     0.156 C 
BRANCH   5   6
HETATM    6  C   UNL     1       7.518  28.716  57.763  1.00  0.00     0.160 C 
BRANCH   6   7
HETATM    7  O   UNL     1       7.829  27.378  58.185  1.00  0.00    -0.392 OA
HETATM    8  H   UNL     1       7.308  26.783  57.601  1.00  0.00     0.210 HD
ENDBRANCH   6   7
BRANCH   6   9
HETATM    9  C   UNL     1       8.737  29.595  58.087  1.00  0.00     0.209 C 
BRANCH   9  10
HETATM   10  O   UNL     1       8.295  30.950  58.243  1.00  0.00    -0.349 OA
BRANCH  10  11
HETATM   11  C   UNL     1       8.137  31.416  59.517  1.00  0.00     0.069 A 
HETATM   12  C   UNL     1       9.279  31.320  60.318  1.00  0.00     0.038 A 
HETATM   13  C   UNL     1       9.260  31.757  61.644  1.00  0.00     0.026 A 
HETATM   14  C   UNL     1       8.088  32.290  62.173  1.00  0.00     0.034 A 
HETATM   15 CL   UNL     1       8.053  32.831  63.807  1.00  0.00    -0.084 Cl
HETATM   16  C   UNL     1       6.942  32.386  61.387  1.00  0.00     0.026 A 
HETATM   17  C   UNL     1       6.964  31.947  60.058  1.00  0.00     0.038 A 
ENDBRANCH  10  11
ENDBRANCH   9  10
ENDBRANCH   6   9
ENDBRANCH   5   6
ENDBRANCH   2   5
BRANCH   1  18
HETATM   18  C   UNL     1       7.576  25.944  53.731  1.00  0.00     0.098 A 
HETATM   19  C   UNL     1       7.651  24.784  54.482  1.00  0.00     0.167 A 
HETATM   20  N   UNL     1       7.797  23.736  53.564  1.00  0.00    -0.226 N 
HETATM   21  N   UNL     1       7.575  24.560  55.834  1.00  0.00    -0.240 NA
HETATM   22  C   UNL     1       7.842  22.416  53.998  1.00  0.00     0.128 A 
HETATM   23  N   UNL     1       7.859  24.185  52.290  1.00  0.00    -0.178 NA
HETATM   24  C   UNL     1       7.748  22.123  55.304  1.00  0.00    -0.027 A 
HETATM   25  C   UNL     1       7.754  20.762  55.904  1.00  0.00     0.051 C 
HETATM   26  C   UNL     1       7.619  23.311  56.202  1.00  0.00     0.127 A 
HETATM   27  C   UNL     1       7.710  25.506  52.398  1.00  0.00     0.160 A 
ENDBRANCH   1  18
TORSDOF 7
ENDMDL
MODEL 6
REMARK VINA RESULT:      -8.4      4.272      9.858
REMARK  7 active torsions:
REMARK  status: ('A' for Active; 'I' for Inactive)
REMARK    1  A    between atoms: C_10  and  C_11 
REMARK       I    between atoms: C_11  and  N_12 
REMARK    2  A    between atoms: N_12  and  C_13 
REMARK    3  A    between atoms: C_13  and  C_14 
REMARK    4  A    between atoms: C_14  and  O_15 
REMARK    5  A    between atoms: C_14  and  C_16 
REMARK    6  A    between atoms: C_16  and  O_17 
REMARK    7  A    between atoms: O_17  and  C_18 
ROOT
HETATM    1  C   UNL     1       7.289  26.647  55.287  1.00  0.00     0.257 C 
HETATM    2  N   UNL     1       6.593  27.334  56.254  1.00  0.00    -0.354 N 
HETATM    3  O   UNL     1       7.651  27.153  54.230  1.00  0.00    -0.267 OA
HETATM    4  H   UNL     1       6.254  26.759  57.025  1.00  0.00     0.162 HD
ENDROOT
BRANCH   2   5
HETATM    5  C   UNL     1       5.932  28.619  56.049  1.00  0.00     0.156 C 
BRANCH   5   6
HETATM    6  C   UNL     1       6.027  29.629  57.210  1.00  0.00     0.160 C 
BRANCH   6   7
HETATM    7  O   UNL     1       4.875  29.492  58.057  1.00  0.00    -0.392 OA
HETATM    8  H   UNL     1       4.190  30.087  57.680  1.00  0.00     0.210 HD
ENDBRANCH   6   7
BRANCH   6   9
HETATM    9  C   UNL     1       7.269  29.350  58.073  1.00  0.00     0.209 C 
BRANCH   9  10
HETATM   10  O   UNL     1       7.973  30.583  58.272  1.00  0.00    -0.349 OA
BRANCH  10  11
HETATM   11  C   UNL     1       7.909  31.149  59.514  1.00  0.00     0.069 A 
HETATM   12  C   UNL     1       8.926  30.752  60.387  1.00  0.00     0.038 A 
HETATM   13  C   UNL     1       8.983  31.250  61.690  1.00  0.00     0.026 A 
HETATM   14  C   UNL     1       8.012  32.149  62.123  1.00  0.00     0.034 A 
HETATM   15 CL   UNL     1       8.071  32.769  63.727  1.00  0.00    -0.084 Cl
HETATM   16  C   UNL     1       6.991  32.549  61.263  1.00  0.00     0.026 A 
HETATM   17  C   UNL     1       6.937  32.047  59.958  1.00  0.00     0.038 A 
ENDBRANCH  10  11
ENDBRANCH   9  10
ENDBRANCH   6   9
ENDBRANCH   5   6
ENDBRANCH   2   5
BRANCH   1  18
HETATM   18  C   UNL     1       7.570  25.259  55.592  1.00  0.00     0.098 A 
HETATM   19  C   UNL     1       7.658  24.180  54.730  1.00  0.00     0.167 A 
HETATM   20  N   UNL     1       8.013  23.079  55.519  1.00  0.00    -0.226 N 
HETATM   21  N   UNL     1       7.497  24.077  53.370  1.00  0.00    -0.240 NA
HETATM   22  C   UNL     1       8.243  21.837  54.940  1.00  0.00     0.128 A 
HETATM   23  N   UNL     1       8.107  23.405  56.829  1.00  0.00    -0.178 NA
HETATM   24  C   UNL     1       8.128  21.670  53.613  1.00  0.00    -0.027 A 
HETATM   25  C   UNL     1       8.370  20.410  52.860  1.00  0.00     0.051 C 
HETATM   26  C   UNL     1       7.723  22.898  52.864  1.00  0.00     0.127 A 
HETATM   27  C   UNL     1       7.856  24.715  56.861  1.00  0.00     0.160 A 
ENDBRANCH   1  18
TORSDOF 7
ENDMDL
MODEL 7
REMARK VINA RESULT:      -8.4      4.259     10.028
REMARK  7 active torsions:
REMARK  status: ('A' for Active; 'I' for Inactive)
REMARK    1  A    between atoms: C_10  and  C_11 
REMARK       I    between atoms: C_11  and  N_12 
REMARK    2  A    between atoms: N_12  and  C_13 
REMARK    3  A    between atoms: C_13  and  C_14 
REMARK    4  A    between atoms: C_14  and  O_15 
REMARK    5  A    between atoms: C_14  and  C_16 
REMARK    6  A    between atoms: C_16  and  O_17 
REMARK    7  A    between atoms: O_17  and  C_18 
ROOT
HETATM    1  C   UNL     1       7.691  26.339  56.144  1.00  0.00     0.257 C 
HETATM    2  N   UNL     1       8.580  27.104  56.862  1.00  0.00    -0.354 N 
HETATM    3  O   UNL     1       6.771  26.814  55.487  1.00  0.00    -0.267 OA
HETATM    4  H   UNL     1       9.218  26.574  57.455  1.00  0.00     0.162 HD
ENDROOT
BRANCH   2   5
HETATM    5  C   UNL     1       8.386  28.512  57.196  1.00  0.00     0.156 C 
BRANCH   5   6
HETATM    6  C   UNL     1       9.655  29.385  57.237  1.00  0.00     0.160 C 
BRANCH   6   7
HETATM    7  O   UNL     1       9.918  29.908  55.925  1.00  0.00    -0.392 OA
HETATM    8  H   UNL     1       9.063  30.267  55.601  1.00  0.00     0.210 HD
ENDBRANCH   6   7
BRANCH   6   9
HETATM    9  C   UNL     1       9.459  30.584  58.180  1.00  0.00     0.209 C 
BRANCH   9  10
HETATM   10  O   UNL     1       9.232  30.090  59.507  1.00  0.00    -0.349 OA
BRANCH  10  11
HETATM   11  C   UNL     1       8.685  30.953  60.413  1.00  0.00     0.069 A 
HETATM   12  C   UNL     1       7.550  31.631  59.959  1.00  0.00     0.038 A 
HETATM   13  C   UNL     1       6.889  32.548  60.780  1.00  0.00     0.026 A 
HETATM   14  C   UNL     1       7.371  32.789  62.064  1.00  0.00     0.034 A 
HETATM   15 CL   UNL     1       6.566  33.916  63.085  1.00  0.00    -0.084 Cl
HETATM   16  C   UNL     1       8.505  32.123  62.526  1.00  0.00     0.026 A 
HETATM   17  C   UNL     1       9.165  31.206  61.700  1.00  0.00     0.038 A 
ENDBRANCH  10  11
ENDBRANCH   9  10
ENDBRANCH   6   9
ENDBRANCH   5   6
ENDBRANCH   2   5
BRANCH   1  18
HETATM   18  C   UNL     1       7.905  24.908  56.216  1.00  0.00     0.098 A 
HETATM   19  C   UNL     1       7.902  23.976  55.192  1.00  0.00     0.167 A 
HETATM   20  N   UNL     1       8.223  22.748  55.783  1.00  0.00    -0.226 N 
HETATM   21  N   UNL     1       7.686  24.098  53.842  1.00  0.00    -0.240 NA
HETATM   22  C   UNL     1       8.363  21.604  55.007  1.00  0.00     0.128 A 
HETATM   23  N   UNL     1       8.383  22.857  57.122  1.00  0.00    -0.178 NA
HETATM   24  C   UNL     1       8.191  21.655  53.677  1.00  0.00    -0.027 A 
HETATM   25  C   UNL     1       8.335  20.521  52.726  1.00  0.00     0.051 C 
HETATM   26  C   UNL     1       7.828  23.005  53.147  1.00  0.00     0.127 A 
HETATM   27  C   UNL     1       8.206  24.156  57.370  1.00  0.00     0.160 A 
ENDBRANCH   1  18
TORSDOF 7
ENDMDL
MODEL 8
REMARK VINA RESULT:      -8.3      2.098      2.696
REMARK  7 active torsions:
REMARK  status: ('A' for Active; 'I' for Inactive)
REMARK    1  A    between atoms: C_10  and  C_11 
REMARK       I    between atoms: C_11  and  N_12 
REMARK    2  A    between atoms: N_12  and  C_13 
REMARK    3  A    between atoms: C_13  and  C_14 
REMARK    4  A    between atoms: C_14  and  O_15 
REMARK    5  A    between atoms: C_14  and  C_16 
REMARK    6  A    between atoms: C_16  and  O_17 
REMARK    7  A    between atoms: O_17  and  C_18 
ROOT
HETATM    1  C   UNL     1       5.044  30.445  56.775  1.00  0.00     0.257 C 
HETATM    2  N   UNL     1       4.793  29.134  57.106  1.00  0.00    -0.354 N 
HETATM    3  O   UNL     1       4.939  30.883  55.634  1.00  0.00    -0.267 OA
HETATM    4  H   UNL     1       5.035  28.882  58.064  1.00  0.00     0.162 HD
ENDROOT
BRANCH   2   5
HETATM    5  C   UNL     1       4.676  28.041  56.147  1.00  0.00     0.156 C 
BRANCH   5   6
HETATM    6  C   UNL     1       5.318  26.701  56.556  1.00  0.00     0.160 C 
BRANCH   6   7
HETATM    7  O   UNL     1       4.350  25.901  57.254  1.00  0.00    -0.392 OA
HETATM    8  H   UNL     1       3.527  26.437  57.284  1.00  0.00     0.210 HD
ENDBRANCH   6   7
BRANCH   6   9
HETATM    9  C   UNL     1       5.760  25.909  55.314  1.00  0.00     0.209 C 
BRANCH   9  10
HETATM   10  O   UNL     1       6.992  25.239  55.615  1.00  0.00    -0.349 OA
BRANCH  10  11
HETATM   11  C   UNL     1       7.323  24.159  54.846  1.00  0.00     0.069 A 
HETATM   12  C   UNL     1       7.429  22.955  55.549  1.00  0.00     0.038 A 
HETATM   13  C   UNL     1       7.764  21.771  54.889  1.00  0.00     0.026 A 
HETATM   14  C   UNL     1       7.998  21.794  53.517  1.00  0.00     0.034 A 
HETATM   15 CL   UNL     1       8.413  20.340  52.694  1.00  0.00    -0.084 Cl
HETATM   16  C   UNL     1       7.902  22.989  52.807  1.00  0.00     0.026 A 
HETATM   17  C   UNL     1       7.566  24.174  53.472  1.00  0.00     0.038 A 
ENDBRANCH  10  11
ENDBRANCH   9  10
ENDBRANCH   6   9
ENDBRANCH   5   6
ENDBRANCH   2   5
BRANCH   1  18
HETATM   18  C   UNL     1       5.456  31.295  57.873  1.00  0.00     0.098 A 
HETATM   19  C   UNL     1       6.562  31.177  58.696  1.00  0.00     0.167 A 
HETATM   20  N   UNL     1       6.532  32.287  59.550  1.00  0.00    -0.226 N 
HETATM   21  N   UNL     1       7.571  30.248  58.748  1.00  0.00    -0.240 NA
HETATM   22  C   UNL     1       7.551  32.500  60.470  1.00  0.00     0.128 A 
HETATM   23  N   UNL     1       5.446  33.064  59.331  1.00  0.00    -0.178 NA
HETATM   24  C   UNL     1       8.582  31.645  60.559  1.00  0.00    -0.027 A 
HETATM   25  C   UNL     1       9.749  31.764  61.474  1.00  0.00     0.051 C 
HETATM   26  C   UNL     1       8.509  30.482  59.622  1.00  0.00     0.127 A 
HETATM   27  C   UNL     1       4.817  32.471  58.316  1.00  0.00     0.160 A 
ENDBRANCH   1  18
TORSDOF 7
ENDMDL
MODEL 9
REMARK VINA RESULT:      -8.2      4.350      9.969
REMARK  7 active torsions:
REMARK  status: ('A' for Active; 'I' for Inactive)
REMARK    1  A    between atoms: C_10  and  C_11 
REMARK       I    between atoms: C_11  and  N_12 
REMARK    2  A    between atoms: N_12  and  C_13 
REMARK    3  A    between atoms: C_13  and  C_14 
REMARK    4  A    between atoms: C_14  and  O_15 
REMARK    5  A    between atoms: C_14  and  C_16 
REMARK    6  A    between atoms: C_16  and  O_17 
REMARK    7  A    between atoms: O_17  and  C_18 
ROOT
HETATM    1  C   UNL     1       5.880  25.943  56.163  1.00  0.00     0.257 C 
HETATM    2  N   UNL     1       5.931  27.309  56.003  1.00  0.00    -0.354 N 
HETATM    3  O   UNL     1       5.592  25.400  57.224  1.00  0.00    -0.267 OA
HETATM    4  H   UNL     1       6.299  27.619  55.105  1.00  0.00     0.162 HD
ENDROOT
BRANCH   2   5
HETATM    5  C   UNL     1       5.962  28.274  57.098  1.00  0.00     0.156 C 
BRANCH   5   6
HETATM    6  C   UNL     1       6.813  29.538  56.870  1.00  0.00     0.160 C 
BRANCH   6   7
HETATM    7  O   UNL     1       6.296  30.266  55.744  1.00  0.00    -0.392 OA
HETATM    8  H   UNL     1       5.807  29.610  55.200  1.00  0.00     0.210 HD
ENDBRANCH   6   7
BRANCH   6   9
HETATM    9  C   UNL     1       6.742  30.469  58.092  1.00  0.00     0.209 C 
BRANCH   9  10
HETATM   10  O   UNL     1       8.014  30.454  58.753  1.00  0.00    -0.349 OA
BRANCH  10  11
HETATM   11  C   UNL     1       8.076  30.986  60.010  1.00  0.00     0.069 A 
HETATM   12  C   UNL     1       7.105  31.955  60.278  1.00  0.00     0.038 A 
HETATM   13  C   UNL     1       7.051  32.586  61.524  1.00  0.00     0.026 A 
HETATM   14  C   UNL     1       7.978  32.245  62.504  1.00  0.00     0.034 A 
HETATM   15 CL   UNL     1       7.922  33.015  64.042  1.00  0.00    -0.084 Cl
HETATM   16  C   UNL     1       8.953  31.283  62.246  1.00  0.00     0.026 A 
HETATM   17  C   UNL     1       9.005  30.654  60.997  1.00  0.00     0.038 A 
ENDBRANCH  10  11
ENDBRANCH   9  10
ENDBRANCH   6   9
ENDBRANCH   5   6
ENDBRANCH   2   5
BRANCH   1  18
HETATM   18  C   UNL     1       6.198  25.168  54.982  1.00  0.00     0.098 A 
HETATM   19  C   UNL     1       6.940  24.004  54.880  1.00  0.00     0.167 A 
HETATM   20  N   UNL     1       6.891  23.628  53.532  1.00  0.00    -0.226 N 
HETATM   21  N   UNL     1       7.600  23.252  55.821  1.00  0.00    -0.240 NA
HETATM   22  C   UNL     1       7.495  22.452  53.103  1.00  0.00     0.128 A 
HETATM   23  N   UNL     1       6.197  24.517  52.784  1.00  0.00    -0.178 NA
HETATM   24  C   UNL     1       8.137  21.656  53.972  1.00  0.00    -0.027 A 
HETATM   25  C   UNL     1       8.801  20.364  53.657  1.00  0.00     0.051 C 
HETATM   26  C   UNL     1       8.152  22.157  55.381  1.00  0.00     0.127 A 
HETATM   27  C   UNL     1       5.772  25.426  53.663  1.00  0.00     0.160 A 
ENDBRANCH   1  18
TORSDOF 7
ENDMDL
MODEL 10
REMARK VINA RESULT:      -8.2      5.827      9.203
REMARK  7 active torsions:
REMARK  status: ('A' for Active; 'I' for Inactive)
REMARK    1  A    between atoms: C_10  and  C_11 
REMARK       I    between atoms: C_11  and  N_12 
REMARK    2  A    between atoms: N_12  and  C_13 
REMARK    3  A    between atoms: C_13  and  C_14 
REMARK    4  A    between atoms: C_14  and  O_15 
REMARK    5  A    between atoms: C_14  and  C_16 
REMARK    6  A    between atoms: C_16  and  O_17 
REMARK    7  A    between atoms: O_17  and  C_18 
ROOT
HETATM    1  C   UNL     1       7.032  26.394  55.571  1.00  0.00     0.257 C 
HETATM    2  N   UNL     1       5.709  26.398  55.193  1.00  0.00    -0.354 N 
HETATM    3  O   UNL     1       7.697  27.416  55.705  1.00  0.00    -0.267 OA
HETATM    4  H   UNL     1       5.317  25.476  55.006  1.00  0.00     0.162 HD
ENDROOT
BRANCH   2   5
HETATM    5  C   UNL     1       5.013  27.542  54.612  1.00  0.00     0.156 C 
BRANCH   5   6
HETATM    6  C   UNL     1       4.504  27.369  53.168  1.00  0.00     0.160 C 
BRANCH   6   7
HETATM    7  O   UNL     1       3.091  27.626  53.125  1.00  0.00    -0.392 OA
HETATM    8  H   UNL     1       2.978  28.561  53.405  1.00  0.00     0.210 HD
ENDBRANCH   6   7
BRANCH   6   9
HETATM    9  C   UNL     1       5.184  28.379  52.228  1.00  0.00     0.209 C 
BRANCH   9  10
HETATM   10  O   UNL     1       5.537  27.705  51.012  1.00  0.00    -0.349 OA
BRANCH  10  11
HETATM   11  C   UNL     1       4.567  27.586  50.056  1.00  0.00     0.069 A 
HETATM   12  C   UNL     1       4.513  26.333  49.438  1.00  0.00     0.038 A 
HETATM   13  C   UNL     1       3.571  26.070  48.440  1.00  0.00     0.026 A 
HETATM   14  C   UNL     1       2.682  27.070  48.057  1.00  0.00     0.034 A 
HETATM   15 CL   UNL     1       1.518  26.758  46.828  1.00  0.00    -0.084 Cl
HETATM   16  C   UNL     1       2.730  28.324  48.663  1.00  0.00     0.026 A 
HETATM   17  C   UNL     1       3.676  28.584  49.662  1.00  0.00     0.038 A 
ENDBRANCH  10  11
ENDBRANCH   9  10
ENDBRANCH   6   9
ENDBRANCH   5   6
ENDBRANCH   2   5
BRANCH   1  18
HETATM   18  C   UNL     1       7.608  25.085  55.801  1.00  0.00     0.098 A 
HETATM   19  C   UNL     1       7.692  24.008  54.936  1.00  0.00     0.167 A 
HETATM   20  N   UNL     1       8.395  23.011  55.623  1.00  0.00    -0.226 N 
HETATM   21  N   UNL     1       7.258  23.833  53.645  1.00  0.00    -0.240 NA
HETATM   22  C   UNL     1       8.705  21.807  55.002  1.00  0.00     0.128 A 
HETATM   23  N   UNL     1       8.715  23.393  56.881  1.00  0.00    -0.178 NA
HETATM   24  C   UNL     1       8.334  21.578  53.733  1.00  0.00    -0.027 A 
HETATM   25  C   UNL     1       8.620  20.353  52.939  1.00  0.00     0.051 C 
HETATM   26  C   UNL     1       7.569  22.693  53.096  1.00  0.00     0.127 A 
HETATM   27  C   UNL     1       8.254  24.641  56.973  1.00  0.00     0.160 A 
ENDBRANCH   1  18
TORSDOF 7
ENDMDL
