MODEL 1
REMARK VINA RESULT:     -10.2      0.000      0.000
REMARK  7 active torsions:
REMARK  status: ('A' for Active; 'I' for Inactive)
REMARK    1  A    between atoms: C_4  and  N_5 
REMARK    2  A    between atoms: C_6  and  S_7 
REMARK    3  A    between atoms: S_7  and  C_8 
REMARK    4  A    between atoms: C_8  and  C_9 
REMARK       I    between atoms: C_9  and  N_10 
REMARK    5  A    between atoms: N_10  and  C_11 
REMARK    6  A    between atoms: C_14  and  C_15 
REMARK       I    between atoms: C_15  and  N_16 
REMARK    7  A    between atoms: C_23  and  C_24 
ROOT
HETATM    1  N   UNL     1       6.560  28.359  56.401  1.00  0.00    -0.271 N 
HETATM    2  C   UNL     1       5.357  28.937  56.019  1.00  0.00     0.197 A 
HETATM    3  N   UNL     1       4.414  28.028  55.956  1.00  0.00    -0.122 NA
HETATM    4  N   UNL     1       4.971  26.826  56.284  1.00  0.00    -0.128 NA
HETATM    5  C   UNL     1       6.265  27.000  56.482  1.00  0.00     0.171 A 
ENDROOT
BRANCH   2   6
HETATM    6  S   UNL     1       5.061  30.640  55.846  1.00  0.00    -0.080 SA
BRANCH   6   7
HETATM    7  C   UNL     1       3.536  30.614  54.853  1.00  0.00     0.185 C 
BRANCH   7   8
HETATM    8  C   UNL     1       3.857  30.435  53.375  1.00  0.00     0.231 C 
HETATM    9  N   UNL     1       3.678  29.135  52.925  1.00  0.00    -0.327 N 
HETATM   10  H   UNL     1       3.439  28.453  53.636  1.00  0.00     0.169 HD
HETATM   11  O   UNL     1       4.179  31.398  52.684  1.00  0.00    -0.272 OA
BRANCH   9  12
HETATM   12  C   UNL     1       3.876  28.636  51.622  1.00  0.00     0.034 A 
HETATM   13  C   UNL     1       3.064  28.951  50.532  1.00  0.00     0.030 A 
HETATM   14  C   UNL     1       3.335  28.422  49.261  1.00  0.00     0.019 A 
HETATM   15  C   UNL     1       4.421  27.563  49.070  1.00  0.00     0.032 A 
HETATM   16  C   UNL     1       5.242  27.252  50.160  1.00  0.00     0.019 A 
HETATM   17  C   UNL     1       4.968  27.782  51.427  1.00  0.00     0.030 A 
BRANCH  15  18
HETATM   18  C   UNL     1       4.761  26.980  47.745  1.00  0.00     0.249 C 
HETATM   19  N   UNL     1       5.928  27.375  47.153  1.00  0.00    -0.366 N 
HETATM   20  H   UNL     1       6.470  28.167  47.467  1.00  0.00     0.159 HD
HETATM   21  H   UNL     1       6.094  27.034  46.214  1.00  0.00     0.159 HD
HETATM   22  O   UNL     1       4.011  26.193  47.180  1.00  0.00    -0.268 OA
ENDBRANCH  15  18
ENDBRANCH   9  12
ENDBRANCH   7   8
ENDBRANCH   6   7
ENDBRANCH   2   6
BRANCH   1  23
HETATM   23  C   UNL     1       7.769  29.012  56.764  1.00  0.00     0.044 A 
HETATM   24  C   UNL     1       7.931  29.555  58.045  1.00  0.00     0.037 A 
HETATM   25  C   UNL     1       9.132  30.187  58.398  1.00  0.00    -0.060 A 
HETATM   26  C   UNL     1       9.329  30.744  59.777  1.00  0.00     0.048 C 
HETATM   27  C   UNL     1      10.174  30.250  57.463  1.00  0.00     0.007 A 
HETATM   28  C   UNL     1      10.014  29.708  56.189  1.00  0.00     0.003 A 
HETATM   29  C   UNL     1       8.816  29.090  55.836  1.00  0.00     0.030 A 
ENDBRANCH   1  23
BRANCH   5  30
HETATM   30  C   UNL     1       7.197  25.836  56.649  1.00  0.00     0.040 A 
HETATM   31  C   UNL     1       7.530  24.867  55.651  1.00  0.00     0.006 A 
HETATM   32  C   UNL     1       8.442  23.979  56.227  1.00  0.00     0.043 A 
HETATM   33  C   UNL     1       7.131  24.639  54.316  1.00  0.00     0.015 A 
HETATM   34  C   UNL     1       8.971  22.880  55.539  1.00  0.00     0.030 A 
HETATM   35  N   UNL     1       8.672  24.411  57.512  1.00  0.00    -0.364 N 
HETATM   36  C   UNL     1       8.556  22.679  54.220  1.00  0.00     0.002 A 
HETATM   37  C   UNL     1       7.650  23.544  53.615  1.00  0.00     0.001 A 
HETATM   38  H   UNL     1       9.308  23.965  58.159  1.00  0.00     0.165 HD
HETATM   39  C   UNL     1       7.934  25.535  57.775  1.00  0.00     0.104 A 
ENDBRANCH   5  30
TORSDOF 7
ENDMDL
MODEL 2
REMARK VINA RESULT:     -10.2      4.035      8.007
REMARK  7 active torsions:
REMARK  status: ('A' for Active; 'I' for Inactive)
REMARK    1  A    between atoms: C_4  and  N_5 
REMARK    2  A    between atoms: C_6  and  S_7 
REMARK    3  A    between atoms: S_7  and  C_8 
REMARK    4  A    between atoms: C_8  and  C_9 
REMARK       I    between atoms: C_9  and  N_10 
REMARK    5  A    between atoms: N_10  and  C_11 
REMARK    6  A    between atoms: C_14  and  C_15 
REMARK       I    between atoms: C_15  and  N_16 
REMARK    7  A    between atoms: C_23  and  C_24 
ROOT
HETATM    1  N   UNL     1       6.628  28.521  56.452  1.00  0.00    -0.271 N 
HETATM    2  C   UNL     1       5.452  29.147  56.062  1.00  0.00     0.197 A 
HETATM    3  N   UNL     1       4.475  28.275  55.987  1.00  0.00    -0.122 NA
HETATM    4  N   UNL     1       4.983  27.050  56.313  1.00  0.00    -0.128 NA
HETATM    5  C   UNL     1       6.281  27.173  56.523  1.00  0.00     0.171 A 
ENDROOT
BRANCH   2   6
HETATM    6  S   UNL     1       5.222  30.860  55.896  1.00  0.00    -0.080 SA
BRANCH   6   7
HETATM    7  C   UNL     1       4.201  31.204  57.364  1.00  0.00     0.185 C 
BRANCH   7   8
HETATM    8  C   UNL     1       4.956  32.082  58.352  1.00  0.00     0.231 C 
HETATM    9  N   UNL     1       4.690  31.774  59.678  1.00  0.00    -0.327 N 
HETATM   10  H   UNL     1       3.977  31.071  59.832  1.00  0.00     0.169 HD
HETATM   11  O   UNL     1       5.757  32.924  57.955  1.00  0.00    -0.272 OA
BRANCH   9  12
HETATM   12  C   UNL     1       5.225  32.383  60.831  1.00  0.00     0.034 A 
HETATM   13  C   UNL     1       6.564  32.292  61.215  1.00  0.00     0.030 A 
HETATM   14  C   UNL     1       7.023  32.939  62.372  1.00  0.00     0.019 A 
HETATM   15  C   UNL     1       6.140  33.678  63.165  1.00  0.00     0.032 A 
HETATM   16  C   UNL     1       4.799  33.778  62.778  1.00  0.00     0.019 A 
HETATM   17  C   UNL     1       4.345  33.131  61.623  1.00  0.00     0.030 A 
BRANCH  15  18
HETATM   18  C   UNL     1       6.572  34.391  64.397  1.00  0.00     0.249 C 
HETATM   19  N   UNL     1       6.108  35.661  64.596  1.00  0.00    -0.366 N 
HETATM   20  H   UNL     1       5.653  36.205  63.879  1.00  0.00     0.159 HD
HETATM   21  H   UNL     1       6.486  36.157  65.394  1.00  0.00     0.159 HD
HETATM   22  O   UNL     1       7.342  33.876  65.199  1.00  0.00    -0.268 OA
ENDBRANCH  15  18
ENDBRANCH   9  12
ENDBRANCH   7   8
ENDBRANCH   6   7
ENDBRANCH   2   6
BRANCH   1  23
HETATM   23  C   UNL     1       7.858  29.126  56.828  1.00  0.00     0.044 A 
HETATM   24  C   UNL     1       8.024  29.672  58.107  1.00  0.00     0.037 A 
HETATM   25  C   UNL     1       9.245  30.257  58.473  1.00  0.00    -0.060 A 
HETATM   26  C   UNL     1       9.445  30.815  59.851  1.00  0.00     0.048 C 
HETATM   27  C   UNL     1      10.302  30.267  57.554  1.00  0.00     0.007 A 
HETATM   28  C   UNL     1      10.138  29.722  56.281  1.00  0.00     0.003 A 
HETATM   29  C   UNL     1       8.921  29.152  55.915  1.00  0.00     0.030 A 
ENDBRANCH   1  23
BRANCH   5  30
HETATM   30  C   UNL     1       7.166  25.975  56.693  1.00  0.00     0.040 A 
HETATM   31  C   UNL     1       7.518  25.031  55.676  1.00  0.00     0.006 A 
HETATM   32  C   UNL     1       8.372  24.093  56.262  1.00  0.00     0.043 A 
HETATM   33  C   UNL     1       7.179  24.863  54.316  1.00  0.00     0.015 A 
HETATM   34  C   UNL     1       8.900  23.003  55.561  1.00  0.00     0.030 A 
HETATM   35  N   UNL     1       8.552  24.471  57.572  1.00  0.00    -0.364 N 
HETATM   36  C   UNL     1       8.545  22.862  54.217  1.00  0.00     0.002 A 
HETATM   37  C   UNL     1       7.697  23.778  53.601  1.00  0.00     0.001 A 
HETATM   38  H   UNL     1       9.141  23.983  58.232  1.00  0.00     0.165 HD
HETATM   39  C   UNL     1       7.838  25.610  57.841  1.00  0.00     0.104 A 
ENDBRANCH   5  30
TORSDOF 7
ENDMDL
MODEL 3
REMARK VINA RESULT:     -10.2      2.793      3.906
REMARK  7 active torsions:
REMARK  status: ('A' for Active; 'I' for Inactive)
REMARK    1  A    between atoms: C_4  and  N_5 
REMARK    2  A    between atoms: C_6  and  S_7 
REMARK    3  A    between atoms: S_7  and  C_8 
REMARK    4  A    between atoms: C_8  and  C_9 
REMARK       I    between atoms: C_9  and  N_10 
REMARK    5  A    between atoms: N_10  and  C_11 
REMARK    6  A    between atoms: C_14  and  C_15 
REMARK       I    between atoms: C_15  and  N_16 
REMARK    7  A    between atoms: C_23  and  C_24 
ROOT
HETATM    1  N   UNL     1       5.863  26.259  53.992  1.00  0.00    -0.271 N 
HETATM    2  C   UNL     1       5.158  26.578  52.839  1.00  0.00     0.197 A 
HETATM    3  N   UNL     1       4.836  25.487  52.185  1.00  0.00    -0.122 NA
HETATM    4  N   UNL     1       5.329  24.422  52.882  1.00  0.00    -0.128 NA
HETATM    5  C   UNL     1       6.005  24.875  53.924  1.00  0.00     0.171 A 
ENDROOT
BRANCH   2   6
HETATM    6  S   UNL     1       4.587  28.160  52.405  1.00  0.00    -0.080 SA
BRANCH   6   7
HETATM    7  C   UNL     1       5.669  28.526  50.986  1.00  0.00     0.185 C 
BRANCH   7   8
HETATM    8  C   UNL     1       4.887  28.460  49.681  1.00  0.00     0.231 C 
HETATM    9  N   UNL     1       3.567  28.070  49.848  1.00  0.00    -0.327 N 
HETATM   10  H   UNL     1       3.303  27.801  50.790  1.00  0.00     0.169 HD
HETATM   11  O   UNL     1       5.411  28.791  48.621  1.00  0.00    -0.272 OA
BRANCH   9  12
HETATM   12  C   UNL     1       2.577  27.918  48.857  1.00  0.00     0.034 A 
HETATM   13  C   UNL     1       2.364  26.741  48.139  1.00  0.00     0.030 A 
HETATM   14  C   UNL     1       1.348  26.664  47.175  1.00  0.00     0.019 A 
HETATM   15  C   UNL     1       0.537  27.773  46.912  1.00  0.00     0.032 A 
HETATM   16  C   UNL     1       0.744  28.952  47.637  1.00  0.00     0.019 A 
HETATM   17  C   UNL     1       1.759  29.024  48.598  1.00  0.00     0.030 A 
BRANCH  15  18
HETATM   18  C   UNL     1      -0.560  27.747  45.908  1.00  0.00     0.249 C 
HETATM   19  N   UNL     1      -0.257  27.329  44.642  1.00  0.00    -0.366 N 
HETATM   20  H   UNL     1       0.687  27.221  44.304  1.00  0.00     0.159 HD
HETATM   21  H   UNL     1      -0.998  27.405  43.956  1.00  0.00     0.159 HD
HETATM   22  O   UNL     1      -1.694  28.114  46.189  1.00  0.00    -0.268 OA
ENDBRANCH  15  18
ENDBRANCH   9  12
ENDBRANCH   7   8
ENDBRANCH   6   7
ENDBRANCH   2   6
BRANCH   1  23
HETATM   23  C   UNL     1       6.229  27.121  55.060  1.00  0.00     0.044 A 
HETATM   24  C   UNL     1       7.484  27.743  55.080  1.00  0.00     0.037 A 
HETATM   25  C   UNL     1       7.832  28.601  56.133  1.00  0.00    -0.060 A 
HETATM   26  C   UNL     1       9.160  29.298  56.147  1.00  0.00     0.048 C 
HETATM   27  C   UNL     1       6.903  28.846  57.152  1.00  0.00     0.007 A 
HETATM   28  C   UNL     1       5.653  28.228  57.133  1.00  0.00     0.003 A 
HETATM   29  C   UNL     1       5.313  27.367  56.092  1.00  0.00     0.030 A 
ENDBRANCH   1  23
BRANCH   5  30
HETATM   30  C   UNL     1       6.846  23.965  54.769  1.00  0.00     0.040 A 
HETATM   31  C   UNL     1       7.488  22.761  54.337  1.00  0.00     0.006 A 
HETATM   32  C   UNL     1       8.178  22.246  55.437  1.00  0.00     0.043 A 
HETATM   33  C   UNL     1       7.536  22.041  53.125  1.00  0.00     0.015 A 
HETATM   34  C   UNL     1       8.909  21.053  55.386  1.00  0.00     0.030 A 
HETATM   35  N   UNL     1       7.985  23.118  56.483  1.00  0.00    -0.364 N 
HETATM   36  C   UNL     1       8.937  20.361  54.172  1.00  0.00     0.002 A 
HETATM   37  C   UNL     1       8.261  20.846  53.056  1.00  0.00     0.001 A 
HETATM   38  H   UNL     1       8.387  23.005  57.403  1.00  0.00     0.165 HD
HETATM   39  C   UNL     1       7.191  24.164  56.089  1.00  0.00     0.104 A 
ENDBRANCH   5  30
TORSDOF 7
ENDMDL
MODEL 4
REMARK VINA RESULT:     -10.0      4.149      8.855
REMARK  7 active torsions:
REMARK  status: ('A' for Active; 'I' for Inactive)
REMARK    1  A    between atoms: C_4  and  N_5 
REMARK    2  A    between atoms: C_6  and  S_7 
REMARK    3  A    between atoms: S_7  and  C_8 
REMARK    4  A    between atoms: C_8  and  C_9 
REMARK       I    between atoms: C_9  and  N_10 
REMARK    5  A    between atoms: N_10  and  C_11 
REMARK    6  A    between atoms: C_14  and  C_15 
REMARK       I    between atoms: C_15  and  N_16 
REMARK    7  A    between atoms: C_23  and  C_24 
ROOT
HETATM    1  N   UNL     1       7.092  26.797  56.113  1.00  0.00    -0.271 N 
HETATM    2  C   UNL     1       7.287  27.421  57.338  1.00  0.00     0.197 A 
HETATM    3  N   UNL     1       7.981  26.648  58.139  1.00  0.00    -0.122 NA
HETATM    4  N   UNL     1       8.253  25.489  57.468  1.00  0.00    -0.128 NA
HETATM    5  C   UNL     1       7.666  25.539  56.285  1.00  0.00     0.171 A 
ENDROOT
BRANCH   2   6
HETATM    6  S   UNL     1       6.870  29.064  57.715  1.00  0.00    -0.080 SA
BRANCH   6   7
HETATM    7  C   UNL     1       8.528  29.795  57.899  1.00  0.00     0.185 C 
BRANCH   7   8
HETATM    8  C   UNL     1       8.500  30.956  58.883  1.00  0.00     0.231 C 
HETATM    9  N   UNL     1       7.651  30.746  59.959  1.00  0.00    -0.327 N 
HETATM   10  H   UNL     1       7.097  29.898  59.924  1.00  0.00     0.169 HD
HETATM   11  O   UNL     1       9.228  31.932  58.720  1.00  0.00    -0.272 OA
BRANCH   9  12
HETATM   12  C   UNL     1       7.400  31.609  61.045  1.00  0.00     0.034 A 
HETATM   13  C   UNL     1       6.417  32.599  61.046  1.00  0.00     0.030 A 
HETATM   14  C   UNL     1       6.219  33.412  62.173  1.00  0.00     0.019 A 
HETATM   15  C   UNL     1       7.014  33.246  63.311  1.00  0.00     0.032 A 
HETATM   16  C   UNL     1       7.996  32.248  63.316  1.00  0.00     0.019 A 
HETATM   17  C   UNL     1       8.189  31.440  62.189  1.00  0.00     0.030 A 
BRANCH  15  18
HETATM   18  C   UNL     1       6.845  34.071  64.536  1.00  0.00     0.249 C 
HETATM   19  N   UNL     1       6.172  35.255  64.421  1.00  0.00    -0.366 N 
HETATM   20  H   UNL     1       5.953  35.686  63.535  1.00  0.00     0.159 HD
HETATM   21  H   UNL     1       6.147  35.840  65.247  1.00  0.00     0.159 HD
HETATM   22  O   UNL     1       7.315  33.724  65.613  1.00  0.00    -0.268 OA
ENDBRANCH  15  18
ENDBRANCH   9  12
ENDBRANCH   7   8
ENDBRANCH   6   7
ENDBRANCH   2   6
BRANCH   1  23
HETATM   23  C   UNL     1       6.562  27.357  54.920  1.00  0.00     0.044 A 
HETATM   24  C   UNL     1       5.194  27.634  54.807  1.00  0.00     0.037 A 
HETATM   25  C   UNL     1       4.681  28.197  53.629  1.00  0.00    -0.060 A 
HETATM   26  C   UNL     1       3.223  28.528  53.509  1.00  0.00     0.048 C 
HETATM   27  C   UNL     1       5.556  28.499  52.578  1.00  0.00     0.007 A 
HETATM   28  C   UNL     1       6.918  28.225  52.690  1.00  0.00     0.003 A 
HETATM   29  C   UNL     1       7.424  27.655  53.856  1.00  0.00     0.030 A 
ENDBRANCH   1  23
BRANCH   5  30
HETATM   30  C   UNL     1       7.597  24.335  55.393  1.00  0.00     0.040 A 
HETATM   31  C   UNL     1       7.883  22.984  55.769  1.00  0.00     0.006 A 
HETATM   32  C   UNL     1       7.674  22.189  54.640  1.00  0.00     0.043 A 
HETATM   33  C   UNL     1       8.322  22.355  56.954  1.00  0.00     0.015 A 
HETATM   34  C   UNL     1       7.880  20.805  54.636  1.00  0.00     0.030 A 
HETATM   35  N   UNL     1       7.250  23.022  53.630  1.00  0.00    -0.364 N 
HETATM   36  C   UNL     1       8.317  20.210  55.822  1.00  0.00     0.002 A 
HETATM   37  C   UNL     1       8.535  20.972  56.967  1.00  0.00     0.001 A 
HETATM   38  H   UNL     1       7.006  22.713  52.700  1.00  0.00     0.165 HD
HETATM   39  C   UNL     1       7.191  24.317  54.075  1.00  0.00     0.104 A 
ENDBRANCH   5  30
TORSDOF 7
ENDMDL
MODEL 5
REMARK VINA RESULT:      -9.8      3.202      6.754
REMARK  7 active torsions:
REMARK  status: ('A' for Active; 'I' for Inactive)
REMARK    1  A    between atoms: C_4  and  N_5 
REMARK    2  A    between atoms: C_6  and  S_7 
REMARK    3  A    between atoms: S_7  and  C_8 
REMARK    4  A    between atoms: C_8  and  C_9 
REMARK       I    between atoms: C_9  and  N_10 
REMARK    5  A    between atoms: N_10  and  C_11 
REMARK    6  A    between atoms: C_14  and  C_15 
REMARK       I    between atoms: C_15  and  N_16 
REMARK    7  A    between atoms: C_23  and  C_24 
ROOT
HETATM    1  N   UNL     1       5.461  30.031  56.338  1.00  0.00    -0.271 N 
HETATM    2  C   UNL     1       4.879  30.360  55.122  1.00  0.00     0.197 A 
HETATM    3  N   UNL     1       4.696  31.657  55.039  1.00  0.00    -0.122 NA
HETATM    4  N   UNL     1       5.142  32.216  56.202  1.00  0.00    -0.128 NA
HETATM    5  C   UNL     1       5.534  31.249  57.012  1.00  0.00     0.171 A 
ENDROOT
BRANCH   2   6
HETATM    6  S   UNL     1       4.612  29.268  53.798  1.00  0.00    -0.080 SA
BRANCH   6   7
HETATM    7  C   UNL     1       6.272  28.539  53.628  1.00  0.00     0.185 C 
BRANCH   7   8
HETATM    8  C   UNL     1       6.193  27.019  53.601  1.00  0.00     0.231 C 
HETATM    9  N   UNL     1       7.411  26.399  53.840  1.00  0.00    -0.327 N 
HETATM   10  H   UNL     1       8.210  27.017  53.920  1.00  0.00     0.169 HD
HETATM   11  O   UNL     1       5.116  26.451  53.441  1.00  0.00    -0.272 OA
BRANCH   9  12
HETATM   12  C   UNL     1       7.683  25.017  53.893  1.00  0.00     0.034 A 
HETATM   13  C   UNL     1       7.930  24.313  55.072  1.00  0.00     0.030 A 
HETATM   14  C   UNL     1       8.181  22.933  55.044  1.00  0.00     0.019 A 
HETATM   15  C   UNL     1       8.194  22.243  53.828  1.00  0.00     0.032 A 
HETATM   16  C   UNL     1       7.937  22.944  52.644  1.00  0.00     0.019 A 
HETATM   17  C   UNL     1       7.688  24.322  52.678  1.00  0.00     0.030 A 
BRANCH  15  18
HETATM   18  C   UNL     1       8.444  20.780  53.738  1.00  0.00     0.249 C 
HETATM   19  N   UNL     1       8.218  20.165  52.538  1.00  0.00    -0.366 N 
HETATM   20  H   UNL     1       7.718  20.600  51.777  1.00  0.00     0.159 HD
HETATM   21  H   UNL     1       8.310  19.157  52.526  1.00  0.00     0.159 HD
HETATM   22  O   UNL     1       8.814  20.132  54.710  1.00  0.00    -0.268 OA
ENDBRANCH  15  18
ENDBRANCH   9  12
ENDBRANCH   7   8
ENDBRANCH   6   7
ENDBRANCH   2   6
BRANCH   1  23
HETATM   23  C   UNL     1       5.989  28.777  56.745  1.00  0.00     0.044 A 
HETATM   24  C   UNL     1       5.161  27.652  56.849  1.00  0.00     0.037 A 
HETATM   25  C   UNL     1       5.694  26.415  57.241  1.00  0.00    -0.060 A 
HETATM   26  C   UNL     1       4.823  25.197  57.323  1.00  0.00     0.048 C 
HETATM   27  C   UNL     1       7.066  26.314  57.505  1.00  0.00     0.007 A 
HETATM   28  C   UNL     1       7.891  27.432  57.401  1.00  0.00     0.003 A 
HETATM   29  C   UNL     1       7.358  28.663  57.022  1.00  0.00     0.030 A 
ENDBRANCH   1  23
BRANCH   5  30
HETATM   30  C   UNL     1       5.879  31.519  58.446  1.00  0.00     0.040 A 
HETATM   31  C   UNL     1       7.196  31.570  59.006  1.00  0.00     0.006 A 
HETATM   32  C   UNL     1       7.054  31.867  60.364  1.00  0.00     0.043 A 
HETATM   33  C   UNL     1       8.498  31.370  58.500  1.00  0.00     0.015 A 
HETATM   34  C   UNL     1       8.144  31.975  61.236  1.00  0.00     0.030 A 
HETATM   35  N   UNL     1       5.710  32.019  60.609  1.00  0.00    -0.364 N 
HETATM   36  C   UNL     1       9.422  31.770  60.707  1.00  0.00     0.002 A 
HETATM   37  C   UNL     1       9.599  31.472  59.359  1.00  0.00     0.001 A 
HETATM   38  H   UNL     1       5.316  32.258  61.508  1.00  0.00     0.165 HD
HETATM   39  C   UNL     1       4.992  31.821  59.458  1.00  0.00     0.104 A 
ENDBRANCH   5  30
TORSDOF 7
ENDMDL
MODEL 6
REMARK VINA RESULT:      -9.8      3.407      7.107
REMARK  7 active torsions:
REMARK  status: ('A' for Active; 'I' for Inactive)
REMARK    1  A    between atoms: C_4  and  N_5 
REMARK    2  A    between atoms: C_6  and  S_7 
REMARK    3  A    between atoms: S_7  and  C_8 
REMARK    4  A    between atoms: C_8  and  C_9 
REMARK       I    between atoms: C_9  and  N_10 
REMARK    5  A    between atoms: N_10  and  C_11 
REMARK    6  A    between atoms: C_14  and  C_15 
REMARK       I    between atoms: C_15  and  N_16 
REMARK    7  A    between atoms: C_23  and  C_24 
ROOT
HETATM    1  N   UNL     1       6.367  29.841  57.503  1.00  0.00    -0.271 N 
HETATM    2  C   UNL     1       6.097  28.636  56.868  1.00  0.00     0.197 A 
HETATM    3  N   UNL     1       6.973  27.727  57.222  1.00  0.00    -0.122 NA
HETATM    4  N   UNL     1       7.851  28.309  58.090  1.00  0.00    -0.128 NA
HETATM    5  C   UNL     1       7.541  29.588  58.210  1.00  0.00     0.171 A 
ENDROOT
BRANCH   2   6
HETATM    6  S   UNL     1       4.692  28.291  55.905  1.00  0.00    -0.080 SA
BRANCH   6   7
HETATM    7  C   UNL     1       5.468  27.959  54.292  1.00  0.00     0.185 C 
BRANCH   7   8
HETATM    8  C   UNL     1       5.580  26.461  54.045  1.00  0.00     0.231 C 
HETATM    9  N   UNL     1       6.764  25.912  54.513  1.00  0.00    -0.327 N 
HETATM   10  H   UNL     1       7.439  26.572  54.883  1.00  0.00     0.169 HD
HETATM   11  O   UNL     1       4.652  25.841  53.533  1.00  0.00    -0.272 OA
BRANCH   9  12
HETATM   12  C   UNL     1       7.177  24.565  54.454  1.00  0.00     0.034 A 
HETATM   13  C   UNL     1       7.137  23.687  55.538  1.00  0.00     0.030 A 
HETATM   14  C   UNL     1       7.553  22.355  55.396  1.00  0.00     0.019 A 
HETATM   15  C   UNL     1       8.024  21.890  54.164  1.00  0.00     0.032 A 
HETATM   16  C   UNL     1       8.057  22.766  53.074  1.00  0.00     0.019 A 
HETATM   17  C   UNL     1       7.640  24.095  53.220  1.00  0.00     0.030 A 
BRANCH  15  18
HETATM   18  C   UNL     1       8.471  20.487  53.953  1.00  0.00     0.249 C 
HETATM   19  N   UNL     1       8.932  19.793  55.036  1.00  0.00    -0.366 N 
HETATM   20  H   UNL     1       9.163  20.228  55.917  1.00  0.00     0.159 HD
HETATM   21  H   UNL     1       9.313  18.873  54.852  1.00  0.00     0.159 HD
HETATM   22  O   UNL     1       8.457  19.971  52.842  1.00  0.00    -0.268 OA
ENDBRANCH  15  18
ENDBRANCH   9  12
ENDBRANCH   7   8
ENDBRANCH   6   7
ENDBRANCH   2   6
BRANCH   1  23
HETATM   23  C   UNL     1       5.562  31.011  57.540  1.00  0.00     0.044 A 
HETATM   24  C   UNL     1       4.819  31.332  58.682  1.00  0.00     0.037 A 
HETATM   25  C   UNL     1       4.036  32.495  58.713  1.00  0.00    -0.060 A 
HETATM   26  C   UNL     1       3.262  32.866  59.944  1.00  0.00     0.048 C 
HETATM   27  C   UNL     1       4.025  33.342  57.598  1.00  0.00     0.007 A 
HETATM   28  C   UNL     1       4.765  33.025  56.460  1.00  0.00     0.003 A 
HETATM   29  C   UNL     1       5.534  31.863  56.427  1.00  0.00     0.030 A 
ENDBRANCH   1  23
BRANCH   5  30
HETATM   30  C   UNL     1       8.442  30.550  58.926  1.00  0.00     0.040 A 
HETATM   31  C   UNL     1       8.253  31.061  60.249  1.00  0.00     0.006 A 
HETATM   32  C   UNL     1       9.333  31.904  60.522  1.00  0.00     0.043 A 
HETATM   33  C   UNL     1       7.260  30.910  61.240  1.00  0.00     0.015 A 
HETATM   34  C   UNL     1       9.468  32.601  61.729  1.00  0.00     0.030 A 
HETATM   35  N   UNL     1      10.155  31.881  59.420  1.00  0.00    -0.364 N 
HETATM   36  C   UNL     1       8.467  32.434  62.690  1.00  0.00     0.002 A 
HETATM   37  C   UNL     1       7.378  31.601  62.452  1.00  0.00     0.001 A 
HETATM   38  H   UNL     1      11.026  32.388  59.347  1.00  0.00     0.165 HD
HETATM   39  C   UNL     1       9.633  31.060  58.455  1.00  0.00     0.104 A 
ENDBRANCH   5  30
TORSDOF 7
ENDMDL
MODEL 7
REMARK VINA RESULT:      -9.7      3.922      8.791
REMARK  7 active torsions:
REMARK  status: ('A' for Active; 'I' for Inactive)
REMARK    1  A    between atoms: C_4  and  N_5 
REMARK    2  A    between atoms: C_6  and  S_7 
REMARK    3  A    between atoms: S_7  and  C_8 
REMARK    4  A    between atoms: C_8  and  C_9 
REMARK       I    between atoms: C_9  and  N_10 
REMARK    5  A    between atoms: N_10  and  C_11 
REMARK    6  A    between atoms: C_14  and  C_15 
REMARK       I    between atoms: C_15  and  N_16 
REMARK    7  A    between atoms: C_23  and  C_24 
ROOT
HETATM    1  N   UNL     1       6.973  26.247  56.327  1.00  0.00    -0.271 N 
HETATM    2  C   UNL     1       7.116  27.293  57.229  1.00  0.00     0.197 A 
HETATM    3  N   UNL     1       8.033  27.004  58.122  1.00  0.00    -0.122 NA
HETATM    4  N   UNL     1       8.511  25.756  57.839  1.00  0.00    -0.128 NA
HETATM    5  C   UNL     1       7.836  25.267  56.814  1.00  0.00     0.171 A 
ENDROOT
BRANCH   2   6
HETATM    6  S   UNL     1       6.359  28.851  57.102  1.00  0.00    -0.080 SA
BRANCH   6   7
HETATM    7  C   UNL     1       7.716  29.927  57.666  1.00  0.00     0.185 C 
BRANCH   7   8
HETATM    8  C   UNL     1       7.186  31.042  58.556  1.00  0.00     0.231 C 
HETATM    9  N   UNL     1       7.591  30.934  59.878  1.00  0.00    -0.327 N 
HETATM   10  H   UNL     1       8.113  30.096  60.110  1.00  0.00     0.169 HD
HETATM   11  O   UNL     1       6.520  31.958  58.081  1.00  0.00    -0.272 OA
BRANCH   9  12
HETATM   12  C   UNL     1       7.288  31.796  60.950  1.00  0.00     0.034 A 
HETATM   13  C   UNL     1       6.243  32.723  60.937  1.00  0.00     0.030 A 
HETATM   14  C   UNL     1       5.996  33.539  62.051  1.00  0.00     0.019 A 
HETATM   15  C   UNL     1       6.801  33.441  63.190  1.00  0.00     0.032 A 
HETATM   16  C   UNL     1       7.844  32.508  63.209  1.00  0.00     0.019 A 
HETATM   17  C   UNL     1       8.086  31.695  62.095  1.00  0.00     0.030 A 
BRANCH  15  18
HETATM   18  C   UNL     1       6.581  34.274  64.403  1.00  0.00     0.249 C 
HETATM   19  N   UNL     1       7.498  34.188  65.413  1.00  0.00    -0.366 N 
HETATM   20  H   UNL     1       8.200  33.465  65.465  1.00  0.00     0.159 HD
HETATM   21  H   UNL     1       7.281  34.695  66.262  1.00  0.00     0.159 HD
HETATM   22  O   UNL     1       5.597  34.995  64.515  1.00  0.00    -0.268 OA
ENDBRANCH  15  18
ENDBRANCH   9  12
ENDBRANCH   7   8
ENDBRANCH   6   7
ENDBRANCH   2   6
BRANCH   1  23
HETATM   23  C   UNL     1       6.232  26.232  55.115  1.00  0.00     0.044 A 
HETATM   24  C   UNL     1       6.463  27.194  54.124  1.00  0.00     0.037 A 
HETATM   25  C   UNL     1       5.734  27.164  52.926  1.00  0.00    -0.060 A 
HETATM   26  C   UNL     1       5.996  28.170  51.844  1.00  0.00     0.048 C 
HETATM   27  C   UNL     1       4.791  26.149  52.724  1.00  0.00     0.007 A 
HETATM   28  C   UNL     1       4.561  25.189  53.709  1.00  0.00     0.003 A 
HETATM   29  C   UNL     1       5.278  25.227  54.904  1.00  0.00     0.030 A 
ENDBRANCH   1  23
BRANCH   5  30
HETATM   30  C   UNL     1       7.977  23.835  56.394  1.00  0.00     0.040 A 
HETATM   31  C   UNL     1       8.068  23.351  55.050  1.00  0.00     0.006 A 
HETATM   32  C   UNL     1       8.208  21.963  55.120  1.00  0.00     0.043 A 
HETATM   33  C   UNL     1       8.023  23.952  53.773  1.00  0.00     0.015 A 
HETATM   34  C   UNL     1       8.304  21.150  53.984  1.00  0.00     0.030 A 
HETATM   35  N   UNL     1       8.230  21.624  56.452  1.00  0.00    -0.364 N 
HETATM   36  C   UNL     1       8.254  21.773  52.734  1.00  0.00     0.002 A 
HETATM   37  C   UNL     1       8.116  23.153  52.627  1.00  0.00     0.001 A 
HETATM   38  H   UNL     1       8.340  20.682  56.801  1.00  0.00     0.165 HD
HETATM   39  C   UNL     1       8.101  22.746  57.230  1.00  0.00     0.104 A 
ENDBRANCH   5  30
TORSDOF 7
ENDMDL
MODEL 8
REMARK VINA RESULT:      -9.4      3.045      6.284
REMARK  7 active torsions:
REMARK  status: ('A' for Active; 'I' for Inactive)
REMARK    1  A    between atoms: C_4  and  N_5 
REMARK    2  A    between atoms: C_6  and  S_7 
REMARK    3  A    between atoms: S_7  and  C_8 
REMARK    4  A    between atoms: C_8  and  C_9 
REMARK       I    between atoms: C_9  and  N_10 
REMARK    5  A    between atoms: N_10  and  C_11 
REMARK    6  A    between atoms: C_14  and  C_15 
REMARK       I    between atoms: C_15  and  N_16 
REMARK    7  A    between atoms: C_23  and  C_24 
ROOT
HETATM    1  N   UNL     1       6.357  26.838  54.786  1.00  0.00    -0.271 N 
HETATM    2  C   UNL     1       5.532  27.316  53.777  1.00  0.00     0.197 A 
HETATM    3  N   UNL     1       4.857  26.332  53.234  1.00  0.00    -0.122 NA
HETATM    4  N   UNL     1       5.226  25.177  53.862  1.00  0.00    -0.128 NA
HETATM    5  C   UNL     1       6.172  25.457  54.740  1.00  0.00     0.171 A 
ENDROOT
BRANCH   2   6
HETATM    6  S   UNL     1       5.254  28.990  53.404  1.00  0.00    -0.080 SA
BRANCH   6   7
HETATM    7  C   UNL     1       3.587  29.214  54.101  1.00  0.00     0.185 C 
BRANCH   7   8
HETATM    8  C   UNL     1       3.578  30.342  55.124  1.00  0.00     0.231 C 
HETATM    9  N   UNL     1       4.256  30.033  56.293  1.00  0.00    -0.327 N 
HETATM   10  H   UNL     1       4.600  29.082  56.363  1.00  0.00     0.169 HD
HETATM   11  O   UNL     1       3.057  31.423  54.858  1.00  0.00    -0.272 OA
BRANCH   9  12
HETATM   12  C   UNL     1       4.443  30.849  57.427  1.00  0.00     0.034 A 
HETATM   13  C   UNL     1       3.486  31.029  58.428  1.00  0.00     0.030 A 
HETATM   14  C   UNL     1       3.753  31.849  59.534  1.00  0.00     0.019 A 
HETATM   15  C   UNL     1       4.982  32.506  59.646  1.00  0.00     0.032 A 
HETATM   16  C   UNL     1       5.946  32.321  58.648  1.00  0.00     0.019 A 
HETATM   17  C   UNL     1       5.675  31.502  57.546  1.00  0.00     0.030 A 
BRANCH  15  18
HETATM   18  C   UNL     1       5.323  33.380  60.800  1.00  0.00     0.249 C 
HETATM   19  N   UNL     1       6.305  32.960  61.652  1.00  0.00    -0.366 N 
HETATM   20  H   UNL     1       6.674  32.021  61.654  1.00  0.00     0.159 HD
HETATM   21  H   UNL     1       6.457  33.527  62.477  1.00  0.00     0.159 HD
HETATM   22  O   UNL     1       4.728  34.431  61.006  1.00  0.00    -0.268 OA
ENDBRANCH  15  18
ENDBRANCH   9  12
ENDBRANCH   7   8
ENDBRANCH   6   7
ENDBRANCH   2   6
BRANCH   1  23
HETATM   23  C   UNL     1       7.103  27.586  55.735  1.00  0.00     0.044 A 
HETATM   24  C   UNL     1       8.272  28.259  55.357  1.00  0.00     0.037 A 
HETATM   25  C   UNL     1       8.996  29.004  56.299  1.00  0.00    -0.060 A 
HETATM   26  C   UNL     1      10.230  29.756  55.897  1.00  0.00     0.048 C 
HETATM   27  C   UNL     1       8.525  29.086  57.615  1.00  0.00     0.007 A 
HETATM   28  C   UNL     1       7.361  28.417  57.993  1.00  0.00     0.003 A 
HETATM   29  C   UNL     1       6.649  27.668  57.059  1.00  0.00     0.030 A 
ENDBRANCH   1  23
BRANCH   5  30
HETATM   30  C   UNL     1       6.936  24.375  55.442  1.00  0.00     0.040 A 
HETATM   31  C   UNL     1       7.529  23.224  54.832  1.00  0.00     0.006 A 
HETATM   32  C   UNL     1       8.155  22.496  55.847  1.00  0.00     0.043 A 
HETATM   33  C   UNL     1       7.580  22.712  53.518  1.00  0.00     0.015 A 
HETATM   34  C   UNL     1       8.825  21.289  55.615  1.00  0.00     0.030 A 
HETATM   35  N   UNL     1       7.973  23.194  57.018  1.00  0.00    -0.364 N 
HETATM   36  C   UNL     1       8.856  20.805  54.304  1.00  0.00     0.002 A 
HETATM   37  C   UNL     1       8.243  21.505  53.269  1.00  0.00     0.001 A 
HETATM   38  H   UNL     1       8.338  22.908  57.916  1.00  0.00     0.165 HD
HETATM   39  C   UNL     1       7.248  24.333  56.785  1.00  0.00     0.104 A 
ENDBRANCH   5  30
TORSDOF 7
ENDMDL
MODEL 9
REMARK VINA RESULT:      -9.2      3.076      6.437
REMARK  7 active torsions:
REMARK  status: ('A' for Active; 'I' for Inactive)
REMARK    1  A    between atoms: C_4  and  N_5 
REMARK    2  A    between atoms: C_6  and  S_7 
REMARK    3  A    between atoms: S_7  and  C_8 
REMARK    4  A    between atoms: C_8  and  C_9 
REMARK       I    between atoms: C_9  and  N_10 
REMARK    5  A    between atoms: N_10  and  C_11 
REMARK    6  A    between atoms: C_14  and  C_15 
REMARK       I    between atoms: C_15  and  N_16 
REMARK    7  A    between atoms: C_23  and  C_24 
ROOT
HETATM    1  N   UNL     1       5.805  31.099  57.089  1.00  0.00    -0.271 N 
HETATM    2  C   UNL     1       5.022  31.513  56.020  1.00  0.00     0.197 A 
HETATM    3  N   UNL     1       4.417  32.640  56.307  1.00  0.00    -0.122 NA
HETATM    4  N   UNL     1       4.775  32.994  57.576  1.00  0.00    -0.128 NA
HETATM    5  C   UNL     1       5.546  32.046  58.078  1.00  0.00     0.171 A 
ENDROOT
BRANCH   2   6
HETATM    6  S   UNL     1       4.990  30.781  54.444  1.00  0.00    -0.080 SA
BRANCH   6   7
HETATM    7  C   UNL     1       3.759  29.467  54.712  1.00  0.00     0.185 C 
BRANCH   7   8
HETATM    8  C   UNL     1       4.266  28.135  54.176  1.00  0.00     0.231 C 
HETATM    9  N   UNL     1       5.331  27.619  54.900  1.00  0.00    -0.327 N 
HETATM   10  H   UNL     1       5.693  28.216  55.635  1.00  0.00     0.169 HD
HETATM   11  O   UNL     1       3.706  27.588  53.230  1.00  0.00    -0.272 OA
BRANCH   9  12
HETATM   12  C   UNL     1       6.023  26.412  54.678  1.00  0.00     0.034 A 
HETATM   13  C   UNL     1       5.791  25.235  55.392  1.00  0.00     0.030 A 
HETATM   14  C   UNL     1       6.514  24.068  55.103  1.00  0.00     0.019 A 
HETATM   15  C   UNL     1       7.487  24.071  54.098  1.00  0.00     0.032 A 
HETATM   16  C   UNL     1       7.715  25.247  53.376  1.00  0.00     0.019 A 
HETATM   17  C   UNL     1       6.991  26.409  53.667  1.00  0.00     0.030 A 
BRANCH  15  18
HETATM   18  C   UNL     1       8.277  22.862  53.743  1.00  0.00     0.249 C 
HETATM   19  N   UNL     1       9.251  22.457  54.612  1.00  0.00    -0.366 N 
HETATM   20  H   UNL     1       9.588  23.027  55.374  1.00  0.00     0.159 HD
HETATM   21  H   UNL     1       9.834  21.687  54.308  1.00  0.00     0.159 HD
HETATM   22  O   UNL     1       8.090  22.259  52.693  1.00  0.00    -0.268 OA
ENDBRANCH  15  18
ENDBRANCH   9  12
ENDBRANCH   7   8
ENDBRANCH   6   7
ENDBRANCH   2   6
BRANCH   1  23
HETATM   23  C   UNL     1       6.755  30.043  57.121  1.00  0.00     0.044 A 
HETATM   24  C   UNL     1       8.052  30.233  56.628  1.00  0.00     0.037 A 
HETATM   25  C   UNL     1       8.986  29.188  56.674  1.00  0.00    -0.060 A 
HETATM   26  C   UNL     1      10.388  29.390  56.178  1.00  0.00     0.048 C 
HETATM   27  C   UNL     1       8.615  27.962  57.239  1.00  0.00     0.007 A 
HETATM   28  C   UNL     1       7.325  27.772  57.733  1.00  0.00     0.003 A 
HETATM   29  C   UNL     1       6.394  28.808  57.676  1.00  0.00     0.030 A 
ENDBRANCH   1  23
BRANCH   5  30
HETATM   30  C   UNL     1       5.932  32.034  59.526  1.00  0.00     0.040 A 
HETATM   31  C   UNL     1       7.265  32.034  60.048  1.00  0.00     0.006 A 
HETATM   32  C   UNL     1       7.163  32.041  61.441  1.00  0.00     0.043 A 
HETATM   33  C   UNL     1       8.555  32.007  59.475  1.00  0.00     0.015 A 
HETATM   34  C   UNL     1       8.279  32.021  62.285  1.00  0.00     0.030 A 
HETATM   35  N   UNL     1       5.823  32.073  61.749  1.00  0.00    -0.364 N 
HETATM   36  C   UNL     1       9.543  31.992  61.690  1.00  0.00     0.002 A 
HETATM   37  C   UNL     1       9.682  31.985  60.305  1.00  0.00     0.001 A 
HETATM   38  H   UNL     1       5.454  32.102  62.689  1.00  0.00     0.165 HD
HETATM   39  C   UNL     1       5.071  32.078  60.603  1.00  0.00     0.104 A 
ENDBRANCH   5  30
TORSDOF 7
ENDMDL
MODEL 10
REMARK VINA RESULT:      -9.0      4.229      7.584
REMARK  7 active torsions:
REMARK  status: ('A' for Active; 'I' for Inactive)
REMARK    1  A    between atoms: C_4  and  N_5 
REMARK    2  A    between atoms: C_6  and  S_7 
REMARK    3  A    between atoms: S_7  and  C_8 
REMARK    4  A    between atoms: C_8  and  C_9 
REMARK       I    between atoms: C_9  and  N_10 
REMARK    5  A    between atoms: N_10  and  C_11 
REMARK    6  A    between atoms: C_14  and  C_15 
REMARK       I    between atoms: C_15  and  N_16 
REMARK    7  A    between atoms: C_23  and  C_24 
ROOT
HETATM    1  N   UNL     1       5.887  27.817  54.408  1.00  0.00    -0.271 N 
HETATM    2  C   UNL     1       4.798  28.633  54.131  1.00  0.00     0.197 A 
HETATM    3  N   UNL     1       3.984  28.037  53.293  1.00  0.00    -0.122 NA
HETATM    4  N   UNL     1       4.519  26.818  52.986  1.00  0.00    -0.128 NA
HETATM    5  C   UNL     1       5.689  26.707  53.590  1.00  0.00     0.171 A 
ENDROOT
BRANCH   2   6
HETATM    6  S   UNL     1       4.431  30.136  54.920  1.00  0.00    -0.080 SA
BRANCH   6   7
HETATM    7  C   UNL     1       4.009  29.541  56.589  1.00  0.00     0.185 C 
BRANCH   7   8
HETATM    8  C   UNL     1       4.517  30.508  57.650  1.00  0.00     0.231 C 
HETATM    9  N   UNL     1       3.508  31.241  58.256  1.00  0.00    -0.327 N 
HETATM   10  H   UNL     1       2.578  31.110  57.873  1.00  0.00     0.169 HD
HETATM   11  O   UNL     1       5.709  30.546  57.942  1.00  0.00    -0.272 OA
BRANCH   9  12
HETATM   12  C   UNL     1       3.632  32.206  59.275  1.00  0.00     0.034 A 
HETATM   13  C   UNL     1       3.913  33.554  59.045  1.00  0.00     0.030 A 
HETATM   14  C   UNL     1       4.008  34.458  60.113  1.00  0.00     0.019 A 
HETATM   15  C   UNL     1       3.831  34.019  61.428  1.00  0.00     0.032 A 
HETATM   16  C   UNL     1       3.540  32.670  61.661  1.00  0.00     0.019 A 
HETATM   17  C   UNL     1       3.446  31.771  60.592  1.00  0.00     0.030 A 
BRANCH  15  18
HETATM   18  C   UNL     1       3.912  34.933  62.599  1.00  0.00     0.249 C 
HETATM   19  N   UNL     1       2.830  35.724  62.868  1.00  0.00    -0.366 N 
HETATM   20  H   UNL     1       2.067  35.861  62.222  1.00  0.00     0.159 HD
HETATM   21  H   UNL     1       2.942  36.400  63.613  1.00  0.00     0.159 HD
HETATM   22  O   UNL     1       4.923  35.005  63.287  1.00  0.00    -0.268 OA
ENDBRANCH  15  18
ENDBRANCH   9  12
ENDBRANCH   7   8
ENDBRANCH   6   7
ENDBRANCH   2   6
BRANCH   1  23
HETATM   23  C   UNL     1       6.891  28.004  55.396  1.00  0.00     0.044 A 
HETATM   24  C   UNL     1       8.031  28.770  55.122  1.00  0.00     0.037 A 
HETATM   25  C   UNL     1       9.011  28.957  56.107  1.00  0.00    -0.060 A 
HETATM   26  C   UNL     1      10.220  29.803  55.834  1.00  0.00     0.048 C 
HETATM   27  C   UNL     1       8.826  28.389  57.373  1.00  0.00     0.007 A 
HETATM   28  C   UNL     1       7.691  27.627  57.648  1.00  0.00     0.003 A 
HETATM   29  C   UNL     1       6.723  27.432  56.665  1.00  0.00     0.030 A 
ENDBRANCH   1  23
BRANCH   5  30
HETATM   30  C   UNL     1       6.623  25.574  53.286  1.00  0.00     0.040 A 
HETATM   31  C   UNL     1       7.028  24.543  54.193  1.00  0.00     0.006 A 
HETATM   32  C   UNL     1       7.883  23.690  53.491  1.00  0.00     0.043 A 
HETATM   33  C   UNL     1       6.770  24.257  55.551  1.00  0.00     0.015 A 
HETATM   34  C   UNL     1       8.492  22.573  54.076  1.00  0.00     0.030 A 
HETATM   35  N   UNL     1       7.970  24.170  52.205  1.00  0.00    -0.364 N 
HETATM   36  C   UNL     1       8.220  22.317  55.423  1.00  0.00     0.002 A 
HETATM   37  C   UNL     1       7.371  23.145  56.151  1.00  0.00     0.001 A 
HETATM   38  H   UNL     1       8.510  23.737  51.469  1.00  0.00     0.165 HD
HETATM   39  C   UNL     1       7.207  25.301  52.067  1.00  0.00     0.104 A 
ENDBRANCH   5  30
TORSDOF 7
ENDMDL
