MODEL 1
REMARK VINA RESULT:      -9.9      0.000      0.000
REMARK  3 active torsions:
REMARK  status: ('A' for Active; 'I' for Inactive)
REMARK    1  A    between atoms: C_2  and  C_3 
REMARK    2  A    between atoms: C_6  and  C_7 
REMARK       I    between atoms: C_7  and  N_8 
REMARK    3  A    between atoms: N_8  and  N_9 
ROOT
HETATM    1  C   UNL     1       7.938  29.865  58.260  1.00  0.00    -0.021 A 
HETATM    2  C   UNL     1       6.565  29.722  57.974  1.00  0.00     0.011 A 
HETATM    3  C   UNL     1       6.076  28.633  57.240  1.00  0.00     0.018 A 
HETATM    4  C   UNL     1       6.956  27.663  56.750  1.00  0.00     0.033 A 
HETATM    5  C   UNL     1       8.324  27.806  57.014  1.00  0.00     0.018 A 
HETATM    6  C   UNL     1       8.810  28.891  57.753  1.00  0.00     0.011 A 
ENDROOT
BRANCH   4   7
HETATM    7  C   UNL     1       6.520  26.449  55.995  1.00  0.00     0.266 C 
HETATM    8  N   UNL     1       7.140  25.243  56.316  1.00  0.00    -0.284 N 
HETATM    9  H   UNL     1       7.772  25.172  57.104  1.00  0.00     0.184 HD
HETATM   10  O   UNL     1       5.644  26.567  55.141  1.00  0.00    -0.266 OA
BRANCH   8  11
HETATM   11  N   UNL     1       6.833  24.029  55.655  1.00  0.00    -0.220 NA
HETATM   12  C   UNL     1       7.253  23.983  54.229  1.00  0.00     0.153 C 
HETATM   13  C   UNL     1       7.728  22.584  54.000  1.00  0.00    -0.036 A 
HETATM   14  C   UNL     1       7.798  21.906  55.215  1.00  0.00    -0.036 A 
HETATM   15  C   UNL     1       8.111  21.976  52.815  1.00  0.00     0.009 A 
HETATM   16  C   UNL     1       7.364  22.810  56.324  1.00  0.00     0.153 C 
HETATM   17  C   UNL     1       8.260  20.602  55.281  1.00  0.00     0.009 A 
HETATM   18  C   UNL     1       8.648  19.977  54.094  1.00  0.00     0.001 A 
HETATM   19  C   UNL     1       8.572  20.659  52.869  1.00  0.00     0.001 A 
ENDBRANCH   8  11
ENDBRANCH   4   7
BRANCH   1  20
HETATM   20  C   UNL     1       8.425  31.051  59.089  1.00  0.00     0.139 A 
HETATM   21  C   UNL     1       9.756  31.603  58.578  1.00  0.00     0.054 C 
HETATM   22  N   UNL     1       7.410  32.090  59.126  1.00  0.00    -0.321 N 
HETATM   23  C   UNL     1       6.943  32.336  60.390  1.00  0.00     0.324 A 
HETATM   24  H   UNL     1       6.976  32.528  58.327  1.00  0.00     0.165 HD
HETATM   25  O   UNL     1       6.061  33.129  60.665  1.00  0.00    -0.247 OA
HETATM   26  N   UNL     1       7.622  31.563  61.263  1.00  0.00    -0.277 N 
HETATM   27  C   UNL     1       8.541  30.798  60.613  1.00  0.00     0.258 A 
HETATM   28  H   UNL     1       7.484  31.578  62.258  1.00  0.00     0.173 HD
HETATM   29  O   UNL     1       9.326  30.047  61.174  1.00  0.00    -0.270 OA
ENDBRANCH   1  20
TORSDOF 3
ENDMDL
MODEL 2
REMARK VINA RESULT:      -9.8      2.651      4.352
REMARK  3 active torsions:
REMARK  status: ('A' for Active; 'I' for Inactive)
REMARK    1  A    between atoms: C_2  and  C_3 
REMARK    2  A    between atoms: C_6  and  C_7 
REMARK       I    between atoms: C_7  and  N_8 
REMARK    3  A    between atoms: N_8  and  N_9 
ROOT
HETATM    1  C   UNL     1       7.222  32.109  61.470  1.00  0.00    -0.021 A 
HETATM    2  C   UNL     1       6.634  32.203  60.192  1.00  0.00     0.011 A 
HETATM    3  C   UNL     1       7.080  31.420  59.118  1.00  0.00     0.018 A 
HETATM    4  C   UNL     1       8.146  30.532  59.289  1.00  0.00     0.033 A 
HETATM    5  C   UNL     1       8.748  30.445  60.551  1.00  0.00     0.018 A 
HETATM    6  C   UNL     1       8.298  31.223  61.624  1.00  0.00     0.011 A 
ENDROOT
BRANCH   4   7
HETATM    7  C   UNL     1       8.660  29.630  58.214  1.00  0.00     0.266 C 
HETATM    8  N   UNL     1       7.895  28.507  57.906  1.00  0.00    -0.284 N 
HETATM    9  H   UNL     1       6.977  28.371  58.311  1.00  0.00     0.184 HD
HETATM   10  O   UNL     1       9.715  29.919  57.654  1.00  0.00    -0.266 OA
BRANCH   8  11
HETATM   11  N   UNL     1       8.287  27.564  56.925  1.00  0.00    -0.220 NA
HETATM   12  C   UNL     1       8.183  26.146  57.360  1.00  0.00     0.153 C 
HETATM   13  C   UNL     1       7.711  25.395  56.156  1.00  0.00    -0.036 A 
HETATM   14  C   UNL     1       7.353  26.292  55.152  1.00  0.00    -0.036 A 
HETATM   15  C   UNL     1       7.568  24.028  55.982  1.00  0.00     0.009 A 
HETATM   16  C   UNL     1       7.575  27.694  55.625  1.00  0.00     0.153 C 
HETATM   17  C   UNL     1       6.835  25.849  53.947  1.00  0.00     0.009 A 
HETATM   18  C   UNL     1       6.686  24.473  53.757  1.00  0.00     0.001 A 
HETATM   19  C   UNL     1       7.052  23.569  54.767  1.00  0.00     0.001 A 
ENDBRANCH   8  11
ENDBRANCH   4   7
BRANCH   1  20
HETATM   20  C   UNL     1       6.687  32.958  62.620  1.00  0.00     0.139 A 
HETATM   21  C   UNL     1       7.603  32.914  63.843  1.00  0.00     0.054 C 
HETATM   22  N   UNL     1       6.472  34.325  62.178  1.00  0.00    -0.321 N 
HETATM   23  C   UNL     1       5.158  34.710  62.250  1.00  0.00     0.324 A 
HETATM   24  H   UNL     1       7.157  34.927  61.745  1.00  0.00     0.165 HD
HETATM   25  O   UNL     1       4.729  35.793  61.893  1.00  0.00    -0.247 OA
HETATM   26  N   UNL     1       4.438  33.701  62.780  1.00  0.00    -0.277 N 
HETATM   27  C   UNL     1       5.238  32.638  63.068  1.00  0.00     0.258 A 
HETATM   28  H   UNL     1       3.451  33.745  62.961  1.00  0.00     0.173 HD
HETATM   29  O   UNL     1       4.847  31.612  63.606  1.00  0.00    -0.270 OA
ENDBRANCH   1  20
TORSDOF 3
ENDMDL
MODEL 3
REMARK VINA RESULT:      -9.7      3.483      5.760
REMARK  3 active torsions:
REMARK  status: ('A' for Active; 'I' for Inactive)
REMARK    1  A    between atoms: C_2  and  C_3 
REMARK    2  A    between atoms: C_6  and  C_7 
REMARK       I    between atoms: C_7  and  N_8 
REMARK    3  A    between atoms: N_8  and  N_9 
ROOT
HETATM    1  C   UNL     1       7.066  32.973  62.486  1.00  0.00    -0.021 A 
HETATM    2  C   UNL     1       8.255  32.257  62.731  1.00  0.00     0.011 A 
HETATM    3  C   UNL     1       8.819  31.415  61.762  1.00  0.00     0.018 A 
HETATM    4  C   UNL     1       8.193  31.251  60.523  1.00  0.00     0.033 A 
HETATM    5  C   UNL     1       7.001  31.945  60.277  1.00  0.00     0.018 A 
HETATM    6  C   UNL     1       6.443  32.790  61.243  1.00  0.00     0.011 A 
ENDROOT
BRANCH   4   7
HETATM    7  C   UNL     1       8.743  30.408  59.418  1.00  0.00     0.266 C 
HETATM    8  N   UNL     1       7.897  29.445  58.870  1.00  0.00    -0.284 N 
HETATM    9  H   UNL     1       6.920  29.398  59.130  1.00  0.00     0.184 HD
HETATM   10  O   UNL     1       9.897  30.603  59.044  1.00  0.00    -0.266 OA
BRANCH   8  11
HETATM   11  N   UNL     1       8.309  28.569  57.837  1.00  0.00    -0.220 NA
HETATM   12  C   UNL     1       7.539  27.298  57.765  1.00  0.00     0.153 C 
HETATM   13  C   UNL     1       7.391  27.005  56.306  1.00  0.00    -0.036 A 
HETATM   14  C   UNL     1       7.834  28.096  55.560  1.00  0.00    -0.036 A 
HETATM   15  C   UNL     1       6.865  25.881  55.691  1.00  0.00     0.009 A 
HETATM   16  C   UNL     1       8.311  29.176  56.478  1.00  0.00     0.153 C 
HETATM   17  C   UNL     1       7.757  28.096  54.177  1.00  0.00     0.009 A 
HETATM   18  C   UNL     1       7.229  26.968  53.544  1.00  0.00     0.001 A 
HETATM   19  C   UNL     1       6.788  25.867  54.296  1.00  0.00     0.001 A 
ENDBRANCH   8  11
ENDBRANCH   4   7
BRANCH   1  20
HETATM   20  C   UNL     1       6.501  33.902  63.558  1.00  0.00     0.139 A 
HETATM   21  C   UNL     1       7.372  33.930  64.814  1.00  0.00     0.054 C 
HETATM   22  N   UNL     1       6.320  35.239  63.020  1.00  0.00    -0.321 N 
HETATM   23  C   UNL     1       5.010  35.642  63.018  1.00  0.00     0.324 A 
HETATM   24  H   UNL     1       7.028  35.803  62.573  1.00  0.00     0.165 HD
HETATM   25  O   UNL     1       4.608  36.703  62.576  1.00  0.00    -0.247 OA
HETATM   26  N   UNL     1       4.258  34.678  63.587  1.00  0.00    -0.277 N 
HETATM   27  C   UNL     1       5.033  33.628  63.973  1.00  0.00     0.258 A 
HETATM   28  H   UNL     1       3.266  34.745  63.729  1.00  0.00     0.173 HD
HETATM   29  O   UNL     1       4.610  32.644  64.563  1.00  0.00    -0.270 OA
ENDBRANCH   1  20
TORSDOF 3
ENDMDL
MODEL 4
REMARK VINA RESULT:      -9.6      2.415      9.981
REMARK  3 active torsions:
REMARK  status: ('A' for Active; 'I' for Inactive)
REMARK    1  A    between atoms: C_2  and  C_3 
REMARK    2  A    between atoms: C_6  and  C_7 
REMARK       I    between atoms: C_7  and  N_8 
REMARK    3  A    between atoms: N_8  and  N_9 
ROOT
HETATM    1  C   UNL     1       7.119  26.931  56.554  1.00  0.00    -0.021 A 
HETATM    2  C   UNL     1       8.483  27.233  56.740  1.00  0.00     0.011 A 
HETATM    3  C   UNL     1       8.896  28.393  57.410  1.00  0.00     0.018 A 
HETATM    4  C   UNL     1       7.949  29.299  57.897  1.00  0.00     0.033 A 
HETATM    5  C   UNL     1       6.590  29.016  57.701  1.00  0.00     0.018 A 
HETATM    6  C   UNL     1       6.180  27.855  57.038  1.00  0.00     0.011 A 
ENDROOT
BRANCH   4   7
HETATM    7  C   UNL     1       8.295  30.537  58.658  1.00  0.00     0.266 C 
HETATM    8  N   UNL     1       7.499  30.853  59.757  1.00  0.00    -0.284 N 
HETATM    9  H   UNL     1       6.792  30.211  60.093  1.00  0.00     0.184 HD
HETATM   10  O   UNL     1       9.256  31.209  58.288  1.00  0.00    -0.266 OA
BRANCH   8  11
HETATM   11  N   UNL     1       7.710  32.012  60.542  1.00  0.00    -0.220 NA
HETATM   12  C   UNL     1       6.499  32.854  60.733  1.00  0.00     0.153 C 
HETATM   13  C   UNL     1       6.582  33.356  62.139  1.00  0.00    -0.036 A 
HETATM   14  C   UNL     1       7.620  32.712  62.808  1.00  0.00    -0.036 A 
HETATM   15  C   UNL     1       5.773  34.276  62.786  1.00  0.00     0.009 A 
HETATM   16  C   UNL     1       8.297  31.750  61.884  1.00  0.00     0.153 C 
HETATM   17  C   UNL     1       7.876  32.965  64.146  1.00  0.00     0.009 A 
HETATM   18  C   UNL     1       7.068  33.891  64.810  1.00  0.00     0.001 A 
HETATM   19  C   UNL     1       6.025  34.544  64.134  1.00  0.00     0.001 A 
ENDBRANCH   8  11
ENDBRANCH   4   7
BRANCH   1  20
HETATM   20  C   UNL     1       6.712  25.642  55.845  1.00  0.00     0.139 A 
HETATM   21  C   UNL     1       5.312  25.179  56.250  1.00  0.00     0.054 C 
HETATM   22  N   UNL     1       6.810  25.808  54.405  1.00  0.00    -0.321 N 
HETATM   23  C   UNL     1       7.730  24.969  53.832  1.00  0.00     0.324 A 
HETATM   24  H   UNL     1       6.362  26.526  53.856  1.00  0.00     0.165 HD
HETATM   25  O   UNL     1       8.019  24.956  52.649  1.00  0.00    -0.247 OA
HETATM   26  N   UNL     1       8.248  24.173  54.789  1.00  0.00    -0.277 N 
HETATM   27  C   UNL     1       7.696  24.455  56.001  1.00  0.00     0.258 A 
HETATM   28  H   UNL     1       8.926  23.451  54.619  1.00  0.00     0.173 HD
HETATM   29  O   UNL     1       7.950  23.843  57.029  1.00  0.00    -0.270 OA
ENDBRANCH   1  20
TORSDOF 3
ENDMDL
MODEL 5
REMARK VINA RESULT:      -9.5      2.969      9.602
REMARK  3 active torsions:
REMARK  status: ('A' for Active; 'I' for Inactive)
REMARK    1  A    between atoms: C_2  and  C_3 
REMARK    2  A    between atoms: C_6  and  C_7 
REMARK       I    between atoms: C_7  and  N_8 
REMARK    3  A    between atoms: N_8  and  N_9 
ROOT
HETATM    1  C   UNL     1       7.041  26.723  54.716  1.00  0.00    -0.021 A 
HETATM    2  C   UNL     1       6.992  26.430  56.094  1.00  0.00     0.011 A 
HETATM    3  C   UNL     1       7.521  27.307  57.052  1.00  0.00     0.018 A 
HETATM    4  C   UNL     1       8.134  28.499  56.652  1.00  0.00     0.033 A 
HETATM    5  C   UNL     1       8.202  28.790  55.284  1.00  0.00     0.018 A 
HETATM    6  C   UNL     1       7.669  27.917  54.330  1.00  0.00     0.011 A 
ENDROOT
BRANCH   4   7
HETATM    7  C   UNL     1       8.686  29.510  57.604  1.00  0.00     0.266 C 
HETATM    8  N   UNL     1       7.771  30.219  58.381  1.00  0.00    -0.284 N 
HETATM    9  H   UNL     1       6.788  29.978  58.383  1.00  0.00     0.184 HD
HETATM   10  O   UNL     1       9.904  29.665  57.661  1.00  0.00    -0.266 OA
BRANCH   8  11
HETATM   11  N   UNL     1       8.168  31.221  59.299  1.00  0.00    -0.220 NA
HETATM   12  C   UNL     1       7.127  32.246  59.578  1.00  0.00     0.153 C 
HETATM   13  C   UNL     1       7.258  32.559  61.035  1.00  0.00    -0.036 A 
HETATM   14  C   UNL     1       8.140  31.660  61.631  1.00  0.00    -0.036 A 
HETATM   15  C   UNL     1       6.613  33.533  61.779  1.00  0.00     0.009 A 
HETATM   16  C   UNL     1       8.656  30.701  60.606  1.00  0.00     0.153 C 
HETATM   17  C   UNL     1       8.397  31.706  62.992  1.00  0.00     0.009 A 
HETATM   18  C   UNL     1       7.754  32.684  63.754  1.00  0.00     0.001 A 
HETATM   19  C   UNL     1       6.870  33.593  63.151  1.00  0.00     0.001 A 
ENDBRANCH   8  11
ENDBRANCH   4   7
BRANCH   1  20
HETATM   20  C   UNL     1       6.427  25.755  53.708  1.00  0.00     0.139 A 
HETATM   21  C   UNL     1       6.085  24.406  54.341  1.00  0.00     0.054 C 
HETATM   22  N   UNL     1       5.258  26.350  53.086  1.00  0.00    -0.321 N 
HETATM   23  C   UNL     1       5.398  26.520  51.734  1.00  0.00     0.324 A 
HETATM   24  H   UNL     1       4.453  26.726  53.567  1.00  0.00     0.165 HD
HETATM   25  O   UNL     1       4.571  27.039  51.007  1.00  0.00    -0.247 OA
HETATM   26  N   UNL     1       6.591  26.016  51.355  1.00  0.00    -0.277 N 
HETATM   27  C   UNL     1       7.261  25.509  52.425  1.00  0.00     0.258 A 
HETATM   28  H   UNL     1       6.920  25.995  50.406  1.00  0.00     0.173 HD
HETATM   29  O   UNL     1       8.344  24.945  52.351  1.00  0.00    -0.270 OA
ENDBRANCH   1  20
TORSDOF 3
ENDMDL
MODEL 6
REMARK VINA RESULT:      -9.5      2.478     10.128
REMARK  3 active torsions:
REMARK  status: ('A' for Active; 'I' for Inactive)
REMARK    1  A    between atoms: C_2  and  C_3 
REMARK    2  A    between atoms: C_6  and  C_7 
REMARK       I    between atoms: C_7  and  N_8 
REMARK    3  A    between atoms: N_8  and  N_9 
ROOT
HETATM    1  C   UNL     1       6.777  27.688  56.605  1.00  0.00    -0.021 A 
HETATM    2  C   UNL     1       8.102  27.802  57.074  1.00  0.00     0.011 A 
HETATM    3  C   UNL     1       8.518  28.899  57.840  1.00  0.00     0.018 A 
HETATM    4  C   UNL     1       7.621  29.927  58.143  1.00  0.00     0.033 A 
HETATM    5  C   UNL     1       6.307  29.831  57.667  1.00  0.00     0.018 A 
HETATM    6  C   UNL     1       5.891  28.732  56.907  1.00  0.00     0.011 A 
ENDROOT
BRANCH   4   7
HETATM    7  C   UNL     1       7.965  31.112  58.987  1.00  0.00     0.266 C 
HETATM    8  N   UNL     1       7.191  31.329  60.126  1.00  0.00    -0.284 N 
HETATM    9  H   UNL     1       6.503  30.651  60.428  1.00  0.00     0.184 HD
HETATM   10  O   UNL     1       8.905  31.826  58.647  1.00  0.00    -0.266 OA
BRANCH   8  11
HETATM   11  N   UNL     1       7.402  32.429  60.991  1.00  0.00    -0.220 NA
HETATM   12  C   UNL     1       6.191  33.256  61.240  1.00  0.00     0.153 C 
HETATM   13  C   UNL     1       6.273  33.657  62.678  1.00  0.00    -0.036 A 
HETATM   14  C   UNL     1       7.311  32.967  63.301  1.00  0.00    -0.036 A 
HETATM   15  C   UNL     1       5.464  34.530  63.388  1.00  0.00     0.009 A 
HETATM   16  C   UNL     1       7.988  32.072  62.312  1.00  0.00     0.153 C 
HETATM   17  C   UNL     1       7.566  33.125  64.653  1.00  0.00     0.009 A 
HETATM   18  C   UNL     1       6.757  34.002  65.380  1.00  0.00     0.001 A 
HETATM   19  C   UNL     1       5.716  34.702  64.751  1.00  0.00     0.001 A 
ENDBRANCH   8  11
ENDBRANCH   4   7
BRANCH   1  20
HETATM   20  C   UNL     1       6.356  26.462  55.798  1.00  0.00     0.139 A 
HETATM   21  C   UNL     1       5.311  26.803  54.736  1.00  0.00     0.054 C 
HETATM   22  N   UNL     1       7.520  25.830  55.201  1.00  0.00    -0.321 N 
HETATM   23  C   UNL     1       7.726  24.553  55.653  1.00  0.00     0.324 A 
HETATM   24  H   UNL     1       8.202  26.277  54.605  1.00  0.00     0.165 HD
HETATM   25  O   UNL     1       8.661  23.842  55.331  1.00  0.00    -0.247 OA
HETATM   26  N   UNL     1       6.729  24.226  56.500  1.00  0.00    -0.277 N 
HETATM   27  C   UNL     1       5.850  25.256  56.630  1.00  0.00     0.258 A 
HETATM   28  H   UNL     1       6.638  23.331  56.947  1.00  0.00     0.173 HD
HETATM   29  O   UNL     1       4.826  25.204  57.297  1.00  0.00    -0.270 OA
ENDBRANCH   1  20
TORSDOF 3
ENDMDL
MODEL 7
REMARK VINA RESULT:      -8.8      3.356      5.940
REMARK  3 active torsions:
REMARK  status: ('A' for Active; 'I' for Inactive)
REMARK    1  A    between atoms: C_2  and  C_3 
REMARK    2  A    between atoms: C_6  and  C_7 
REMARK       I    between atoms: C_7  and  N_8 
REMARK    3  A    between atoms: N_8  and  N_9 
ROOT
HETATM    1  C   UNL     1       5.437  33.420  61.615  1.00  0.00    -0.021 A 
HETATM    2  C   UNL     1       6.778  33.125  61.932  1.00  0.00     0.011 A 
HETATM    3  C   UNL     1       7.589  32.371  61.071  1.00  0.00     0.018 A 
HETATM    4  C   UNL     1       7.069  31.872  59.873  1.00  0.00     0.033 A 
HETATM    5  C   UNL     1       5.732  32.146  59.558  1.00  0.00     0.018 A 
HETATM    6  C   UNL     1       4.926  32.903  60.415  1.00  0.00     0.011 A 
ENDROOT
BRANCH   4   7
HETATM    7  C   UNL     1       7.870  31.096  58.878  1.00  0.00     0.266 C 
HETATM    8  N   UNL     1       7.320  29.905  58.409  1.00  0.00    -0.284 N 
HETATM    9  H   UNL     1       6.372  29.637  58.643  1.00  0.00     0.184 HD
HETATM   10  O   UNL     1       8.958  31.540  58.520  1.00  0.00    -0.266 OA
BRANCH   8  11
HETATM   11  N   UNL     1       7.991  29.068  57.484  1.00  0.00    -0.220 NA
HETATM   12  C   UNL     1       7.710  27.617  57.652  1.00  0.00     0.153 C 
HETATM   13  C   UNL     1       7.647  27.063  56.264  1.00  0.00    -0.036 A 
HETATM   14  C   UNL     1       7.668  28.105  55.339  1.00  0.00    -0.036 A 
HETATM   15  C   UNL     1       7.533  25.744  55.857  1.00  0.00     0.009 A 
HETATM   16  C   UNL     1       7.757  29.415  56.056  1.00  0.00     0.153 C 
HETATM   17  C   UNL     1       7.570  27.858  53.980  1.00  0.00     0.009 A 
HETATM   18  C   UNL     1       7.456  26.532  53.555  1.00  0.00     0.001 A 
HETATM   19  C   UNL     1       7.440  25.482  54.487  1.00  0.00     0.001 A 
ENDBRANCH   8  11
ENDBRANCH   4   7
BRANCH   1  20
HETATM   20  C   UNL     1       4.597  34.269  62.566  1.00  0.00     0.139 A 
HETATM   21  C   UNL     1       3.406  34.918  61.860  1.00  0.00     0.054 C 
HETATM   22  N   UNL     1       4.161  33.473  63.699  1.00  0.00    -0.321 N 
HETATM   23  C   UNL     1       4.652  33.929  64.895  1.00  0.00     0.324 A 
HETATM   24  H   UNL     1       3.652  32.602  63.656  1.00  0.00     0.165 HD
HETATM   25  O   UNL     1       4.460  33.400  65.974  1.00  0.00    -0.247 OA
HETATM   26  N   UNL     1       5.368  35.050  64.671  1.00  0.00    -0.277 N 
HETATM   27  C   UNL     1       5.372  35.362  63.346  1.00  0.00     0.258 A 
HETATM   28  H   UNL     1       5.810  35.592  65.392  1.00  0.00     0.173 HD
HETATM   29  O   UNL     1       5.903  36.359  62.878  1.00  0.00    -0.270 OA
ENDBRANCH   1  20
TORSDOF 3
ENDMDL
MODEL 8
REMARK VINA RESULT:      -8.3      1.934      2.618
REMARK  3 active torsions:
REMARK  status: ('A' for Active; 'I' for Inactive)
REMARK    1  A    between atoms: C_2  and  C_3 
REMARK    2  A    between atoms: C_6  and  C_7 
REMARK       I    between atoms: C_7  and  N_8 
REMARK    3  A    between atoms: N_8  and  N_9 
ROOT
HETATM    1  C   UNL     1       7.275  31.182  59.634  1.00  0.00    -0.021 A 
HETATM    2  C   UNL     1       6.201  31.252  58.724  1.00  0.00     0.011 A 
HETATM    3  C   UNL     1       6.084  30.354  57.654  1.00  0.00     0.018 A 
HETATM    4  C   UNL     1       7.056  29.369  57.453  1.00  0.00     0.033 A 
HETATM    5  C   UNL     1       8.136  29.303  58.342  1.00  0.00     0.018 A 
HETATM    6  C   UNL     1       8.248  30.197  59.413  1.00  0.00     0.011 A 
ENDROOT
BRANCH   4   7
HETATM    7  C   UNL     1       6.991  28.345  56.366  1.00  0.00     0.266 C 
HETATM    8  N   UNL     1       5.781  27.673  56.196  1.00  0.00    -0.284 N 
HETATM    9  H   UNL     1       4.953  27.949  56.708  1.00  0.00     0.184 HD
HETATM   10  O   UNL     1       7.990  28.149  55.678  1.00  0.00    -0.266 OA
BRANCH   8  11
HETATM   11  N   UNL     1       5.602  26.665  55.218  1.00  0.00    -0.220 NA
HETATM   12  C   UNL     1       6.277  26.939  53.922  1.00  0.00     0.153 C 
HETATM   13  C   UNL     1       6.787  25.614  53.452  1.00  0.00    -0.036 A 
HETATM   14  C   UNL     1       6.632  24.666  54.461  1.00  0.00    -0.036 A 
HETATM   15  C   UNL     1       7.382  25.287  52.245  1.00  0.00     0.009 A 
HETATM   16  C   UNL     1       6.001  25.301  55.659  1.00  0.00     0.153 C 
HETATM   17  C   UNL     1       7.074  23.363  54.294  1.00  0.00     0.009 A 
HETATM   18  C   UNL     1       7.675  23.020  53.080  1.00  0.00     0.001 A 
HETATM   19  C   UNL     1       7.826  23.975  52.062  1.00  0.00     0.001 A 
ENDBRANCH   8  11
ENDBRANCH   4   7
BRANCH   1  20
HETATM   20  C   UNL     1       7.350  32.161  60.803  1.00  0.00     0.139 A 
HETATM   21  C   UNL     1       8.623  33.006  60.768  1.00  0.00     0.054 C 
HETATM   22  N   UNL     1       6.166  33.003  60.830  1.00  0.00    -0.321 N 
HETATM   23  C   UNL     1       5.418  32.839  61.966  1.00  0.00     0.324 A 
HETATM   24  H   UNL     1       5.824  33.574  60.071  1.00  0.00     0.165 HD
HETATM   25  O   UNL     1       4.363  33.403  62.193  1.00  0.00    -0.247 OA
HETATM   26  N   UNL     1       6.047  31.964  62.777  1.00  0.00    -0.277 N 
HETATM   27  C   UNL     1       7.206  31.531  62.212  1.00  0.00     0.258 A 
HETATM   28  H   UNL     1       5.713  31.695  63.686  1.00  0.00     0.173 HD
HETATM   29  O   UNL     1       7.995  30.773  62.760  1.00  0.00    -0.270 OA
ENDBRANCH   1  20
TORSDOF 3
ENDMDL
MODEL 9
REMARK VINA RESULT:      -8.2      6.409      8.747
REMARK  3 active torsions:
REMARK  status: ('A' for Active; 'I' for Inactive)
REMARK    1  A    between atoms: C_2  and  C_3 
REMARK    2  A    between atoms: C_6  and  C_7 
REMARK       I    between atoms: C_7  and  N_8 
REMARK    3  A    between atoms: N_8  and  N_9 
ROOT
HETATM    1  C   UNL     1       3.809  29.062  49.709  1.00  0.00    -0.021 A 
HETATM    2  C   UNL     1       3.672  29.030  51.112  1.00  0.00     0.011 A 
HETATM    3  C   UNL     1       4.274  28.029  51.887  1.00  0.00     0.018 A 
HETATM    4  C   UNL     1       5.017  27.016  51.273  1.00  0.00     0.033 A 
HETATM    5  C   UNL     1       5.145  27.030  49.878  1.00  0.00     0.018 A 
HETATM    6  C   UNL     1       4.548  28.033  49.107  1.00  0.00     0.011 A 
ENDROOT
BRANCH   4   7
HETATM    7  C   UNL     1       5.727  25.934  52.022  1.00  0.00     0.266 C 
HETATM    8  N   UNL     1       7.064  26.157  52.347  1.00  0.00    -0.284 N 
HETATM    9  H   UNL     1       7.500  27.057  52.185  1.00  0.00     0.184 HD
HETATM   10  O   UNL     1       5.108  24.915  52.317  1.00  0.00    -0.266 OA
BRANCH   8  11
HETATM   11  N   UNL     1       7.851  25.200  53.031  1.00  0.00    -0.220 NA
HETATM   12  C   UNL     1       7.384  24.892  54.409  1.00  0.00     0.153 C 
HETATM   13  C   UNL     1       7.609  23.424  54.585  1.00  0.00    -0.036 A 
HETATM   14  C   UNL     1       7.972  22.854  53.367  1.00  0.00    -0.036 A 
HETATM   15  C   UNL     1       7.460  22.650  55.724  1.00  0.00     0.009 A 
HETATM   16  C   UNL     1       8.019  23.909  52.309  1.00  0.00     0.153 C 
HETATM   17  C   UNL     1       8.190  21.491  53.251  1.00  0.00     0.009 A 
HETATM   18  C   UNL     1       8.043  20.698  54.393  1.00  0.00     0.001 A 
HETATM   19  C   UNL     1       7.683  21.274  55.621  1.00  0.00     0.001 A 
ENDBRANCH   8  11
ENDBRANCH   4   7
BRANCH   1  20
HETATM   20  C   UNL     1       3.161  30.187  48.906  1.00  0.00     0.139 A 
HETATM   21  C   UNL     1       2.578  31.276  49.806  1.00  0.00     0.054 C 
HETATM   22  N   UNL     1       4.115  30.745  47.963  1.00  0.00    -0.321 N 
HETATM   23  C   UNL     1       3.734  30.582  46.657  1.00  0.00     0.324 A 
HETATM   24  H   UNL     1       5.028  31.115  48.186  1.00  0.00     0.165 HD
HETATM   25  O   UNL     1       4.391  30.926  45.691  1.00  0.00    -0.247 OA
HETATM   26  N   UNL     1       2.524  29.987  46.628  1.00  0.00    -0.277 N 
HETATM   27  C   UNL     1       2.077  29.744  47.890  1.00  0.00     0.258 A 
HETATM   28  H   UNL     1       2.015  29.781  45.787  1.00  0.00     0.173 HD
HETATM   29  O   UNL     1       0.984  29.261  48.149  1.00  0.00    -0.270 OA
ENDBRANCH   1  20
TORSDOF 3
ENDMDL
MODEL 10
REMARK VINA RESULT:      -8.2      3.026      5.482
REMARK  3 active torsions:
REMARK  status: ('A' for Active; 'I' for Inactive)
REMARK    1  A    between atoms: C_2  and  C_3 
REMARK    2  A    between atoms: C_6  and  C_7 
REMARK       I    between atoms: C_7  and  N_8 
REMARK    3  A    between atoms: N_8  and  N_9 
ROOT
HETATM    1  C   UNL     1       5.683  33.499  61.181  1.00  0.00    -0.021 A 
HETATM    2  C   UNL     1       6.909  32.915  61.559  1.00  0.00     0.011 A 
HETATM    3  C   UNL     1       7.563  31.983  60.740  1.00  0.00     0.018 A 
HETATM    4  C   UNL     1       6.994  31.593  59.524  1.00  0.00     0.033 A 
HETATM    5  C   UNL     1       5.767  32.156  59.149  1.00  0.00     0.018 A 
HETATM    6  C   UNL     1       5.119  33.090  59.964  1.00  0.00     0.011 A 
ENDROOT
BRANCH   4   7
HETATM    7  C   UNL     1       7.639  30.640  58.571  1.00  0.00     0.266 C 
HETATM    8  N   UNL     1       6.831  29.646  58.021  1.00  0.00    -0.284 N 
HETATM    9  H   UNL     1       5.830  29.642  58.171  1.00  0.00     0.184 HD
HETATM   10  O   UNL     1       8.833  30.777  58.315  1.00  0.00    -0.266 OA
BRANCH   8  11
HETATM   11  N   UNL     1       7.329  28.669  57.126  1.00  0.00    -0.220 NA
HETATM   12  C   UNL     1       7.567  27.336  57.742  1.00  0.00     0.153 C 
HETATM   13  C   UNL     1       7.164  26.340  56.701  1.00  0.00    -0.036 A 
HETATM   14  C   UNL     1       6.539  26.994  55.641  1.00  0.00    -0.036 A 
HETATM   15  C   UNL     1       7.300  24.962  56.714  1.00  0.00     0.009 A 
HETATM   16  C   UNL     1       6.497  28.465  55.909  1.00  0.00     0.153 C 
HETATM   17  C   UNL     1       6.027  26.288  54.566  1.00  0.00     0.009 A 
HETATM   18  C   UNL     1       6.158  24.897  54.566  1.00  0.00     0.001 A 
HETATM   19  C   UNL     1       6.792  24.239  55.631  1.00  0.00     0.001 A 
ENDBRANCH   8  11
ENDBRANCH   4   7
BRANCH   1  20
HETATM   20  C   UNL     1       5.019  34.532  62.088  1.00  0.00     0.139 A 
HETATM   21  C   UNL     1       5.933  34.964  63.235  1.00  0.00     0.054 C 
HETATM   22  N   UNL     1       4.582  35.678  61.309  1.00  0.00    -0.321 N 
HETATM   23  C   UNL     1       3.224  35.857  61.337  1.00  0.00     0.324 A 
HETATM   24  H   UNL     1       5.159  36.240  60.701  1.00  0.00     0.165 HD
HETATM   25  O   UNL     1       2.622  36.722  60.726  1.00  0.00    -0.247 OA
HETATM   26  N   UNL     1       2.679  34.928  62.149  1.00  0.00    -0.277 N 
HETATM   27  C   UNL     1       3.643  34.122  62.672  1.00  0.00     0.258 A 
HETATM   28  H   UNL     1       1.699  34.864  62.358  1.00  0.00     0.173 HD
HETATM   29  O   UNL     1       3.426  33.230  63.481  1.00  0.00    -0.270 OA
ENDBRANCH   1  20
TORSDOF 3
ENDMDL
