MODEL 1
REMARK VINA RESULT:     -10.3      0.000      0.000
REMARK  6 active torsions:
REMARK  status: ('A' for Active; 'I' for Inactive)
REMARK    1  A    between atoms: C_2  and  O_3 
REMARK    2  A    between atoms: C_2  and  C_4 
REMARK    3  A    between atoms: C_6  and  N_7 
REMARK       I    between atoms: N_7  and  C_8 
REMARK    4  A    between atoms: C_8  and  C_9 
REMARK    5  A    between atoms: C_12  and  C_13 
REMARK    6  A    between atoms: C_18  and  C_19 
ROOT
HETATM    1  C   UNL     1       6.556  28.523  56.334  1.00  0.00     0.096 A 
HETATM    2  C   UNL     1       6.339  27.355  55.625  1.00  0.00     0.138 A 
HETATM    3  N   UNL     1       5.440  27.679  54.632  1.00  0.00    -0.240 N 
HETATM    4  C   UNL     1       4.982  26.755  53.608  1.00  0.00     0.221 C 
HETATM    5  C   UNL     1       5.961  25.570  53.493  1.00  0.00     0.066 C 
HETATM    6  C   UNL     1       6.292  25.028  54.887  1.00  0.00     0.118 C 
HETATM    7  N   UNL     1       6.851  26.098  55.717  1.00  0.00    -0.365 N 
HETATM    8  N   UNL     1       4.990  28.938  54.706  1.00  0.00    -0.181 NA
HETATM    9  C   UNL     1       5.702  29.463  55.706  1.00  0.00     0.160 A 
HETATM   10  H   UNL     1       7.820  25.955  56.006  1.00  0.00     0.161 HD
ENDROOT
BRANCH   1  11
HETATM   11  C   UNL     1       7.427  28.782  57.469  1.00  0.00     0.261 C 
HETATM   12  N   UNL     1       7.578  30.126  57.756  1.00  0.00    -0.323 N 
HETATM   13  H   UNL     1       7.172  30.760  57.076  1.00  0.00     0.169 HD
HETATM   14  O   UNL     1       7.970  27.854  58.058  1.00  0.00    -0.267 OA
BRANCH  12  15
HETATM   15  C   UNL     1       8.267  30.711  58.835  1.00  0.00     0.035 A 
HETATM   16  C   UNL     1       7.811  30.685  60.155  1.00  0.00     0.039 A 
HETATM   17  C   UNL     1       8.537  31.306  61.190  1.00  0.00    -0.028 A 
HETATM   18  C   UNL     1       9.740  31.949  60.876  1.00  0.00     0.010 A 
HETATM   19  C   UNL     1      10.202  31.985  59.561  1.00  0.00     0.003 A 
HETATM   20  C   UNL     1       9.466  31.370  58.546  1.00  0.00     0.029 A 
BRANCH  17  21
HETATM   21  C   UNL     1       8.019  31.232  62.610  1.00  0.00     0.147 C 
HETATM   22  C   UNL     1       8.030  32.601  63.280  1.00  0.00     0.044 C 
BRANCH  21  23
HETATM   23  O   UNL     1       6.688  30.717  62.626  1.00  0.00    -0.391 OA
HETATM   24  H   UNL     1       6.689  29.954  63.225  1.00  0.00     0.210 HD
ENDBRANCH  21  23
ENDBRANCH  17  21
ENDBRANCH  12  15
ENDBRANCH   1  11
BRANCH   4  25
HETATM   25  C   UNL     1       4.837  27.419  52.253  1.00  0.00     0.409 C 
HETATM   26  F   UNL     1       5.876  28.233  51.961  1.00  0.00    -0.169 F 
HETATM   27  F   UNL     1       4.814  26.462  51.284  1.00  0.00    -0.169 F 
HETATM   28  F   UNL     1       3.691  28.116  52.112  1.00  0.00    -0.169 F 
ENDBRANCH   4  25
BRANCH   6  29
HETATM   29  C   UNL     1       7.247  23.851  54.848  1.00  0.00    -0.035 A 
HETATM   30  C   UNL     1       7.733  23.255  56.023  1.00  0.00     0.009 A 
HETATM   31  C   UNL     1       8.612  22.172  55.962  1.00  0.00     0.001 A 
HETATM   32  C   UNL     1       9.018  21.671  54.728  1.00  0.00     0.000 A 
HETATM   33  C   UNL     1       8.543  22.247  53.553  1.00  0.00     0.001 A 
HETATM   34  C   UNL     1       7.661  23.330  53.612  1.00  0.00     0.009 A 
ENDBRANCH   6  29
TORSDOF 6
ENDMDL
MODEL 2
REMARK VINA RESULT:     -10.0      1.388      1.990
REMARK  6 active torsions:
REMARK  status: ('A' for Active; 'I' for Inactive)
REMARK    1  A    between atoms: C_2  and  O_3 
REMARK    2  A    between atoms: C_2  and  C_4 
REMARK    3  A    between atoms: C_6  and  N_7 
REMARK       I    between atoms: N_7  and  C_8 
REMARK    4  A    between atoms: C_8  and  C_9 
REMARK    5  A    between atoms: C_12  and  C_13 
REMARK    6  A    between atoms: C_18  and  C_19 
ROOT
HETATM    1  C   UNL     1       5.507  28.276  55.319  1.00  0.00     0.096 A 
HETATM    2  C   UNL     1       5.613  27.090  54.616  1.00  0.00     0.138 A 
HETATM    3  N   UNL     1       4.952  27.298  53.425  1.00  0.00    -0.240 N 
HETATM    4  C   UNL     1       4.873  26.323  52.350  1.00  0.00     0.221 C 
HETATM    5  C   UNL     1       5.986  25.269  52.512  1.00  0.00     0.066 C 
HETATM    6  C   UNL     1       6.030  24.775  53.962  1.00  0.00     0.118 C 
HETATM    7  N   UNL     1       6.235  25.907  54.868  1.00  0.00    -0.365 N 
HETATM    8  N   UNL     1       4.347  28.491  53.347  1.00  0.00    -0.181 NA
HETATM    9  C   UNL     1       4.725  29.102  54.474  1.00  0.00     0.160 A 
HETATM   10  H   UNL     1       7.114  25.887  55.388  1.00  0.00     0.161 HD
ENDROOT
BRANCH   1  11
HETATM   11  C   UNL     1       6.037  28.644  56.623  1.00  0.00     0.261 C 
HETATM   12  N   UNL     1       6.116  30.009  56.823  1.00  0.00    -0.323 N 
HETATM   13  H   UNL     1       5.919  30.577  56.006  1.00  0.00     0.169 HD
HETATM   14  O   UNL     1       6.388  27.777  57.414  1.00  0.00    -0.267 OA
BRANCH  12  15
HETATM   15  C   UNL     1       6.490  30.694  57.995  1.00  0.00     0.035 A 
HETATM   16  C   UNL     1       7.614  30.369  58.760  1.00  0.00     0.039 A 
HETATM   17  C   UNL     1       7.925  31.079  59.936  1.00  0.00    -0.028 A 
HETATM   18  C   UNL     1       7.090  32.133  60.326  1.00  0.00     0.010 A 
HETATM   19  C   UNL     1       5.964  32.461  59.573  1.00  0.00     0.003 A 
HETATM   20  C   UNL     1       5.666  31.743  58.413  1.00  0.00     0.029 A 
BRANCH  17  21
HETATM   21  C   UNL     1       9.165  30.711  60.720  1.00  0.00     0.147 C 
HETATM   22  C   UNL     1       9.791  31.935  61.380  1.00  0.00     0.044 C 
BRANCH  21  23
HETATM   23  O   UNL     1       8.848  29.751  61.727  1.00  0.00    -0.391 OA
HETATM   24  H   UNL     1       8.822  28.884  61.291  1.00  0.00     0.210 HD
ENDBRANCH  21  23
ENDBRANCH  17  21
ENDBRANCH  12  15
ENDBRANCH   1  11
BRANCH   4  25
HETATM   25  C   UNL     1       4.983  26.962  50.980  1.00  0.00     0.409 C 
HETATM   26  F   UNL     1       5.990  27.862  50.908  1.00  0.00    -0.169 F 
HETATM   27  F   UNL     1       5.260  26.000  50.057  1.00  0.00    -0.169 F 
HETATM   28  F   UNL     1       3.845  27.555  50.566  1.00  0.00    -0.169 F 
ENDBRANCH   4  25
BRANCH   6  29
HETATM   29  C   UNL     1       7.100  23.726  54.192  1.00  0.00    -0.035 A 
HETATM   30  C   UNL     1       7.576  22.914  53.149  1.00  0.00     0.009 A 
HETATM   31  C   UNL     1       8.562  21.955  53.385  1.00  0.00     0.001 A 
HETATM   32  C   UNL     1       9.087  21.794  54.665  1.00  0.00     0.000 A 
HETATM   33  C   UNL     1       8.630  22.593  55.710  1.00  0.00     0.001 A 
HETATM   34  C   UNL     1       7.645  23.555  55.475  1.00  0.00     0.009 A 
ENDBRANCH   6  29
TORSDOF 6
ENDMDL
MODEL 3
REMARK VINA RESULT:      -9.8      2.899      5.028
REMARK  6 active torsions:
REMARK  status: ('A' for Active; 'I' for Inactive)
REMARK    1  A    between atoms: C_2  and  O_3 
REMARK    2  A    between atoms: C_2  and  C_4 
REMARK    3  A    between atoms: C_6  and  N_7 
REMARK       I    between atoms: N_7  and  C_8 
REMARK    4  A    between atoms: C_8  and  C_9 
REMARK    5  A    between atoms: C_12  and  C_13 
REMARK    6  A    between atoms: C_18  and  C_19 
ROOT
HETATM    1  C   UNL     1       8.201  25.358  56.647  1.00  0.00     0.096 A 
HETATM    2  C   UNL     1       7.973  25.205  55.291  1.00  0.00     0.138 A 
HETATM    3  N   UNL     1       8.460  23.957  54.967  1.00  0.00    -0.240 N 
HETATM    4  C   UNL     1       8.366  23.358  53.646  1.00  0.00     0.221 C 
HETATM    5  C   UNL     1       7.268  24.064  52.825  1.00  0.00     0.066 C 
HETATM    6  C   UNL     1       7.424  25.584  52.942  1.00  0.00     0.118 C 
HETATM    7  N   UNL     1       7.372  25.982  54.351  1.00  0.00    -0.365 N 
HETATM    8  N   UNL     1       9.069  23.337  55.986  1.00  0.00    -0.181 NA
HETATM    9  C   UNL     1       8.869  24.164  57.015  1.00  0.00     0.160 A 
HETATM   10  H   UNL     1       6.577  26.572  54.601  1.00  0.00     0.161 HD
ENDROOT
BRANCH   1  11
HETATM   11  C   UNL     1       7.871  26.463  57.533  1.00  0.00     0.261 C 
HETATM   12  N   UNL     1       7.969  27.704  56.930  1.00  0.00    -0.323 N 
HETATM   13  H   UNL     1       8.373  27.700  56.000  1.00  0.00     0.169 HD
HETATM   14  O   UNL     1       7.570  26.251  58.702  1.00  0.00    -0.267 OA
BRANCH  12  15
HETATM   15  C   UNL     1       7.633  28.959  57.471  1.00  0.00     0.035 A 
HETATM   16  C   UNL     1       8.534  29.777  58.159  1.00  0.00     0.039 A 
HETATM   17  C   UNL     1       8.132  31.015  58.695  1.00  0.00    -0.028 A 
HETATM   18  C   UNL     1       6.805  31.426  58.519  1.00  0.00     0.010 A 
HETATM   19  C   UNL     1       5.898  30.617  57.839  1.00  0.00     0.003 A 
HETATM   20  C   UNL     1       6.310  29.388  57.319  1.00  0.00     0.029 A 
BRANCH  17  21
HETATM   21  C   UNL     1       9.147  31.880  59.410  1.00  0.00     0.147 C 
HETATM   22  C   UNL     1       9.533  31.285  60.760  1.00  0.00     0.044 C 
BRANCH  21  23
HETATM   23  O   UNL     1      10.322  32.028  58.614  1.00  0.00    -0.391 OA
HETATM   24  H   UNL     1      10.820  32.775  58.982  1.00  0.00     0.210 HD
ENDBRANCH  21  23
ENDBRANCH  17  21
ENDBRANCH  12  15
ENDBRANCH   1  11
BRANCH   4  25
HETATM   25  C   UNL     1       8.071  21.872  53.704  1.00  0.00     0.409 C 
HETATM   26  F   UNL     1       7.275  21.542  54.746  1.00  0.00    -0.169 F 
HETATM   27  F   UNL     1       7.402  21.503  52.577  1.00  0.00    -0.169 F 
HETATM   28  F   UNL     1       9.178  21.103  53.747  1.00  0.00    -0.169 F 
ENDBRANCH   4  25
BRANCH   6  29
HETATM   29  C   UNL     1       6.378  26.343  52.150  1.00  0.00    -0.035 A 
HETATM   30  C   UNL     1       5.718  25.765  51.053  1.00  0.00     0.009 A 
HETATM   31  C   UNL     1       4.758  26.485  50.339  1.00  0.00     0.001 A 
HETATM   32  C   UNL     1       4.445  27.791  50.709  1.00  0.00     0.000 A 
HETATM   33  C   UNL     1       5.087  28.377  51.797  1.00  0.00     0.001 A 
HETATM   34  C   UNL     1       6.046  27.658  52.514  1.00  0.00     0.009 A 
ENDBRANCH   6  29
TORSDOF 6
ENDMDL
MODEL 4
REMARK VINA RESULT:      -9.6      4.354      9.572
REMARK  6 active torsions:
REMARK  status: ('A' for Active; 'I' for Inactive)
REMARK    1  A    between atoms: C_2  and  O_3 
REMARK    2  A    between atoms: C_2  and  C_4 
REMARK    3  A    between atoms: C_6  and  N_7 
REMARK       I    between atoms: N_7  and  C_8 
REMARK    4  A    between atoms: C_8  and  C_9 
REMARK    5  A    between atoms: C_12  and  C_13 
REMARK    6  A    between atoms: C_18  and  C_19 
ROOT
HETATM    1  C   UNL     1       5.725  25.719  53.432  1.00  0.00     0.096 A 
HETATM    2  C   UNL     1       6.104  26.000  54.732  1.00  0.00     0.138 A 
HETATM    3  N   UNL     1       6.679  24.845  55.214  1.00  0.00    -0.240 N 
HETATM    4  C   UNL     1       7.281  24.717  56.532  1.00  0.00     0.221 C 
HETATM    5  C   UNL     1       7.611  26.112  57.098  1.00  0.00     0.066 C 
HETATM    6  C   UNL     1       6.411  27.047  56.917  1.00  0.00     0.118 C 
HETATM    7  N   UNL     1       6.047  27.122  55.499  1.00  0.00    -0.365 N 
HETATM    8  N   UNL     1       6.613  23.815  54.361  1.00  0.00    -0.181 NA
HETATM    9  C   UNL     1       6.079  24.358  53.263  1.00  0.00     0.160 A 
HETATM   10  H   UNL     1       6.162  28.044  55.075  1.00  0.00     0.161 HD
ENDROOT
BRANCH   1  11
HETATM   11  C   UNL     1       5.096  26.570  52.434  1.00  0.00     0.261 C 
HETATM   12  N   UNL     1       5.389  26.206  51.133  1.00  0.00    -0.323 N 
HETATM   13  H   UNL     1       6.094  25.484  51.035  1.00  0.00     0.169 HD
HETATM   14  O   UNL     1       4.405  27.522  52.779  1.00  0.00    -0.267 OA
BRANCH  12  15
HETATM   15  C   UNL     1       4.873  26.754  49.943  1.00  0.00     0.035 A 
HETATM   16  C   UNL     1       3.837  26.174  49.205  1.00  0.00     0.039 A 
HETATM   17  C   UNL     1       3.378  26.759  48.009  1.00  0.00    -0.028 A 
HETATM   18  C   UNL     1       3.973  27.948  47.570  1.00  0.00     0.010 A 
HETATM   19  C   UNL     1       5.009  28.532  48.296  1.00  0.00     0.003 A 
HETATM   20  C   UNL     1       5.458  27.935  49.476  1.00  0.00     0.029 A 
BRANCH  17  21
HETATM   21  C   UNL     1       2.236  26.112  47.255  1.00  0.00     0.147 C 
HETATM   22  C   UNL     1       1.215  27.146  46.795  1.00  0.00     0.044 C 
BRANCH  21  23
HETATM   23  O   UNL     1       2.730  25.407  46.117  1.00  0.00    -0.391 OA
HETATM   24  H   UNL     1       2.650  24.461  46.315  1.00  0.00     0.210 HD
ENDBRANCH  21  23
ENDBRANCH  17  21
ENDBRANCH  12  15
ENDBRANCH   1  11
BRANCH   4  25
HETATM   25  C   UNL     1       8.539  23.872  56.513  1.00  0.00     0.409 C 
HETATM   26  F   UNL     1       9.108  23.817  55.289  1.00  0.00    -0.169 F 
HETATM   27  F   UNL     1       9.465  24.428  57.343  1.00  0.00    -0.169 F 
HETATM   28  F   UNL     1       8.352  22.613  56.959  1.00  0.00    -0.169 F 
ENDBRANCH   4  25
BRANCH   6  29
HETATM   29  C   UNL     1       6.664  28.439  57.460  1.00  0.00    -0.035 A 
HETATM   30  C   UNL     1       5.697  29.455  57.371  1.00  0.00     0.009 A 
HETATM   31  C   UNL     1       5.953  30.729  57.878  1.00  0.00     0.001 A 
HETATM   32  C   UNL     1       7.178  31.008  58.482  1.00  0.00     0.000 A 
HETATM   33  C   UNL     1       8.146  30.012  58.583  1.00  0.00     0.001 A 
HETATM   34  C   UNL     1       7.890  28.735  58.077  1.00  0.00     0.009 A 
ENDBRANCH   6  29
TORSDOF 6
ENDMDL
MODEL 5
REMARK VINA RESULT:      -9.3      3.125      5.273
REMARK  6 active torsions:
REMARK  status: ('A' for Active; 'I' for Inactive)
REMARK    1  A    between atoms: C_2  and  O_3 
REMARK    2  A    between atoms: C_2  and  C_4 
REMARK    3  A    between atoms: C_6  and  N_7 
REMARK       I    between atoms: N_7  and  C_8 
REMARK    4  A    between atoms: C_8  and  C_9 
REMARK    5  A    between atoms: C_12  and  C_13 
REMARK    6  A    between atoms: C_18  and  C_19 
ROOT
HETATM    1  C   UNL     1       8.154  25.231  56.620  1.00  0.00     0.096 A 
HETATM    2  C   UNL     1       7.946  25.098  55.259  1.00  0.00     0.138 A 
HETATM    3  N   UNL     1       8.445  23.860  54.921  1.00  0.00    -0.240 N 
HETATM    4  C   UNL     1       8.372  23.282  53.589  1.00  0.00     0.221 C 
HETATM    5  C   UNL     1       7.281  23.995  52.765  1.00  0.00     0.066 C 
HETATM    6  C   UNL     1       7.426  25.513  52.909  1.00  0.00     0.118 C 
HETATM    7  N   UNL     1       7.353  25.888  54.324  1.00  0.00    -0.365 N 
HETATM    8  N   UNL     1       9.043  23.226  55.938  1.00  0.00    -0.181 NA
HETATM    9  C   UNL     1       8.823  24.035  56.978  1.00  0.00     0.160 A 
HETATM   10  H   UNL     1       6.550  26.469  54.572  1.00  0.00     0.161 HD
ENDROOT
BRANCH   1  11
HETATM   11  C   UNL     1       7.805  26.319  57.520  1.00  0.00     0.261 C 
HETATM   12  N   UNL     1       7.739  27.551  56.897  1.00  0.00    -0.323 N 
HETATM   13  H   UNL     1       8.059  27.566  55.935  1.00  0.00     0.169 HD
HETATM   14  O   UNL     1       7.627  26.102  58.713  1.00  0.00    -0.267 OA
BRANCH  12  15
HETATM   15  C   UNL     1       7.341  28.782  57.452  1.00  0.00     0.035 A 
HETATM   16  C   UNL     1       6.032  29.270  57.403  1.00  0.00     0.039 A 
HETATM   17  C   UNL     1       5.698  30.520  57.959  1.00  0.00    -0.028 A 
HETATM   18  C   UNL     1       6.705  31.272  58.577  1.00  0.00     0.010 A 
HETATM   19  C   UNL     1       8.014  30.797  58.627  1.00  0.00     0.003 A 
HETATM   20  C   UNL     1       8.329  29.558  58.065  1.00  0.00     0.029 A 
BRANCH  17  21
HETATM   21  C   UNL     1       4.263  30.998  57.906  1.00  0.00     0.147 C 
HETATM   22  C   UNL     1       3.669  30.823  56.513  1.00  0.00     0.044 C 
BRANCH  21  23
HETATM   23  O   UNL     1       3.466  30.279  58.845  1.00  0.00    -0.391 OA
HETATM   24  H   UNL     1       4.073  29.736  59.372  1.00  0.00     0.210 HD
ENDBRANCH  21  23
ENDBRANCH  17  21
ENDBRANCH  12  15
ENDBRANCH   1  11
BRANCH   4  25
HETATM   25  C   UNL     1       8.086  21.794  53.619  1.00  0.00     0.409 C 
HETATM   26  F   UNL     1       7.304  21.437  54.662  1.00  0.00    -0.169 F 
HETATM   27  F   UNL     1       7.404  21.446  52.492  1.00  0.00    -0.169 F 
HETATM   28  F   UNL     1       9.196  21.029  53.630  1.00  0.00    -0.169 F 
ENDBRANCH   4  25
BRANCH   6  29
HETATM   29  C   UNL     1       6.387  26.280  52.116  1.00  0.00    -0.035 A 
HETATM   30  C   UNL     1       5.736  25.712  51.008  1.00  0.00     0.009 A 
HETATM   31  C   UNL     1       4.783  26.438  50.292  1.00  0.00     0.001 A 
HETATM   32  C   UNL     1       4.467  27.740  50.671  1.00  0.00     0.000 A 
HETATM   33  C   UNL     1       5.099  28.317  51.770  1.00  0.00     0.001 A 
HETATM   34  C   UNL     1       6.052  27.592  52.489  1.00  0.00     0.009 A 
ENDBRANCH   6  29
TORSDOF 6
ENDMDL
MODEL 6
REMARK VINA RESULT:      -9.2      6.608     12.058
REMARK  6 active torsions:
REMARK  status: ('A' for Active; 'I' for Inactive)
REMARK    1  A    between atoms: C_2  and  O_3 
REMARK    2  A    between atoms: C_2  and  C_4 
REMARK    3  A    between atoms: C_6  and  N_7 
REMARK       I    between atoms: N_7  and  C_8 
REMARK    4  A    between atoms: C_8  and  C_9 
REMARK    5  A    between atoms: C_12  and  C_13 
REMARK    6  A    between atoms: C_18  and  C_19 
ROOT
HETATM    1  C   UNL     1       5.841  32.909  62.048  1.00  0.00     0.096 A 
HETATM    2  C   UNL     1       5.623  34.130  62.661  1.00  0.00     0.138 A 
HETATM    3  N   UNL     1       5.121  33.839  63.911  1.00  0.00    -0.240 N 
HETATM    4  C   UNL     1       4.812  34.837  64.922  1.00  0.00     0.221 C 
HETATM    5  C   UNL     1       5.547  36.154  64.604  1.00  0.00     0.066 C 
HETATM    6  C   UNL     1       5.360  36.512  63.126  1.00  0.00     0.118 C 
HETATM    7  N   UNL     1       5.846  35.417  62.283  1.00  0.00    -0.365 N 
HETATM    8  N   UNL     1       4.909  32.533  64.114  1.00  0.00    -0.181 NA
HETATM    9  C   UNL     1       5.390  31.965  63.004  1.00  0.00     0.160 A 
HETATM   10  H   UNL     1       6.649  35.651  61.696  1.00  0.00     0.161 HD
ENDROOT
BRANCH   1  11
HETATM   11  C   UNL     1       6.384  32.603  60.734  1.00  0.00     0.261 C 
HETATM   12  N   UNL     1       7.520  31.817  60.774  1.00  0.00    -0.323 N 
HETATM   13  H   UNL     1       7.901  31.657  61.700  1.00  0.00     0.169 HD
HETATM   14  O   UNL     1       5.854  33.055  59.725  1.00  0.00    -0.267 OA
BRANCH  12  15
HETATM   15  C   UNL     1       8.233  31.267  59.692  1.00  0.00     0.035 A 
HETATM   16  C   UNL     1       7.780  30.185  58.932  1.00  0.00     0.039 A 
HETATM   17  C   UNL     1       8.549  29.666  57.873  1.00  0.00    -0.028 A 
HETATM   18  C   UNL     1       9.782  30.261  57.581  1.00  0.00     0.010 A 
HETATM   19  C   UNL     1      10.245  31.338  58.336  1.00  0.00     0.003 A 
HETATM   20  C   UNL     1       9.473  31.837  59.388  1.00  0.00     0.029 A 
BRANCH  17  21
HETATM   21  C   UNL     1       8.010  28.509  57.060  1.00  0.00     0.147 C 
HETATM   22  C   UNL     1       8.235  28.724  55.567  1.00  0.00     0.044 C 
BRANCH  21  23
HETATM   23  O   UNL     1       8.638  27.290  57.454  1.00  0.00    -0.391 OA
HETATM   24  H   UNL     1       9.092  27.466  58.293  1.00  0.00     0.210 HD
ENDBRANCH  21  23
ENDBRANCH  17  21
ENDBRANCH  12  15
ENDBRANCH   1  11
BRANCH   4  25
HETATM   25  C   UNL     1       5.184  34.379  66.318  1.00  0.00     0.409 C 
HETATM   26  F   UNL     1       6.396  33.780  66.362  1.00  0.00    -0.169 F 
HETATM   27  F   UNL     1       5.263  35.463  67.140  1.00  0.00    -0.169 F 
HETATM   28  F   UNL     1       4.276  33.555  66.878  1.00  0.00    -0.169 F 
ENDBRANCH   4  25
BRANCH   6  29
HETATM   29  C   UNL     1       6.052  37.806  62.744  1.00  0.00    -0.035 A 
HETATM   30  C   UNL     1       6.359  38.113  61.408  1.00  0.00     0.009 A 
HETATM   31  C   UNL     1       6.997  39.311  61.080  1.00  0.00     0.001 A 
HETATM   32  C   UNL     1       7.338  40.217  62.081  1.00  0.00     0.000 A 
HETATM   33  C   UNL     1       7.038  39.930  63.411  1.00  0.00     0.001 A 
HETATM   34  C   UNL     1       6.398  38.733  63.740  1.00  0.00     0.009 A 
ENDBRANCH   6  29
TORSDOF 6
ENDMDL
MODEL 7
REMARK VINA RESULT:      -8.9      2.725      4.647
REMARK  6 active torsions:
REMARK  status: ('A' for Active; 'I' for Inactive)
REMARK    1  A    between atoms: C_2  and  O_3 
REMARK    2  A    between atoms: C_2  and  C_4 
REMARK    3  A    between atoms: C_6  and  N_7 
REMARK       I    between atoms: N_7  and  C_8 
REMARK    4  A    between atoms: C_8  and  C_9 
REMARK    5  A    between atoms: C_12  and  C_13 
REMARK    6  A    between atoms: C_18  and  C_19 
ROOT
HETATM    1  C   UNL     1       7.758  26.429  56.683  1.00  0.00     0.096 A 
HETATM    2  C   UNL     1       7.607  26.047  55.362  1.00  0.00     0.138 A 
HETATM    3  N   UNL     1       8.130  24.776  55.277  1.00  0.00    -0.240 N 
HETATM    4  C   UNL     1       8.117  23.963  54.071  1.00  0.00     0.221 C 
HETATM    5  C   UNL     1       7.056  24.496  53.089  1.00  0.00     0.066 C 
HETATM    6  C   UNL     1       7.181  26.017  52.958  1.00  0.00     0.118 C 
HETATM    7  N   UNL     1       7.047  26.643  54.276  1.00  0.00    -0.365 N 
HETATM    8  N   UNL     1       8.692  24.348  56.415  1.00  0.00    -0.181 NA
HETATM    9  C   UNL     1       8.423  25.330  57.280  1.00  0.00     0.160 A 
HETATM   10  H   UNL     1       6.230  27.247  54.382  1.00  0.00     0.161 HD
ENDROOT
BRANCH   1  11
HETATM   11  C   UNL     1       7.363  27.658  57.354  1.00  0.00     0.261 C 
HETATM   12  N   UNL     1       8.432  28.428  57.772  1.00  0.00    -0.323 N 
HETATM   13  H   UNL     1       9.342  27.991  57.674  1.00  0.00     0.169 HD
HETATM   14  O   UNL     1       6.177  27.915  57.527  1.00  0.00    -0.267 OA
BRANCH  12  15
HETATM   15  C   UNL     1       8.403  29.706  58.361  1.00  0.00     0.035 A 
HETATM   16  C   UNL     1       7.226  30.376  58.707  1.00  0.00     0.039 A 
HETATM   17  C   UNL     1       7.261  31.664  59.276  1.00  0.00    -0.028 A 
HETATM   18  C   UNL     1       8.504  32.266  59.504  1.00  0.00     0.010 A 
HETATM   19  C   UNL     1       9.683  31.608  59.159  1.00  0.00     0.003 A 
HETATM   20  C   UNL     1       9.631  30.334  58.589  1.00  0.00     0.029 A 
BRANCH  17  21
HETATM   21  C   UNL     1       5.963  32.342  59.658  1.00  0.00     0.147 C 
HETATM   22  C   UNL     1       4.857  32.036  58.654  1.00  0.00     0.044 C 
BRANCH  21  23
HETATM   23  O   UNL     1       5.544  31.918  60.955  1.00  0.00    -0.391 OA
HETATM   24  H   UNL     1       5.240  31.001  60.866  1.00  0.00     0.210 HD
ENDBRANCH  21  23
ENDBRANCH  17  21
ENDBRANCH  12  15
ENDBRANCH   1  11
BRANCH   4  25
HETATM   25  C   UNL     1       7.843  22.501  54.362  1.00  0.00     0.409 C 
HETATM   26  F   UNL     1       6.957  22.330  55.369  1.00  0.00    -0.169 F 
HETATM   27  F   UNL     1       7.290  21.921  53.261  1.00  0.00    -0.169 F 
HETATM   28  F   UNL     1       8.953  21.787  54.639  1.00  0.00    -0.169 F 
ENDBRANCH   4  25
BRANCH   6  29
HETATM   29  C   UNL     1       6.169  26.610  51.998  1.00  0.00    -0.035 A 
HETATM   30  C   UNL     1       5.616  25.855  50.949  1.00  0.00     0.009 A 
HETATM   31  C   UNL     1       4.685  26.422  50.077  1.00  0.00     0.001 A 
HETATM   32  C   UNL     1       4.295  27.750  50.238  1.00  0.00     0.000 A 
HETATM   33  C   UNL     1       4.831  28.511  51.274  1.00  0.00     0.001 A 
HETATM   34  C   UNL     1       5.760  27.944  52.150  1.00  0.00     0.009 A 
ENDBRANCH   6  29
TORSDOF 6
ENDMDL
MODEL 8
REMARK VINA RESULT:      -8.9      4.411      7.721
REMARK  6 active torsions:
REMARK  status: ('A' for Active; 'I' for Inactive)
REMARK    1  A    between atoms: C_2  and  O_3 
REMARK    2  A    between atoms: C_2  and  C_4 
REMARK    3  A    between atoms: C_6  and  N_7 
REMARK       I    between atoms: N_7  and  C_8 
REMARK    4  A    between atoms: C_8  and  C_9 
REMARK    5  A    between atoms: C_12  and  C_13 
REMARK    6  A    between atoms: C_18  and  C_19 
ROOT
HETATM    1  C   UNL     1       5.528  27.447  54.857  1.00  0.00     0.096 A 
HETATM    2  C   UNL     1       4.844  27.937  53.760  1.00  0.00     0.138 A 
HETATM    3  N   UNL     1       4.062  28.968  54.233  1.00  0.00    -0.240 N 
HETATM    4  C   UNL     1       3.223  29.811  53.397  1.00  0.00     0.221 C 
HETATM    5  C   UNL     1       3.682  29.718  51.928  1.00  0.00     0.066 C 
HETATM    6  C   UNL     1       3.886  28.251  51.536  1.00  0.00     0.118 C 
HETATM    7  N   UNL     1       4.858  27.626  52.436  1.00  0.00    -0.365 N 
HETATM    8  N   UNL     1       4.117  29.117  55.563  1.00  0.00    -0.181 NA
HETATM    9  C   UNL     1       5.042  28.228  55.935  1.00  0.00     0.160 A 
HETATM   10  H   UNL     1       5.723  27.320  51.986  1.00  0.00     0.161 HD
ENDROOT
BRANCH   1  11
HETATM   11  C   UNL     1       6.511  26.378  54.949  1.00  0.00     0.261 C 
HETATM   12  N   UNL     1       6.057  25.167  54.462  1.00  0.00    -0.323 N 
HETATM   13  H   UNL     1       5.072  25.140  54.222  1.00  0.00     0.169 HD
HETATM   14  O   UNL     1       7.610  26.590  55.448  1.00  0.00    -0.267 OA
BRANCH  12  15
HETATM   15  C   UNL     1       6.778  23.966  54.317  1.00  0.00     0.035 A 
HETATM   16  C   UNL     1       7.113  23.126  55.383  1.00  0.00     0.039 A 
HETATM   17  C   UNL     1       7.854  21.947  55.176  1.00  0.00    -0.028 A 
HETATM   18  C   UNL     1       8.246  21.618  53.874  1.00  0.00     0.010 A 
HETATM   19  C   UNL     1       7.921  22.451  52.804  1.00  0.00     0.003 A 
HETATM   20  C   UNL     1       7.191  23.620  53.027  1.00  0.00     0.029 A 
BRANCH  17  21
HETATM   21  C   UNL     1       8.173  21.054  56.356  1.00  0.00     0.147 C 
HETATM   22  C   UNL     1       9.440  20.241  56.112  1.00  0.00     0.044 C 
BRANCH  21  23
HETATM   23  O   UNL     1       8.341  21.834  57.538  1.00  0.00    -0.391 OA
HETATM   24  H   UNL     1       9.070  22.452  57.366  1.00  0.00     0.210 HD
ENDBRANCH  21  23
ENDBRANCH  17  21
ENDBRANCH  12  15
ENDBRANCH   1  11
BRANCH   4  25
HETATM   25  C   UNL     1       3.240  31.261  53.837  1.00  0.00     0.409 C 
HETATM   26  F   UNL     1       4.480  31.691  54.158  1.00  0.00    -0.169 F 
HETATM   27  F   UNL     1       2.814  32.047  52.809  1.00  0.00    -0.169 F 
HETATM   28  F   UNL     1       2.413  31.523  54.870  1.00  0.00    -0.169 F 
ENDBRANCH   4  25
BRANCH   6  29
HETATM   29  C   UNL     1       4.331  28.085  50.096  1.00  0.00    -0.035 A 
HETATM   30  C   UNL     1       4.718  29.184  49.311  1.00  0.00     0.009 A 
HETATM   31  C   UNL     1       5.124  29.007  47.988  1.00  0.00     0.001 A 
HETATM   32  C   UNL     1       5.148  27.731  47.429  1.00  0.00     0.000 A 
HETATM   33  C   UNL     1       4.771  26.630  48.194  1.00  0.00     0.001 A 
HETATM   34  C   UNL     1       4.367  26.805  49.520  1.00  0.00     0.009 A 
ENDBRANCH   6  29
TORSDOF 6
ENDMDL
MODEL 9
REMARK VINA RESULT:      -8.8      5.056      8.700
REMARK  6 active torsions:
REMARK  status: ('A' for Active; 'I' for Inactive)
REMARK    1  A    between atoms: C_2  and  O_3 
REMARK    2  A    between atoms: C_2  and  C_4 
REMARK    3  A    between atoms: C_6  and  N_7 
REMARK       I    between atoms: N_7  and  C_8 
REMARK    4  A    between atoms: C_8  and  C_9 
REMARK    5  A    between atoms: C_12  and  C_13 
REMARK    6  A    between atoms: C_18  and  C_19 
ROOT
HETATM    1  C   UNL     1       4.912  26.309  51.247  1.00  0.00     0.096 A 
HETATM    2  C   UNL     1       4.572  27.641  51.403  1.00  0.00     0.138 A 
HETATM    3  N   UNL     1       4.281  28.105  50.139  1.00  0.00    -0.240 N 
HETATM    4  C   UNL     1       3.810  29.449  49.848  1.00  0.00     0.221 C 
HETATM    5  C   UNL     1       3.239  30.095  51.126  1.00  0.00     0.066 C 
HETATM    6  C   UNL     1       4.206  29.884  52.295  1.00  0.00     0.118 C 
HETATM    7  N   UNL     1       4.449  28.452  52.488  1.00  0.00    -0.365 N 
HETATM    8  N   UNL     1       4.500  27.205  49.172  1.00  0.00    -0.181 NA
HETATM    9  C   UNL     1       4.835  26.102  49.848  1.00  0.00     0.160 A 
HETATM   10  H   UNL     1       4.119  28.077  53.378  1.00  0.00     0.161 HD
ENDROOT
BRANCH   1  11
HETATM   11  C   UNL     1       5.284  25.314  52.241  1.00  0.00     0.261 C 
HETATM   12  N   UNL     1       6.643  25.068  52.295  1.00  0.00    -0.323 N 
HETATM   13  H   UNL     1       7.190  25.508  51.564  1.00  0.00     0.169 HD
HETATM   14  O   UNL     1       4.423  24.761  52.915  1.00  0.00    -0.267 OA
BRANCH  12  15
HETATM   15  C   UNL     1       7.339  24.243  53.198  1.00  0.00     0.035 A 
HETATM   16  C   UNL     1       7.712  22.925  52.919  1.00  0.00     0.039 A 
HETATM   17  C   UNL     1       8.391  22.142  53.872  1.00  0.00    -0.028 A 
HETATM   18  C   UNL     1       8.699  22.710  55.114  1.00  0.00     0.010 A 
HETATM   19  C   UNL     1       8.328  24.022  55.404  1.00  0.00     0.003 A 
HETATM   20  C   UNL     1       7.649  24.783  54.450  1.00  0.00     0.029 A 
BRANCH  17  21
HETATM   21  C   UNL     1       8.798  20.728  53.519  1.00  0.00     0.147 C 
HETATM   22  C   UNL     1       8.889  19.847  54.760  1.00  0.00     0.044 C 
BRANCH  21  23
HETATM   23  O   UNL     1       7.860  20.154  52.609  1.00  0.00    -0.391 OA
HETATM   24  H   UNL     1       6.988  20.512  52.841  1.00  0.00     0.210 HD
ENDBRANCH  21  23
ENDBRANCH  17  21
ENDBRANCH  12  15
ENDBRANCH   1  11
BRANCH   4  25
HETATM   25  C   UNL     1       2.754  29.469  48.760  1.00  0.00     0.409 C 
HETATM   26  F   UNL     1       1.803  28.526  48.944  1.00  0.00    -0.169 F 
HETATM   27  F   UNL     1       2.112  30.671  48.780  1.00  0.00    -0.169 F 
HETATM   28  F   UNL     1       3.256  29.339  47.516  1.00  0.00    -0.169 F 
ENDBRANCH   4  25
BRANCH   6  29
HETATM   29  C   UNL     1       3.709  30.503  53.586  1.00  0.00    -0.035 A 
HETATM   30  C   UNL     1       2.971  31.699  53.597  1.00  0.00     0.009 A 
HETATM   31  C   UNL     1       2.524  32.250  54.799  1.00  0.00     0.001 A 
HETATM   32  C   UNL     1       2.808  31.617  56.006  1.00  0.00     0.000 A 
HETATM   33  C   UNL     1       3.535  30.429  56.014  1.00  0.00     0.001 A 
HETATM   34  C   UNL     1       3.981  29.874  54.812  1.00  0.00     0.009 A 
ENDBRANCH   6  29
TORSDOF 6
ENDMDL
MODEL 10
REMARK VINA RESULT:      -8.7      4.632      7.879
REMARK  6 active torsions:
REMARK  status: ('A' for Active; 'I' for Inactive)
REMARK    1  A    between atoms: C_2  and  O_3 
REMARK    2  A    between atoms: C_2  and  C_4 
REMARK    3  A    between atoms: C_6  and  N_7 
REMARK       I    between atoms: N_7  and  C_8 
REMARK    4  A    between atoms: C_8  and  C_9 
REMARK    5  A    between atoms: C_12  and  C_13 
REMARK    6  A    between atoms: C_18  and  C_19 
ROOT
HETATM    1  C   UNL     1       4.976  26.291  51.474  1.00  0.00     0.096 A 
HETATM    2  C   UNL     1       4.605  27.615  51.625  1.00  0.00     0.138 A 
HETATM    3  N   UNL     1       4.285  28.062  50.362  1.00  0.00    -0.240 N 
HETATM    4  C   UNL     1       3.776  29.391  50.066  1.00  0.00     0.221 C 
HETATM    5  C   UNL     1       3.207  30.033  51.347  1.00  0.00     0.066 C 
HETATM    6  C   UNL     1       4.195  29.856  52.504  1.00  0.00     0.118 C 
HETATM    7  N   UNL     1       4.477  28.432  52.704  1.00  0.00    -0.365 N 
HETATM    8  N   UNL     1       4.513  27.159  49.399  1.00  0.00    -0.181 NA
HETATM    9  C   UNL     1       4.885  26.070  50.078  1.00  0.00     0.160 A 
HETATM   10  H   UNL     1       4.169  28.056  53.603  1.00  0.00     0.161 HD
ENDROOT
BRANCH   1  11
HETATM   11  C   UNL     1       5.387  25.314  52.471  1.00  0.00     0.261 C 
HETATM   12  N   UNL     1       6.737  25.019  52.432  1.00  0.00    -0.323 N 
HETATM   13  H   UNL     1       7.243  25.416  51.648  1.00  0.00     0.169 HD
HETATM   14  O   UNL     1       4.560  24.815  53.225  1.00  0.00    -0.267 OA
BRANCH  12  15
HETATM   15  C   UNL     1       7.470  24.196  53.308  1.00  0.00     0.035 A 
HETATM   16  C   UNL     1       7.793  24.551  54.621  1.00  0.00     0.039 A 
HETATM   17  C   UNL     1       8.548  23.693  55.443  1.00  0.00    -0.028 A 
HETATM   18  C   UNL     1       8.966  22.461  54.926  1.00  0.00     0.010 A 
HETATM   19  C   UNL     1       8.654  22.099  53.617  1.00  0.00     0.003 A 
HETATM   20  C   UNL     1       7.910  22.965  52.812  1.00  0.00     0.029 A 
BRANCH  17  21
HETATM   21  C   UNL     1       8.853  24.106  56.867  1.00  0.00     0.147 C 
HETATM   22  C   UNL     1       8.304  25.495  57.174  1.00  0.00     0.044 C 
BRANCH  21  23
HETATM   23  O   UNL     1       8.290  23.170  57.786  1.00  0.00    -0.391 OA
HETATM   24  H   UNL     1       7.603  22.682  57.305  1.00  0.00     0.210 HD
ENDBRANCH  21  23
ENDBRANCH  17  21
ENDBRANCH  12  15
ENDBRANCH   1  11
BRANCH   4  25
HETATM   25  C   UNL     1       2.705  29.376  48.994  1.00  0.00     0.409 C 
HETATM   26  F   UNL     1       1.795  28.395  49.185  1.00  0.00    -0.169 F 
HETATM   27  F   UNL     1       2.017  30.551  49.030  1.00  0.00    -0.169 F 
HETATM   28  F   UNL     1       3.194  29.272  47.742  1.00  0.00    -0.169 F 
ENDBRANCH   4  25
BRANCH   6  29
HETATM   29  C   UNL     1       3.701  30.473  53.798  1.00  0.00    -0.035 A 
HETATM   30  C   UNL     1       3.939  29.867  55.043  1.00  0.00     0.009 A 
HETATM   31  C   UNL     1       3.473  30.454  56.221  1.00  0.00     0.001 A 
HETATM   32  C   UNL     1       2.765  31.652  56.172  1.00  0.00     0.000 A 
HETATM   33  C   UNL     1       2.524  32.268  54.946  1.00  0.00     0.001 A 
HETATM   34  C   UNL     1       2.991  31.684  53.767  1.00  0.00     0.009 A 
ENDBRANCH   6  29
TORSDOF 6
ENDMDL
