MODEL 1
REMARK VINA RESULT:      -8.4      0.000      0.000
REMARK  2 active torsions:
REMARK  status: ('A' for Active; 'I' for Inactive)
REMARK    1  A    between atoms: N_4  and  N_5 
REMARK       I    between atoms: N_5  and  C_6 
REMARK    2  A    between atoms: C_6  and  C_7 
ROOT
HETATM    1  C   UNL     1       7.680  24.797  52.161  1.00  0.00     0.158 C 
HETATM    2  N   UNL     1       7.640  24.352  53.551  1.00  0.00    -0.329 N 
HETATM    3  C   UNL     1       7.495  25.109  54.647  1.00  0.00     0.166 A 
HETATM    4  N   UNL     1       7.363  26.438  54.654  1.00  0.00    -0.277 N 
HETATM    5  S   UNL     1       7.496  24.168  56.107  1.00  0.00    -0.050 SA
HETATM    6  C   UNL     1       7.702  22.716  55.207  1.00  0.00     0.035 A 
HETATM    7  C   UNL     1       7.759  22.996  53.844  1.00  0.00     0.053 A 
HETATM    8  C   UNL     1       7.805  21.403  55.697  1.00  0.00     0.021 A 
HETATM    9  C   UNL     1       7.970  20.365  54.778  1.00  0.00     0.002 A 
HETATM   10  C   UNL     1       8.029  20.625  53.413  1.00  0.00     0.002 A 
HETATM   11  C   UNL     1       7.926  21.936  52.931  1.00  0.00     0.031 A 
HETATM   12  H   UNL     1       7.377  26.904  53.748  1.00  0.00     0.189 HD
ENDROOT
BRANCH   4  13
HETATM   13  N   UNL     1       7.217  27.210  55.730  1.00  0.00    -0.263 N 
HETATM   14  C   UNL     1       7.876  28.428  55.721  1.00  0.00     0.286 C 
HETATM   15  O   UNL     1       8.555  28.749  54.745  1.00  0.00    -0.264 OA
HETATM   16  H   UNL     1       6.647  26.903  56.514  1.00  0.00     0.190 HD
BRANCH  14  17
HETATM   17  C   UNL     1       7.712  29.257  56.889  1.00  0.00     0.103 A 
HETATM   18  N   UNL     1       6.691  30.186  56.981  1.00  0.00    -0.360 N 
HETATM   19  H   UNL     1       6.000  30.351  56.257  1.00  0.00     0.165 HD
HETATM   20  C   UNL     1       6.753  30.842  58.181  1.00  0.00     0.112 A 
HETATM   21  C   UNL     1       7.822  30.340  58.879  1.00  0.00     0.051 A 
HETATM   22 CL   UNL     1       8.348  30.799  60.423  1.00  0.00    -0.083 Cl
HETATM   23  C   UNL     1       8.428  29.346  58.075  1.00  0.00     0.060 A 
ENDBRANCH  14  17
ENDBRANCH   4  13
TORSDOF 2
ENDMDL
MODEL 2
REMARK VINA RESULT:      -8.1      4.458      6.070
REMARK  2 active torsions:
REMARK  status: ('A' for Active; 'I' for Inactive)
REMARK    1  A    between atoms: N_4  and  N_5 
REMARK       I    between atoms: N_5  and  C_6 
REMARK    2  A    between atoms: C_6  and  C_7 
ROOT
HETATM    1  C   UNL     1       7.654  24.913  56.501  1.00  0.00     0.158 C 
HETATM    2  N   UNL     1       7.665  24.070  55.309  1.00  0.00    -0.329 N 
HETATM    3  C   UNL     1       7.369  24.427  54.052  1.00  0.00     0.166 A 
HETATM    4  N   UNL     1       6.999  25.651  53.666  1.00  0.00    -0.277 N 
HETATM    5  S   UNL     1       7.517  23.106  52.935  1.00  0.00    -0.050 SA
HETATM    6  C   UNL     1       7.986  22.044  54.205  1.00  0.00     0.035 A 
HETATM    7  C   UNL     1       8.016  22.726  55.419  1.00  0.00     0.053 A 
HETATM    8  C   UNL     1       8.310  20.680  54.116  1.00  0.00     0.021 A 
HETATM    9  C   UNL     1       8.667  20.006  55.286  1.00  0.00     0.002 A 
HETATM   10  C   UNL     1       8.702  20.670  56.507  1.00  0.00     0.002 A 
HETATM   11  C   UNL     1       8.379  22.031  56.589  1.00  0.00     0.031 A 
HETATM   12  H   UNL     1       6.938  26.361  54.394  1.00  0.00     0.189 HD
ENDROOT
BRANCH   4  13
HETATM   13  N   UNL     1       6.701  26.029  52.424  1.00  0.00    -0.263 N 
HETATM   14  C   UNL     1       5.379  26.356  52.169  1.00  0.00     0.286 C 
HETATM   15  O   UNL     1       4.547  26.290  53.074  1.00  0.00    -0.264 OA
HETATM   16  H   UNL     1       7.422  26.068  51.708  1.00  0.00     0.190 HD
BRANCH  14  17
HETATM   17  C   UNL     1       5.066  26.764  50.821  1.00  0.00     0.103 A 
HETATM   18  N   UNL     1       4.342  25.951  49.968  1.00  0.00    -0.360 N 
HETATM   19  H   UNL     1       3.985  25.034  50.215  1.00  0.00     0.165 HD
HETATM   20  C   UNL     1       4.180  26.562  48.754  1.00  0.00     0.112 A 
HETATM   21  C   UNL     1       4.803  27.783  48.812  1.00  0.00     0.051 A 
HETATM   22 CL   UNL     1       4.906  28.944  47.583  1.00  0.00    -0.083 Cl
HETATM   23  C   UNL     1       5.361  27.917  50.106  1.00  0.00     0.060 A 
ENDBRANCH  14  17
ENDBRANCH   4  13
TORSDOF 2
ENDMDL
MODEL 3
REMARK VINA RESULT:      -7.9      1.301      1.504
REMARK  2 active torsions:
REMARK  status: ('A' for Active; 'I' for Inactive)
REMARK    1  A    between atoms: N_4  and  N_5 
REMARK       I    between atoms: N_5  and  C_6 
REMARK    2  A    between atoms: C_6  and  C_7 
ROOT
HETATM    1  C   UNL     1       7.236  25.751  53.241  1.00  0.00     0.158 C 
HETATM    2  N   UNL     1       7.540  25.275  54.587  1.00  0.00    -0.329 N 
HETATM    3  C   UNL     1       7.615  25.998  55.713  1.00  0.00     0.166 A 
HETATM    4  N   UNL     1       7.423  27.317  55.795  1.00  0.00    -0.277 N 
HETATM    5  S   UNL     1       7.999  25.028  57.100  1.00  0.00    -0.050 SA
HETATM    6  C   UNL     1       8.064  23.609  56.129  1.00  0.00     0.035 A 
HETATM    7  C   UNL     1       7.791  23.921  54.799  1.00  0.00     0.053 A 
HETATM    8  C   UNL     1       8.342  22.293  56.537  1.00  0.00     0.021 A 
HETATM    9  C   UNL     1       8.341  21.286  55.570  1.00  0.00     0.002 A 
HETATM   10  C   UNL     1       8.071  21.579  54.237  1.00  0.00     0.002 A 
HETATM   11  C   UNL     1       7.795  22.892  53.837  1.00  0.00     0.031 A 
HETATM   12  H   UNL     1       7.204  27.802  54.926  1.00  0.00     0.189 HD
ENDROOT
BRANCH   4  13
HETATM   13  N   UNL     1       7.491  28.056  56.902  1.00  0.00    -0.263 N 
HETATM   14  C   UNL     1       8.301  29.179  56.856  1.00  0.00     0.286 C 
HETATM   15  O   UNL     1       8.912  29.450  55.822  1.00  0.00    -0.264 OA
HETATM   16  H   UNL     1       6.968  27.793  57.733  1.00  0.00     0.190 HD
BRANCH  14  17
HETATM   17  C   UNL     1       8.369  29.973  58.058  1.00  0.00     0.103 A 
HETATM   18  N   UNL     1       7.226  30.417  58.698  1.00  0.00    -0.360 N 
HETATM   19  H   UNL     1       6.281  30.224  58.383  1.00  0.00     0.165 HD
HETATM   20  C   UNL     1       7.557  31.146  59.808  1.00  0.00     0.112 A 
HETATM   21  C   UNL     1       8.925  31.181  59.894  1.00  0.00     0.051 A 
HETATM   22 CL   UNL     1       9.861  31.950  61.079  1.00  0.00    -0.083 Cl
HETATM   23  C   UNL     1       9.442  30.448  58.800  1.00  0.00     0.060 A 
ENDBRANCH  14  17
ENDBRANCH   4  13
TORSDOF 2
ENDMDL
MODEL 4
REMARK VINA RESULT:      -7.9      4.933      5.895
REMARK  2 active torsions:
REMARK  status: ('A' for Active; 'I' for Inactive)
REMARK    1  A    between atoms: N_4  and  N_5 
REMARK       I    between atoms: N_5  and  C_6 
REMARK    2  A    between atoms: C_6  and  C_7 
ROOT
HETATM    1  C   UNL     1       5.978  25.200  56.705  1.00  0.00     0.158 C 
HETATM    2  N   UNL     1       6.180  24.786  55.320  1.00  0.00    -0.329 N 
HETATM    3  C   UNL     1       5.565  25.258  54.227  1.00  0.00     0.166 A 
HETATM    4  N   UNL     1       4.632  26.214  54.221  1.00  0.00    -0.277 N 
HETATM    5  S   UNL     1       6.112  24.485  52.772  1.00  0.00    -0.050 SA
HETATM    6  C   UNL     1       7.197  23.495  53.669  1.00  0.00     0.035 A 
HETATM    7  C   UNL     1       7.106  23.787  55.027  1.00  0.00     0.053 A 
HETATM    8  C   UNL     1       8.077  22.515  53.180  1.00  0.00     0.021 A 
HETATM    9  C   UNL     1       8.874  21.826  54.096  1.00  0.00     0.002 A 
HETATM   10  C   UNL     1       8.798  22.103  55.457  1.00  0.00     0.002 A 
HETATM   11  C   UNL     1       7.918  23.082  55.937  1.00  0.00     0.031 A 
HETATM   12  H   UNL     1       4.374  26.607  55.125  1.00  0.00     0.189 HD
ENDROOT
BRANCH   4  13
HETATM   13  N   UNL     1       4.009  26.700  53.148  1.00  0.00    -0.263 N 
HETATM   14  C   UNL     1       4.284  28.014  52.806  1.00  0.00     0.286 C 
HETATM   15  O   UNL     1       5.075  28.670  53.484  1.00  0.00    -0.264 OA
HETATM   16  H   UNL     1       3.363  26.120  52.618  1.00  0.00     0.190 HD
BRANCH  14  17
HETATM   17  C   UNL     1       3.605  28.531  51.643  1.00  0.00     0.103 A 
HETATM   18  N   UNL     1       2.262  28.860  51.676  1.00  0.00    -0.360 N 
HETATM   19  H   UNL     1       1.669  28.769  52.493  1.00  0.00     0.165 HD
HETATM   20  C   UNL     1       1.858  29.325  50.453  1.00  0.00     0.112 A 
HETATM   21  C   UNL     1       2.943  29.299  49.614  1.00  0.00     0.051 A 
HETATM   22 CL   UNL     1       2.997  29.768  47.987  1.00  0.00    -0.083 Cl
HETATM   23  C   UNL     1       4.043  28.802  50.354  1.00  0.00     0.060 A 
ENDBRANCH  14  17
ENDBRANCH   4  13
TORSDOF 2
ENDMDL
MODEL 5
REMARK VINA RESULT:      -7.7      4.727      6.103
REMARK  2 active torsions:
REMARK  status: ('A' for Active; 'I' for Inactive)
REMARK    1  A    between atoms: N_4  and  N_5 
REMARK       I    between atoms: N_5  and  C_6 
REMARK    2  A    between atoms: C_6  and  C_7 
ROOT
HETATM    1  C   UNL     1      10.208  29.412  56.326  1.00  0.00     0.158 C 
HETATM    2  N   UNL     1       8.784  29.300  56.631  1.00  0.00    -0.329 N 
HETATM    3  C   UNL     1       8.167  29.611  57.779  1.00  0.00     0.166 A 
HETATM    4  N   UNL     1       8.769  30.086  58.873  1.00  0.00    -0.277 N 
HETATM    5  S   UNL     1       6.456  29.328  57.709  1.00  0.00    -0.050 SA
HETATM    6  C   UNL     1       6.582  28.771  56.086  1.00  0.00     0.035 A 
HETATM    7  C   UNL     1       7.907  28.822  55.660  1.00  0.00     0.053 A 
HETATM    8  C   UNL     1       5.552  28.316  55.246  1.00  0.00     0.021 A 
HETATM    9  C   UNL     1       5.885  27.907  53.953  1.00  0.00     0.002 A 
HETATM   10  C   UNL     1       7.203  27.951  53.509  1.00  0.00     0.002 A 
HETATM   11  C   UNL     1       8.225  28.406  54.352  1.00  0.00     0.031 A 
HETATM   12  H   UNL     1       9.778  30.218  58.819  1.00  0.00     0.189 HD
ENDROOT
BRANCH   4  13
HETATM   13  N   UNL     1       8.176  30.403  60.023  1.00  0.00    -0.263 N 
HETATM   14  C   UNL     1       8.213  31.736  60.400  1.00  0.00     0.286 C 
HETATM   15  O   UNL     1       8.774  32.560  59.678  1.00  0.00    -0.264 OA
HETATM   16  H   UNL     1       7.724  29.688  60.587  1.00  0.00     0.190 HD
BRANCH  14  17
HETATM   17  C   UNL     1       7.568  32.070  61.646  1.00  0.00     0.103 A 
HETATM   18  N   UNL     1       6.229  31.802  61.863  1.00  0.00    -0.360 N 
HETATM   19  H   UNL     1       5.614  31.363  61.186  1.00  0.00     0.165 HD
HETATM   20  C   UNL     1       5.860  32.213  63.116  1.00  0.00     0.112 A 
HETATM   21  C   UNL     1       6.965  32.754  63.722  1.00  0.00     0.051 A 
HETATM   22 CL   UNL     1       7.064  33.412  65.280  1.00  0.00    -0.083 Cl
HETATM   23  C   UNL     1       8.040  32.668  62.806  1.00  0.00     0.060 A 
ENDBRANCH  14  17
ENDBRANCH   4  13
TORSDOF 2
ENDMDL
MODEL 6
REMARK VINA RESULT:      -7.7      3.434      8.074
REMARK  2 active torsions:
REMARK  status: ('A' for Active; 'I' for Inactive)
REMARK    1  A    between atoms: N_4  and  N_5 
REMARK       I    between atoms: N_5  and  C_6 
REMARK    2  A    between atoms: C_6  and  C_7 
ROOT
HETATM    1  C   UNL     1       5.005  29.589  57.456  1.00  0.00     0.158 C 
HETATM    2  N   UNL     1       6.439  29.314  57.446  1.00  0.00    -0.329 N 
HETATM    3  C   UNL     1       7.072  28.297  56.847  1.00  0.00     0.166 A 
HETATM    4  N   UNL     1       6.480  27.331  56.139  1.00  0.00    -0.277 N 
HETATM    5  S   UNL     1       8.791  28.352  57.084  1.00  0.00    -0.050 SA
HETATM    6  C   UNL     1       8.646  29.788  58.022  1.00  0.00     0.035 A 
HETATM    7  C   UNL     1       7.310  30.169  58.118  1.00  0.00     0.053 A 
HETATM    8  C   UNL     1       9.671  30.527  58.635  1.00  0.00     0.021 A 
HETATM    9  C   UNL     1       9.322  31.671  59.356  1.00  0.00     0.002 A 
HETATM   10  C   UNL     1       7.994  32.068  59.462  1.00  0.00     0.002 A 
HETATM   11  C   UNL     1       6.976  31.327  58.849  1.00  0.00     0.031 A 
HETATM   12  H   UNL     1       5.465  27.381  56.057  1.00  0.00     0.189 HD
ENDROOT
BRANCH   4  13
HETATM   13  N   UNL     1       7.088  26.311  55.534  1.00  0.00    -0.263 N 
HETATM   14  C   UNL     1       6.920  25.057  56.100  1.00  0.00     0.286 C 
HETATM   15  O   UNL     1       6.232  24.931  57.113  1.00  0.00    -0.264 OA
HETATM   16  H   UNL     1       7.647  26.463  54.699  1.00  0.00     0.190 HD
BRANCH  14  17
HETATM   17  C   UNL     1       7.582  23.960  55.438  1.00  0.00     0.103 A 
HETATM   18  N   UNL     1       8.836  23.528  55.831  1.00  0.00    -0.360 N 
HETATM   19  H   UNL     1       9.372  23.936  56.590  1.00  0.00     0.165 HD
HETATM   20  C   UNL     1       9.243  22.480  55.050  1.00  0.00     0.112 A 
HETATM   21  C   UNL     1       8.248  22.224  54.140  1.00  0.00     0.051 A 
HETATM   22 CL   UNL     1       8.236  21.029  52.939  1.00  0.00    -0.083 Cl
HETATM   23  C   UNL     1       7.203  23.148  54.378  1.00  0.00     0.060 A 
ENDBRANCH  14  17
ENDBRANCH   4  13
TORSDOF 2
ENDMDL
MODEL 7
REMARK VINA RESULT:      -7.5      5.133      9.901
REMARK  2 active torsions:
REMARK  status: ('A' for Active; 'I' for Inactive)
REMARK    1  A    between atoms: N_4  and  N_5 
REMARK       I    between atoms: N_5  and  C_6 
REMARK    2  A    between atoms: C_6  and  C_7 
ROOT
HETATM    1  C   UNL     1       9.185  30.510  62.183  1.00  0.00     0.158 C 
HETATM    2  N   UNL     1       8.073  31.320  61.697  1.00  0.00    -0.329 N 
HETATM    3  C   UNL     1       7.437  31.215  60.522  1.00  0.00     0.166 A 
HETATM    4  N   UNL     1       7.725  30.327  59.567  1.00  0.00    -0.277 N 
HETATM    5  S   UNL     1       6.161  32.380  60.351  1.00  0.00    -0.050 SA
HETATM    6  C   UNL     1       6.502  33.027  61.909  1.00  0.00     0.035 A 
HETATM    7  C   UNL     1       7.561  32.339  62.496  1.00  0.00     0.053 A 
HETATM    8  C   UNL     1       5.857  34.090  62.564  1.00  0.00     0.021 A 
HETATM    9  C   UNL     1       6.303  34.451  63.837  1.00  0.00     0.002 A 
HETATM   10  C   UNL     1       7.358  33.776  64.440  1.00  0.00     0.002 A 
HETATM   11  C   UNL     1       7.998  32.718  63.782  1.00  0.00     0.031 A 
HETATM   12  H   UNL     1       8.492  29.683  59.757  1.00  0.00     0.189 HD
ENDROOT
BRANCH   4  13
HETATM   13  N   UNL     1       7.107  30.203  58.393  1.00  0.00    -0.263 N 
HETATM   14  C   UNL     1       7.253  28.994  57.733  1.00  0.00     0.286 C 
HETATM   15  O   UNL     1       7.929  28.098  58.240  1.00  0.00    -0.264 OA
HETATM   16  H   UNL     1       6.558  30.970  58.013  1.00  0.00     0.190 HD
BRANCH  14  17
HETATM   17  C   UNL     1       6.580  28.868  56.463  1.00  0.00     0.103 A 
HETATM   18  N   UNL     1       7.205  28.306  55.365  1.00  0.00    -0.360 N 
HETATM   19  H   UNL     1       8.154  27.948  55.366  1.00  0.00     0.165 HD
HETATM   20  C   UNL     1       6.360  28.304  54.288  1.00  0.00     0.112 A 
HETATM   21  C   UNL     1       5.175  28.869  54.684  1.00  0.00     0.051 A 
HETATM   22 CL   UNL     1       3.787  29.112  53.743  1.00  0.00    -0.083 Cl
HETATM   23  C   UNL     1       5.305  29.226  56.047  1.00  0.00     0.060 A 
ENDBRANCH  14  17
ENDBRANCH   4  13
TORSDOF 2
ENDMDL
MODEL 8
REMARK VINA RESULT:      -7.4      3.937      8.523
REMARK  2 active torsions:
REMARK  status: ('A' for Active; 'I' for Inactive)
REMARK    1  A    between atoms: N_4  and  N_5 
REMARK       I    between atoms: N_5  and  C_6 
REMARK    2  A    between atoms: C_6  and  C_7 
ROOT
HETATM    1  C   UNL     1       5.242  32.314  58.520  1.00  0.00     0.158 C 
HETATM    2  N   UNL     1       6.382  31.415  58.673  1.00  0.00    -0.329 N 
HETATM    3  C   UNL     1       6.744  30.410  57.865  1.00  0.00     0.166 A 
HETATM    4  N   UNL     1       6.101  30.045  56.752  1.00  0.00    -0.277 N 
HETATM    5  S   UNL     1       8.174  29.596  58.419  1.00  0.00    -0.050 SA
HETATM    6  C   UNL     1       8.280  30.643  59.780  1.00  0.00     0.035 A 
HETATM    7  C   UNL     1       7.236  31.565  59.762  1.00  0.00     0.053 A 
HETATM    8  C   UNL     1       9.244  30.637  60.802  1.00  0.00     0.021 A 
HETATM    9  C   UNL     1       9.135  31.588  61.820  1.00  0.00     0.002 A 
HETATM   10  C   UNL     1       8.100  32.516  61.819  1.00  0.00     0.002 A 
HETATM   11  C   UNL     1       7.142  32.517  60.797  1.00  0.00     0.031 A 
HETATM   12  H   UNL     1       5.269  30.581  56.508  1.00  0.00     0.189 HD
ENDROOT
BRANCH   4  13
HETATM   13  N   UNL     1       6.443  29.051  55.934  1.00  0.00    -0.263 N 
HETATM   14  C   UNL     1       5.447  28.147  55.598  1.00  0.00     0.286 C 
HETATM   15  O   UNL     1       4.312  28.291  56.051  1.00  0.00    -0.264 OA
HETATM   16  H   UNL     1       7.394  28.972  55.584  1.00  0.00     0.190 HD
BRANCH  14  17
HETATM   17  C   UNL     1       5.826  27.074  54.712  1.00  0.00     0.103 A 
HETATM   18  N   UNL     1       5.095  25.902  54.641  1.00  0.00    -0.360 N 
HETATM   19  H   UNL     1       4.261  25.711  55.187  1.00  0.00     0.165 HD
HETATM   20  C   UNL     1       5.657  25.047  53.732  1.00  0.00     0.112 A 
HETATM   21  C   UNL     1       6.764  25.662  53.205  1.00  0.00     0.051 A 
HETATM   22 CL   UNL     1       7.825  25.046  52.037  1.00  0.00    -0.083 Cl
HETATM   23  C   UNL     1       6.877  26.934  53.816  1.00  0.00     0.060 A 
ENDBRANCH  14  17
ENDBRANCH   4  13
TORSDOF 2
ENDMDL
MODEL 9
REMARK VINA RESULT:      -7.3      1.611      1.758
REMARK  2 active torsions:
REMARK  status: ('A' for Active; 'I' for Inactive)
REMARK    1  A    between atoms: N_4  and  N_5 
REMARK       I    between atoms: N_5  and  C_6 
REMARK    2  A    between atoms: C_6  and  C_7 
ROOT
HETATM    1  C   UNL     1       6.989  23.845  52.642  1.00  0.00     0.158 C 
HETATM    2  N   UNL     1       7.229  23.722  54.077  1.00  0.00    -0.329 N 
HETATM    3  C   UNL     1       7.029  24.651  55.022  1.00  0.00     0.166 A 
HETATM    4  N   UNL     1       6.567  25.885  54.803  1.00  0.00    -0.277 N 
HETATM    5  S   UNL     1       7.442  24.082  56.609  1.00  0.00    -0.050 SA
HETATM    6  C   UNL     1       7.900  22.549  55.974  1.00  0.00     0.035 A 
HETATM    7  C   UNL     1       7.721  22.526  54.593  1.00  0.00     0.053 A 
HETATM    8  C   UNL     1       8.389  21.435  56.675  1.00  0.00     0.021 A 
HETATM    9  C   UNL     1       8.700  20.282  55.951  1.00  0.00     0.002 A 
HETATM   10  C   UNL     1       8.529  20.240  54.572  1.00  0.00     0.002 A 
HETATM   11  C   UNL     1       8.041  21.354  53.879  1.00  0.00     0.031 A 
HETATM   12  H   UNL     1       6.354  26.129  53.837  1.00  0.00     0.189 HD
ENDROOT
BRANCH   4  13
HETATM   13  N   UNL     1       6.360  26.824  55.726  1.00  0.00    -0.263 N 
HETATM   14  C   UNL     1       5.885  28.047  55.279  1.00  0.00     0.286 C 
HETATM   15  O   UNL     1       5.675  28.220  54.078  1.00  0.00    -0.264 OA
HETATM   16  H   UNL     1       6.547  26.636  56.707  1.00  0.00     0.190 HD
BRANCH  14  17
HETATM   17  C   UNL     1       5.664  29.057  56.285  1.00  0.00     0.103 A 
HETATM   18  N   UNL     1       4.423  29.235  56.870  1.00  0.00    -0.360 N 
HETATM   19  H   UNL     1       3.599  28.687  56.647  1.00  0.00     0.165 HD
HETATM   20  C   UNL     1       4.473  30.251  57.787  1.00  0.00     0.112 A 
HETATM   21  C   UNL     1       5.754  30.740  57.801  1.00  0.00     0.051 A 
HETATM   22 CL   UNL     1       6.362  32.002  58.754  1.00  0.00    -0.083 Cl
HETATM   23  C   UNL     1       6.507  29.997  56.861  1.00  0.00     0.060 A 
ENDBRANCH  14  17
ENDBRANCH   4  13
TORSDOF 2
ENDMDL
MODEL 10
REMARK VINA RESULT:      -7.3      6.122      8.077
REMARK  2 active torsions:
REMARK  status: ('A' for Active; 'I' for Inactive)
REMARK    1  A    between atoms: N_4  and  N_5 
REMARK       I    between atoms: N_5  and  C_6 
REMARK    2  A    between atoms: C_6  and  C_7 
ROOT
HETATM    1  C   UNL     1       6.084  29.182  57.189  1.00  0.00     0.158 C 
HETATM    2  N   UNL     1       7.016  30.066  57.882  1.00  0.00    -0.329 N 
HETATM    3  C   UNL     1       6.732  30.990  58.809  1.00  0.00     0.166 A 
HETATM    4  N   UNL     1       5.508  31.270  59.267  1.00  0.00    -0.277 N 
HETATM    5  S   UNL     1       8.148  31.817  59.379  1.00  0.00    -0.050 SA
HETATM    6  C   UNL     1       9.149  30.890  58.331  1.00  0.00     0.035 A 
HETATM    7  C   UNL     1       8.378  29.993  57.596  1.00  0.00     0.053 A 
HETATM    8  C   UNL     1      10.543  30.963  58.179  1.00  0.00     0.021 A 
HETATM    9  C   UNL     1      11.155  30.107  57.261  1.00  0.00     0.002 A 
HETATM   10  C   UNL     1      10.402  29.205  56.517  1.00  0.00     0.002 A 
HETATM   11  C   UNL     1       9.012  29.136  56.674  1.00  0.00     0.031 A 
HETATM   12  H   UNL     1       4.738  30.733  58.872  1.00  0.00     0.189 HD
ENDROOT
BRANCH   4  13
HETATM   13  N   UNL     1       5.202  32.183  60.188  1.00  0.00    -0.263 N 
HETATM   14  C   UNL     1       3.856  32.362  60.469  1.00  0.00     0.286 C 
HETATM   15  O   UNL     1       3.013  31.689  59.875  1.00  0.00    -0.264 OA
HETATM   16  H   UNL     1       5.932  32.715  60.653  1.00  0.00     0.190 HD
BRANCH  14  17
HETATM   17  C   UNL     1       3.533  33.351  61.467  1.00  0.00     0.103 A 
HETATM   18  N   UNL     1       2.627  33.089  62.479  1.00  0.00    -0.360 N 
HETATM   19  H   UNL     1       2.135  32.210  62.595  1.00  0.00     0.165 HD
HETATM   20  C   UNL     1       2.495  34.183  63.291  1.00  0.00     0.112 A 
HETATM   21  C   UNL     1       3.319  35.167  62.808  1.00  0.00     0.051 A 
HETATM   22 CL   UNL     1       3.541  36.724  63.438  1.00  0.00    -0.083 Cl
HETATM   23  C   UNL     1       3.974  34.653  61.664  1.00  0.00     0.060 A 
ENDBRANCH  14  17
ENDBRANCH   4  13
TORSDOF 2
ENDMDL
