MODEL 1
REMARK VINA RESULT:     -10.0      0.000      0.000
REMARK  3 active torsions:
REMARK  status: ('A' for Active; 'I' for Inactive)
REMARK    1  A    between atoms: N_4  and  C_5 
REMARK    2  A    between atoms: C_15  and  C_16 
REMARK       I    between atoms: C_16  and  N_17 
REMARK    3  A    between atoms: N_17  and  C_18 
ROOT
HETATM    1  C   UNL     1       3.981  29.557  54.586  1.00  0.00     0.073 C 
HETATM    2  C   UNL     1       5.145  28.672  54.844  1.00  0.00     0.069 A 
HETATM    3  N   UNL     1       5.242  27.483  54.235  1.00  0.00    -0.170 NA
HETATM    4  N   UNL     1       6.434  26.954  54.650  1.00  0.00    -0.216 N 
HETATM    5  C   UNL     1       6.997  27.763  55.626  1.00  0.00     0.145 A 
HETATM    6  C   UNL     1       6.214  28.889  55.731  1.00  0.00     0.087 A 
HETATM    7  N   UNL     1       8.070  27.547  56.426  1.00  0.00    -0.349 N 
HETATM    8  C   UNL     1       8.368  28.497  57.389  1.00  0.00     0.111 A 
HETATM    9  C   UNL     1       7.701  29.662  57.560  1.00  0.00     0.098 A 
HETATM   10  C   UNL     1       6.532  29.953  56.660  1.00  0.00     0.205 A 
HETATM   11  O   UNL     1       5.899  31.004  56.729  1.00  0.00    -0.286 OA
HETATM   12  H   UNL     1       8.510  26.635  56.542  1.00  0.00     0.167 HD
ENDROOT
BRANCH   9  13
HETATM   13  C   UNL     1       8.144  30.573  58.663  1.00  0.00     0.261 C 
HETATM   14  N   UNL     1       7.197  30.795  59.640  1.00  0.00    -0.323 N 
HETATM   15  H   UNL     1       6.286  30.353  59.506  1.00  0.00     0.169 HD
HETATM   16  O   UNL     1       9.274  31.054  58.638  1.00  0.00    -0.267 OA
BRANCH  14  17
HETATM   17  C   UNL     1       7.330  31.553  60.821  1.00  0.00     0.035 A 
HETATM   18  C   UNL     1       6.689  32.776  61.045  1.00  0.00     0.032 A 
HETATM   19  C   UNL     1       6.891  33.471  62.241  1.00  0.00     0.044 A 
HETATM   20  C   UNL     1       7.729  32.941  63.213  1.00  0.00     0.116 A 
HETATM   21  F   UNL     1       7.921  33.611  64.358  1.00  0.00    -0.206 F 
HETATM   22  C   UNL     1       8.372  31.728  63.013  1.00  0.00     0.044 A 
HETATM   23  C   UNL     1       8.175  31.037  61.816  1.00  0.00     0.032 A 
ENDBRANCH  14  17
ENDBRANCH   9  13
BRANCH   4  24
HETATM   24  C   UNL     1       6.917  25.747  54.071  1.00  0.00     0.060 A 
HETATM   25  C   UNL     1       6.891  24.531  54.766  1.00  0.00     0.031 A 
HETATM   26  C   UNL     1       7.372  23.367  54.161  1.00  0.00     0.002 A 
HETATM   27  C   UNL     1       7.889  23.408  52.868  1.00  0.00     0.000 A 
HETATM   28  C   UNL     1       7.942  24.617  52.178  1.00  0.00     0.002 A 
HETATM   29  C   UNL     1       7.468  25.785  52.779  1.00  0.00     0.031 A 
ENDBRANCH   4  24
TORSDOF 3
ENDMDL
MODEL 2
REMARK VINA RESULT:      -9.6      3.693      8.891
REMARK  3 active torsions:
REMARK  status: ('A' for Active; 'I' for Inactive)
REMARK    1  A    between atoms: N_4  and  C_5 
REMARK    2  A    between atoms: C_15  and  C_16 
REMARK       I    between atoms: C_16  and  N_17 
REMARK    3  A    between atoms: N_17  and  C_18 
ROOT
HETATM    1  C   UNL     1       4.810  32.543  56.195  1.00  0.00     0.073 C 
HETATM    2  C   UNL     1       5.629  31.757  57.150  1.00  0.00     0.069 A 
HETATM    3  N   UNL     1       6.228  32.358  58.186  1.00  0.00    -0.170 NA
HETATM    4  N   UNL     1       6.852  31.357  58.881  1.00  0.00    -0.216 N 
HETATM    5  C   UNL     1       6.749  30.162  58.184  1.00  0.00     0.145 A 
HETATM    6  C   UNL     1       5.933  30.384  57.100  1.00  0.00     0.087 A 
HETATM    7  N   UNL     1       7.351  28.968  58.407  1.00  0.00    -0.349 N 
HETATM    8  C   UNL     1       7.137  27.949  57.493  1.00  0.00     0.111 A 
HETATM    9  C   UNL     1       6.324  28.032  56.416  1.00  0.00     0.098 A 
HETATM   10  C   UNL     1       5.606  29.330  56.164  1.00  0.00     0.205 A 
HETATM   11  O   UNL     1       4.823  29.473  55.228  1.00  0.00    -0.286 OA
HETATM   12  H   UNL     1       8.139  28.845  59.043  1.00  0.00     0.167 HD
ENDROOT
BRANCH   9  13
HETATM   13  C   UNL     1       6.218  26.839  55.517  1.00  0.00     0.261 C 
HETATM   14  N   UNL     1       7.389  26.127  55.367  1.00  0.00    -0.323 N 
HETATM   15  H   UNL     1       8.213  26.491  55.848  1.00  0.00     0.169 HD
HETATM   16  O   UNL     1       5.145  26.574  54.982  1.00  0.00    -0.267 OA
BRANCH  14  17
HETATM   17  C   UNL     1       7.594  24.938  54.638  1.00  0.00     0.035 A 
HETATM   18  C   UNL     1       7.842  24.895  53.262  1.00  0.00     0.032 A 
HETATM   19  C   UNL     1       8.017  23.669  52.613  1.00  0.00     0.044 A 
HETATM   20  C   UNL     1       7.950  22.488  53.341  1.00  0.00     0.116 A 
HETATM   21  F   UNL     1       8.117  21.314  52.717  1.00  0.00    -0.206 F 
HETATM   22  C   UNL     1       7.708  22.509  54.708  1.00  0.00     0.044 A 
HETATM   23  C   UNL     1       7.527  23.733  55.354  1.00  0.00     0.032 A 
ENDBRANCH  14  17
ENDBRANCH   9  13
BRANCH   4  24
HETATM   24  C   UNL     1       7.467  31.636  60.134  1.00  0.00     0.060 A 
HETATM   25  C   UNL     1       8.830  31.403  60.356  1.00  0.00     0.031 A 
HETATM   26  C   UNL     1       9.398  31.694  61.599  1.00  0.00     0.002 A 
HETATM   27  C   UNL     1       8.612  32.208  62.628  1.00  0.00     0.000 A 
HETATM   28  C   UNL     1       7.250  32.420  62.425  1.00  0.00     0.002 A 
HETATM   29  C   UNL     1       6.676  32.127  61.186  1.00  0.00     0.031 A 
ENDBRANCH   4  24
TORSDOF 3
ENDMDL
MODEL 3
REMARK VINA RESULT:      -9.6      3.674      9.202
REMARK  3 active torsions:
REMARK  status: ('A' for Active; 'I' for Inactive)
REMARK    1  A    between atoms: N_4  and  C_5 
REMARK    2  A    between atoms: C_15  and  C_16 
REMARK       I    between atoms: C_16  and  N_17 
REMARK    3  A    between atoms: N_17  and  C_18 
ROOT
HETATM    1  C   UNL     1      10.564  30.869  57.708  1.00  0.00     0.073 C 
HETATM    2  C   UNL     1       9.127  30.914  58.074  1.00  0.00     0.069 A 
HETATM    3  N   UNL     1       8.700  31.724  59.053  1.00  0.00    -0.170 NA
HETATM    4  N   UNL     1       7.342  31.558  59.100  1.00  0.00    -0.216 N 
HETATM    5  C   UNL     1       6.959  30.536  58.244  1.00  0.00     0.145 A 
HETATM    6  C   UNL     1       8.076  30.144  57.544  1.00  0.00     0.087 A 
HETATM    7  N   UNL     1       5.757  29.926  58.096  1.00  0.00    -0.349 N 
HETATM    8  C   UNL     1       5.671  28.861  57.215  1.00  0.00     0.111 A 
HETATM    9  C   UNL     1       6.685  28.411  56.441  1.00  0.00     0.098 A 
HETATM   10  C   UNL     1       8.020  29.095  56.547  1.00  0.00     0.205 A 
HETATM   11  O   UNL     1       8.980  28.769  55.853  1.00  0.00    -0.286 OA
HETATM   12  H   UNL     1       4.992  30.023  58.762  1.00  0.00     0.167 HD
ENDROOT
BRANCH   9  13
HETATM   13  C   UNL     1       6.426  27.233  55.553  1.00  0.00     0.261 C 
HETATM   14  N   UNL     1       7.502  26.384  55.396  1.00  0.00    -0.323 N 
HETATM   15  H   UNL     1       8.370  26.651  55.865  1.00  0.00     0.169 HD
HETATM   16  O   UNL     1       5.323  27.094  55.032  1.00  0.00    -0.267 OA
BRANCH  14  17
HETATM   17  C   UNL     1       7.555  25.175  54.674  1.00  0.00     0.035 A 
HETATM   18  C   UNL     1       7.762  25.094  53.294  1.00  0.00     0.032 A 
HETATM   19  C   UNL     1       7.783  23.851  52.654  1.00  0.00     0.044 A 
HETATM   20  C   UNL     1       7.601  22.691  53.395  1.00  0.00     0.116 A 
HETATM   21  F   UNL     1       7.620  21.501  52.779  1.00  0.00    -0.206 F 
HETATM   22  C   UNL     1       7.396  22.749  54.767  1.00  0.00     0.044 A 
HETATM   23  C   UNL     1       7.370  23.991  55.405  1.00  0.00     0.032 A 
ENDBRANCH  14  17
ENDBRANCH   9  13
BRANCH   4  24
HETATM   24  C   UNL     1       6.553  32.390  59.943  1.00  0.00     0.060 A 
HETATM   25  C   UNL     1       5.342  32.946  59.510  1.00  0.00     0.031 A 
HETATM   26  C   UNL     1       4.595  33.756  60.368  1.00  0.00     0.002 A 
HETATM   27  C   UNL     1       5.051  34.024  61.657  1.00  0.00     0.000 A 
HETATM   28  C   UNL     1       6.266  33.496  62.089  1.00  0.00     0.002 A 
HETATM   29  C   UNL     1       7.020  32.690  61.234  1.00  0.00     0.031 A 
ENDBRANCH   4  24
TORSDOF 3
ENDMDL
MODEL 4
REMARK VINA RESULT:      -9.4      3.991      9.291
REMARK  3 active torsions:
REMARK  status: ('A' for Active; 'I' for Inactive)
REMARK    1  A    between atoms: N_4  and  C_5 
REMARK    2  A    between atoms: C_15  and  C_16 
REMARK       I    between atoms: C_16  and  N_17 
REMARK    3  A    between atoms: N_17  and  C_18 
ROOT
HETATM    1  C   UNL     1      11.060  29.693  57.079  1.00  0.00     0.073 C 
HETATM    2  C   UNL     1       9.774  30.010  57.748  1.00  0.00     0.069 A 
HETATM    3  N   UNL     1       9.759  30.514  58.989  1.00  0.00    -0.170 NA
HETATM    4  N   UNL     1       8.440  30.731  59.282  1.00  0.00    -0.216 N 
HETATM    5  C   UNL     1       7.640  30.224  58.269  1.00  0.00     0.145 A 
HETATM    6  C   UNL     1       8.472  29.802  57.258  1.00  0.00     0.087 A 
HETATM    7  N   UNL     1       6.294  30.068  58.215  1.00  0.00    -0.349 N 
HETATM    8  C   UNL     1       5.754  29.446  57.101  1.00  0.00     0.111 A 
HETATM    9  C   UNL     1       6.461  29.028  56.027  1.00  0.00     0.098 A 
HETATM   10  C   UNL     1       7.953  29.227  56.035  1.00  0.00     0.205 A 
HETATM   11  O   UNL     1       8.660  28.907  55.083  1.00  0.00    -0.286 OA
HETATM   12  H   UNL     1       5.687  30.139  59.031  1.00  0.00     0.167 HD
ENDROOT
BRANCH   9  13
HETATM   13  C   UNL     1       5.721  28.357  54.912  1.00  0.00     0.261 C 
HETATM   14  N   UNL     1       6.274  28.542  53.662  1.00  0.00    -0.323 N 
HETATM   15  H   UNL     1       7.102  29.137  53.610  1.00  0.00     0.169 HD
HETATM   16  O   UNL     1       4.707  27.710  55.158  1.00  0.00    -0.267 OA
BRANCH  14  17
HETATM   17  C   UNL     1       5.844  27.999  52.435  1.00  0.00     0.035 A 
HETATM   18  C   UNL     1       5.304  28.753  51.389  1.00  0.00     0.032 A 
HETATM   19  C   UNL     1       4.886  28.129  50.209  1.00  0.00     0.044 A 
HETATM   20  C   UNL     1       5.015  26.753  50.074  1.00  0.00     0.116 A 
HETATM   21  F   UNL     1       4.613  26.158  48.943  1.00  0.00    -0.206 F 
HETATM   22  C   UNL     1       5.551  25.986  51.099  1.00  0.00     0.044 A 
HETATM   23  C   UNL     1       5.962  26.609  52.279  1.00  0.00     0.032 A 
ENDBRANCH  14  17
ENDBRANCH   9  13
BRANCH   4  24
HETATM   24  C   UNL     1       8.079  31.405  60.483  1.00  0.00     0.060 A 
HETATM   25  C   UNL     1       7.194  32.490  60.485  1.00  0.00     0.031 A 
HETATM   26  C   UNL     1       6.862  33.123  61.686  1.00  0.00     0.002 A 
HETATM   27  C   UNL     1       7.416  32.685  62.887  1.00  0.00     0.000 A 
HETATM   28  C   UNL     1       8.317  31.623  62.892  1.00  0.00     0.002 A 
HETATM   29  C   UNL     1       8.656  30.990  61.695  1.00  0.00     0.031 A 
ENDBRANCH   4  24
TORSDOF 3
ENDMDL
MODEL 5
REMARK VINA RESULT:      -9.2      1.990      3.125
REMARK  3 active torsions:
REMARK  status: ('A' for Active; 'I' for Inactive)
REMARK    1  A    between atoms: N_4  and  C_5 
REMARK    2  A    between atoms: C_15  and  C_16 
REMARK       I    between atoms: C_16  and  N_17 
REMARK    3  A    between atoms: N_17  and  C_18 
ROOT
HETATM    1  C   UNL     1       7.258  24.192  56.447  1.00  0.00     0.073 C 
HETATM    2  C   UNL     1       7.048  25.409  55.625  1.00  0.00     0.069 A 
HETATM    3  N   UNL     1       6.658  25.306  54.347  1.00  0.00    -0.170 NA
HETATM    4  N   UNL     1       6.516  26.593  53.902  1.00  0.00    -0.216 N 
HETATM    5  C   UNL     1       6.958  27.481  54.871  1.00  0.00     0.145 A 
HETATM    6  C   UNL     1       7.257  26.749  55.996  1.00  0.00     0.087 A 
HETATM    7  N   UNL     1       7.156  28.820  54.802  1.00  0.00    -0.349 N 
HETATM    8  C   UNL     1       7.694  29.458  55.907  1.00  0.00     0.111 A 
HETATM    9  C   UNL     1       7.989  28.857  57.082  1.00  0.00     0.098 A 
HETATM   10  C   UNL     1       7.739  27.378  57.208  1.00  0.00     0.205 A 
HETATM   11  O   UNL     1       7.946  26.766  58.253  1.00  0.00    -0.286 OA
HETATM   12  H   UNL     1       7.181  29.341  53.925  1.00  0.00     0.167 HD
ENDROOT
BRANCH   9  13
HETATM   13  C   UNL     1       8.583  29.692  58.174  1.00  0.00     0.261 C 
HETATM   14  N   UNL     1       7.696  30.060  59.163  1.00  0.00    -0.323 N 
HETATM   15  H   UNL     1       6.726  29.763  59.045  1.00  0.00     0.169 HD
HETATM   16  O   UNL     1       9.773  29.993  58.130  1.00  0.00    -0.267 OA
BRANCH  14  17
HETATM   17  C   UNL     1       7.962  30.792  60.338  1.00  0.00     0.035 A 
HETATM   18  C   UNL     1       8.991  30.489  61.235  1.00  0.00     0.032 A 
HETATM   19  C   UNL     1       9.173  31.259  62.388  1.00  0.00     0.044 A 
HETATM   20  C   UNL     1       8.331  32.334  62.640  1.00  0.00     0.116 A 
HETATM   21  F   UNL     1       8.507  33.069  63.745  1.00  0.00    -0.206 F 
HETATM   22  C   UNL     1       7.305  32.653  61.761  1.00  0.00     0.044 A 
HETATM   23  C   UNL     1       7.119  31.880  60.613  1.00  0.00     0.032 A 
ENDBRANCH  14  17
ENDBRANCH   9  13
BRANCH   4  24
HETATM   24  C   UNL     1       5.966  26.843  52.613  1.00  0.00     0.060 A 
HETATM   25  C   UNL     1       5.745  28.144  52.144  1.00  0.00     0.031 A 
HETATM   26  C   UNL     1       5.206  28.348  50.870  1.00  0.00     0.002 A 
HETATM   27  C   UNL     1       4.878  27.261  50.063  1.00  0.00     0.000 A 
HETATM   28  C   UNL     1       5.071  25.964  50.531  1.00  0.00     0.002 A 
HETATM   29  C   UNL     1       5.604  25.753  51.804  1.00  0.00     0.031 A 
ENDBRANCH   4  24
TORSDOF 3
ENDMDL
MODEL 6
REMARK VINA RESULT:      -9.2      3.416      9.017
REMARK  3 active torsions:
REMARK  status: ('A' for Active; 'I' for Inactive)
REMARK    1  A    between atoms: N_4  and  C_5 
REMARK    2  A    between atoms: C_15  and  C_16 
REMARK       I    between atoms: C_16  and  N_17 
REMARK    3  A    between atoms: N_17  and  C_18 
ROOT
HETATM    1  C   UNL     1       4.399  33.242  57.599  1.00  0.00     0.073 C 
HETATM    2  C   UNL     1       5.290  32.675  58.641  1.00  0.00     0.069 A 
HETATM    3  N   UNL     1       5.393  33.262  59.841  1.00  0.00    -0.170 NA
HETATM    4  N   UNL     1       6.244  32.472  60.565  1.00  0.00    -0.216 N 
HETATM    5  C   UNL     1       6.772  31.478  59.755  1.00  0.00     0.145 A 
HETATM    6  C   UNL     1       6.141  31.560  58.536  1.00  0.00     0.087 A 
HETATM    7  N   UNL     1       7.767  30.590  60.000  1.00  0.00    -0.349 N 
HETATM    8  C   UNL     1       8.161  29.752  58.970  1.00  0.00     0.111 A 
HETATM    9  C   UNL     1       7.590  29.708  57.745  1.00  0.00     0.098 A 
HETATM   10  C   UNL     1       6.453  30.649  57.454  1.00  0.00     0.205 A 
HETATM   11  O   UNL     1       5.859  30.646  56.379  1.00  0.00    -0.286 OA
HETATM   12  H   UNL     1       8.409  30.668  60.788  1.00  0.00     0.167 HD
ENDROOT
BRANCH   9  13
HETATM   13  C   UNL     1       8.150  28.751  56.738  1.00  0.00     0.261 C 
HETATM   14  N   UNL     1       7.244  27.832  56.252  1.00  0.00    -0.323 N 
HETATM   15  H   UNL     1       6.300  27.867  56.641  1.00  0.00     0.169 HD
HETATM   16  O   UNL     1       9.332  28.829  56.417  1.00  0.00    -0.267 OA
BRANCH  14  17
HETATM   17  C   UNL     1       7.452  26.848  55.265  1.00  0.00     0.035 A 
HETATM   18  C   UNL     1       7.527  27.114  53.895  1.00  0.00     0.032 A 
HETATM   19  C   UNL     1       7.719  26.072  52.982  1.00  0.00     0.044 A 
HETATM   20  C   UNL     1       7.839  24.767  53.440  1.00  0.00     0.116 A 
HETATM   21  F   UNL     1       8.022  23.771  52.563  1.00  0.00    -0.206 F 
HETATM   22  C   UNL     1       7.770  24.481  54.797  1.00  0.00     0.044 A 
HETATM   23  C   UNL     1       7.573  25.521  55.708  1.00  0.00     0.032 A 
ENDBRANCH  14  17
ENDBRANCH   9  13
BRANCH   4  24
HETATM   24  C   UNL     1       6.457  32.736  61.948  1.00  0.00     0.060 A 
HETATM   25  C   UNL     1       5.422  33.171  62.785  1.00  0.00     0.031 A 
HETATM   26  C   UNL     1       5.670  33.417  64.138  1.00  0.00     0.002 A 
HETATM   27  C   UNL     1       6.950  33.240  64.661  1.00  0.00     0.000 A 
HETATM   28  C   UNL     1       7.991  32.832  63.831  1.00  0.00     0.002 A 
HETATM   29  C   UNL     1       7.750  32.590  62.477  1.00  0.00     0.031 A 
ENDBRANCH   4  24
TORSDOF 3
ENDMDL
MODEL 7
REMARK VINA RESULT:      -9.1      5.838     10.211
REMARK  3 active torsions:
REMARK  status: ('A' for Active; 'I' for Inactive)
REMARK    1  A    between atoms: N_4  and  C_5 
REMARK    2  A    between atoms: C_15  and  C_16 
REMARK       I    between atoms: C_16  and  N_17 
REMARK    3  A    between atoms: N_17  and  C_18 
ROOT
HETATM    1  C   UNL     1       7.110  24.002  54.535  1.00  0.00     0.073 C 
HETATM    2  C   UNL     1       7.151  25.480  54.645  1.00  0.00     0.069 A 
HETATM    3  N   UNL     1       7.512  26.066  55.795  1.00  0.00    -0.170 NA
HETATM    4  N   UNL     1       7.489  27.412  55.545  1.00  0.00    -0.216 N 
HETATM    5  C   UNL     1       6.974  27.649  54.279  1.00  0.00     0.145 A 
HETATM    6  C   UNL     1       6.796  26.430  53.670  1.00  0.00     0.087 A 
HETATM    7  N   UNL     1       6.618  28.816  53.687  1.00  0.00    -0.349 N 
HETATM    8  C   UNL     1       6.042  28.759  52.428  1.00  0.00     0.111 A 
HETATM    9  C   UNL     1       5.855  27.628  51.712  1.00  0.00     0.098 A 
HETATM   10  C   UNL     1       6.281  26.320  52.321  1.00  0.00     0.205 A 
HETATM   11  O   UNL     1       6.178  25.253  51.720  1.00  0.00    -0.286 OA
HETATM   12  H   UNL     1       6.506  29.693  54.194  1.00  0.00     0.167 HD
ENDROOT
BRANCH   9  13
HETATM   13  C   UNL     1       5.200  27.741  50.370  1.00  0.00     0.261 C 
HETATM   14  N   UNL     1       4.116  26.908  50.187  1.00  0.00    -0.323 N 
HETATM   15  H   UNL     1       3.886  26.278  50.957  1.00  0.00     0.169 HD
HETATM   16  O   UNL     1       5.644  28.531  49.541  1.00  0.00    -0.267 OA
BRANCH  14  17
HETATM   17  C   UNL     1       3.268  26.823  49.065  1.00  0.00     0.035 A 
HETATM   18  C   UNL     1       3.400  25.868  48.052  1.00  0.00     0.032 A 
HETATM   19  C   UNL     1       2.523  25.866  46.963  1.00  0.00     0.044 A 
HETATM   20  C   UNL     1       1.512  26.815  46.891  1.00  0.00     0.116 A 
HETATM   21  F   UNL     1       0.673  26.811  45.846  1.00  0.00    -0.206 F 
HETATM   22  C   UNL     1       1.361  27.770  47.887  1.00  0.00     0.044 A 
HETATM   23  C   UNL     1       2.241  27.775  48.971  1.00  0.00     0.032 A 
ENDBRANCH  14  17
ENDBRANCH   9  13
BRANCH   4  24
HETATM   24  C   UNL     1       7.966  28.326  56.526  1.00  0.00     0.060 A 
HETATM   25  C   UNL     1       7.170  28.738  57.601  1.00  0.00     0.031 A 
HETATM   26  C   UNL     1       7.676  29.636  58.546  1.00  0.00     0.002 A 
HETATM   27  C   UNL     1       8.972  30.133  58.419  1.00  0.00     0.000 A 
HETATM   28  C   UNL     1       9.762  29.748  57.339  1.00  0.00     0.002 A 
HETATM   29  C   UNL     1       9.260  28.856  56.389  1.00  0.00     0.031 A 
ENDBRANCH   4  24
TORSDOF 3
ENDMDL
MODEL 8
REMARK VINA RESULT:      -8.9      5.200      9.678
REMARK  3 active torsions:
REMARK  status: ('A' for Active; 'I' for Inactive)
REMARK    1  A    between atoms: N_4  and  C_5 
REMARK    2  A    between atoms: C_15  and  C_16 
REMARK       I    between atoms: C_16  and  N_17 
REMARK    3  A    between atoms: N_17  and  C_18 
ROOT
HETATM    1  C   UNL     1       8.072  24.260  57.065  1.00  0.00     0.073 C 
HETATM    2  C   UNL     1       8.041  25.692  56.678  1.00  0.00     0.069 A 
HETATM    3  N   UNL     1       8.564  26.625  57.485  1.00  0.00    -0.170 NA
HETATM    4  N   UNL     1       8.414  27.811  56.819  1.00  0.00    -0.216 N 
HETATM    5  C   UNL     1       7.668  27.617  55.666  1.00  0.00     0.145 A 
HETATM    6  C   UNL     1       7.460  26.264  55.532  1.00  0.00     0.087 A 
HETATM    7  N   UNL     1       7.141  28.522  54.805  1.00  0.00    -0.349 N 
HETATM    8  C   UNL     1       6.354  28.052  53.766  1.00  0.00     0.111 A 
HETATM    9  C   UNL     1       6.112  26.747  53.506  1.00  0.00     0.098 A 
HETATM   10  C   UNL     1       6.720  25.715  54.415  1.00  0.00     0.205 A 
HETATM   11  O   UNL     1       6.577  24.510  54.225  1.00  0.00    -0.286 OA
HETATM   12  H   UNL     1       7.068  29.518  55.011  1.00  0.00     0.167 HD
ENDROOT
BRANCH   9  13
HETATM   13  C   UNL     1       5.222  26.411  52.349  1.00  0.00     0.261 C 
HETATM   14  N   UNL     1       5.151  27.385  51.376  1.00  0.00    -0.323 N 
HETATM   15  H   UNL     1       5.676  28.245  51.547  1.00  0.00     0.169 HD
HETATM   16  O   UNL     1       4.627  25.337  52.332  1.00  0.00    -0.267 OA
BRANCH  14  17
HETATM   17  C   UNL     1       4.449  27.342  50.155  1.00  0.00     0.035 A 
HETATM   18  C   UNL     1       4.650  26.372  49.168  1.00  0.00     0.032 A 
HETATM   19  C   UNL     1       3.921  26.414  47.976  1.00  0.00     0.044 A 
HETATM   20  C   UNL     1       2.988  27.422  47.774  1.00  0.00     0.116 A 
HETATM   21  F   UNL     1       2.290  27.460  46.631  1.00  0.00    -0.206 F 
HETATM   22  C   UNL     1       2.770  28.393  48.742  1.00  0.00     0.044 A 
HETATM   23  C   UNL     1       3.503  28.354  49.930  1.00  0.00     0.032 A 
ENDBRANCH  14  17
ENDBRANCH   9  13
BRANCH   4  24
HETATM   24  C   UNL     1       9.002  28.999  57.340  1.00  0.00     0.060 A 
HETATM   25  C   UNL     1      10.248  29.462  56.899  1.00  0.00     0.031 A 
HETATM   26  C   UNL     1      10.790  30.634  57.434  1.00  0.00     0.002 A 
HETATM   27  C   UNL     1      10.100  31.344  58.414  1.00  0.00     0.000 A 
HETATM   28  C   UNL     1       8.872  30.878  58.877  1.00  0.00     0.002 A 
HETATM   29  C   UNL     1       8.327  29.705  58.350  1.00  0.00     0.031 A 
ENDBRANCH   4  24
TORSDOF 3
ENDMDL
MODEL 9
REMARK VINA RESULT:      -8.5      4.026     10.443
REMARK  3 active torsions:
REMARK  status: ('A' for Active; 'I' for Inactive)
REMARK    1  A    between atoms: N_4  and  C_5 
REMARK    2  A    between atoms: C_15  and  C_16 
REMARK       I    between atoms: C_16  and  N_17 
REMARK    3  A    between atoms: N_17  and  C_18 
ROOT
HETATM    1  C   UNL     1       3.173  35.152  61.784  1.00  0.00     0.073 C 
HETATM    2  C   UNL     1       4.226  34.595  62.668  1.00  0.00     0.069 A 
HETATM    3  N   UNL     1       4.248  34.897  63.973  1.00  0.00    -0.170 NA
HETATM    4  N   UNL     1       5.300  34.194  64.495  1.00  0.00    -0.216 N 
HETATM    5  C   UNL     1       6.007  33.572  63.477  1.00  0.00     0.145 A 
HETATM    6  C   UNL     1       5.312  33.776  62.308  1.00  0.00     0.087 A 
HETATM    7  N   UNL     1       7.196  32.922  63.511  1.00  0.00    -0.349 N 
HETATM    8  C   UNL     1       7.724  32.464  62.315  1.00  0.00     0.111 A 
HETATM    9  C   UNL     1       7.116  32.565  61.111  1.00  0.00     0.098 A 
HETATM   10  C   UNL     1       5.774  33.242  61.044  1.00  0.00     0.205 A 
HETATM   11  O   UNL     1       5.143  33.341  59.995  1.00  0.00    -0.286 OA
HETATM   12  H   UNL     1       7.841  32.971  64.299  1.00  0.00     0.167 HD
ENDROOT
BRANCH   9  13
HETATM   13  C   UNL     1       7.835  32.032  59.910  1.00  0.00     0.261 C 
HETATM   14  N   UNL     1       7.211  30.969  59.292  1.00  0.00    -0.323 N 
HETATM   15  H   UNL     1       6.349  30.628  59.722  1.00  0.00     0.169 HD
HETATM   16  O   UNL     1       8.895  32.543  59.559  1.00  0.00    -0.267 OA
BRANCH  14  17
HETATM   17  C   UNL     1       7.607  30.292  58.121  1.00  0.00     0.035 A 
HETATM   18  C   UNL     1       8.915  29.869  57.864  1.00  0.00     0.032 A 
HETATM   19  C   UNL     1       9.225  29.218  56.665  1.00  0.00     0.044 A 
HETATM   20  C   UNL     1       8.226  28.986  55.729  1.00  0.00     0.116 A 
HETATM   21  F   UNL     1       8.526  28.363  54.581  1.00  0.00    -0.206 F 
HETATM   22  C   UNL     1       6.921  29.395  55.966  1.00  0.00     0.044 A 
HETATM   23  C   UNL     1       6.613  30.050  57.160  1.00  0.00     0.032 A 
ENDBRANCH  14  17
ENDBRANCH   9  13
BRANCH   4  24
HETATM   24  C   UNL     1       5.515  34.177  65.902  1.00  0.00     0.060 A 
HETATM   25  C   UNL     1       4.458  34.042  66.811  1.00  0.00     0.031 A 
HETATM   26  C   UNL     1       4.711  34.027  68.185  1.00  0.00     0.002 A 
HETATM   27  C   UNL     1       6.014  34.155  68.661  1.00  0.00     0.000 A 
HETATM   28  C   UNL     1       7.070  34.314  67.766  1.00  0.00     0.002 A 
HETATM   29  C   UNL     1       6.823  34.335  66.392  1.00  0.00     0.031 A 
ENDBRANCH   4  24
TORSDOF 3
ENDMDL
MODEL 10
REMARK VINA RESULT:      -8.5      4.855      9.553
REMARK  3 active torsions:
REMARK  status: ('A' for Active; 'I' for Inactive)
REMARK    1  A    between atoms: N_4  and  C_5 
REMARK    2  A    between atoms: C_15  and  C_16 
REMARK       I    between atoms: C_16  and  N_17 
REMARK    3  A    between atoms: N_17  and  C_18 
ROOT
HETATM    1  C   UNL     1       8.116  25.765  57.003  1.00  0.00     0.073 C 
HETATM    2  C   UNL     1       7.732  27.197  57.033  1.00  0.00     0.069 A 
HETATM    3  N   UNL     1       8.053  27.965  58.083  1.00  0.00    -0.170 NA
HETATM    4  N   UNL     1       7.600  29.219  57.773  1.00  0.00    -0.216 N 
HETATM    5  C   UNL     1       6.875  29.182  56.591  1.00  0.00     0.145 A 
HETATM    6  C   UNL     1       6.986  27.912  56.078  1.00  0.00     0.087 A 
HETATM    7  N   UNL     1       6.114  30.139  56.005  1.00  0.00    -0.349 N 
HETATM    8  C   UNL     1       5.418  29.804  54.854  1.00  0.00     0.111 A 
HETATM    9  C   UNL     1       5.481  28.605  54.232  1.00  0.00     0.098 A 
HETATM   10  C   UNL     1       6.352  27.535  54.832  1.00  0.00     0.205 A 
HETATM   11  O   UNL     1       6.490  26.433  54.307  1.00  0.00    -0.286 OA
HETATM   12  H   UNL     1       5.816  30.991  56.479  1.00  0.00     0.167 HD
ENDROOT
BRANCH   9  13
HETATM   13  C   UNL     1       4.649  28.403  53.003  1.00  0.00     0.261 C 
HETATM   14  N   UNL     1       5.372  28.184  51.849  1.00  0.00    -0.323 N 
HETATM   15  H   UNL     1       6.390  28.213  51.932  1.00  0.00     0.169 HD
HETATM   16  O   UNL     1       3.425  28.445  53.084  1.00  0.00    -0.267 OA
BRANCH  14  17
HETATM   17  C   UNL     1       4.881  27.909  50.557  1.00  0.00     0.035 A 
HETATM   18  C   UNL     1       4.480  28.890  49.645  1.00  0.00     0.032 A 
HETATM   19  C   UNL     1       3.987  28.527  48.388  1.00  0.00     0.044 A 
HETATM   20  C   UNL     1       3.901  27.185  48.042  1.00  0.00     0.116 A 
HETATM   21  F   UNL     1       3.427  26.840  46.837  1.00  0.00    -0.206 F 
HETATM   22  C   UNL     1       4.296  26.195  48.931  1.00  0.00     0.044 A 
HETATM   23  C   UNL     1       4.783  26.558  50.189  1.00  0.00     0.032 A 
ENDBRANCH  14  17
ENDBRANCH   9  13
BRANCH   4  24
HETATM   24  C   UNL     1       7.911  30.318  58.622  1.00  0.00     0.060 A 
HETATM   25  C   UNL     1       9.215  30.554  59.078  1.00  0.00     0.031 A 
HETATM   26  C   UNL     1       9.481  31.646  59.909  1.00  0.00     0.002 A 
HETATM   27  C   UNL     1       8.451  32.502  60.297  1.00  0.00     0.000 A 
HETATM   28  C   UNL     1       7.148  32.261  59.869  1.00  0.00     0.002 A 
HETATM   29  C   UNL     1       6.875  31.168  59.043  1.00  0.00     0.031 A 
ENDBRANCH   4  24
TORSDOF 3
ENDMDL
