MODEL 1
REMARK VINA RESULT:      -9.4      0.000      0.000
REMARK  9 active torsions:
REMARK  status: ('A' for Active; 'I' for Inactive)
REMARK    1  A    between atoms: C_3  and  C_4 
REMARK    2  A    between atoms: C_4  and  C_5 
REMARK       I    between atoms: C_5  and  N_6 
REMARK    3  A    between atoms: N_6  and  C_7 
REMARK    4  A    between atoms: C_16  and  N_17 
REMARK       I    between atoms: N_17  and  C_18 
REMARK    5  A    between atoms: C_18  and  C_19 
REMARK    6  A    between atoms: C_19  and  S_20 
REMARK    7  A    between atoms: C_26  and  C_27 
REMARK    8  A    between atoms: C_27  and  O_28 
REMARK    9  A    between atoms: C_30  and  O_31 
ROOT
HETATM    1  C   UNL     1       4.848  25.584  57.244  1.00  0.00     0.016 C 
HETATM    2  C   UNL     1       6.027  26.369  56.569  1.00  0.00    -0.030 C 
HETATM    3  C   UNL     1       6.063  25.828  55.047  1.00  0.00     0.056 C 
HETATM    4  C   UNL     1       5.275  26.739  54.125  1.00  0.00     0.056 A 
HETATM    5  C   UNL     1       4.562  27.843  54.539  1.00  0.00     0.012 A 
HETATM    6  S   UNL     1       3.771  28.577  53.223  1.00  0.00    -0.055 SA
HETATM    7  C   UNL     1       4.441  27.407  52.186  1.00  0.00     0.173 A 
HETATM    8  N   UNL     1       5.219  26.515  52.758  1.00  0.00    -0.227 NA
HETATM    9  C   UNL     1       4.466  28.358  55.925  1.00  0.00     0.055 C 
HETATM   10  C   UNL     1       5.704  27.926  56.750  1.00  0.00     0.012 C 
HETATM   11  C   UNL     1       6.936  28.923  56.652  1.00  0.00     0.008 C 
HETATM   12  C   UNL     1       6.517  30.318  57.200  1.00  0.00     0.020 C 
HETATM   13  C   UNL     1       8.098  28.396  57.545  1.00  0.00     0.128 C 
HETATM   14  C   UNL     1       8.467  26.949  57.236  1.00  0.00     0.033 C 
HETATM   15  C   UNL     1       7.276  26.007  57.414  1.00  0.00     0.013 C 
ENDROOT
BRANCH   3  16
HETATM   16  C   UNL     1       7.440  25.459  54.463  1.00  0.00     0.114 C 
BRANCH  16  17
HETATM   17  C   UNL     1       7.676  23.960  54.376  1.00  0.00     0.218 C 
HETATM   18  N   UNL     1       8.725  23.517  55.144  1.00  0.00    -0.356 N 
HETATM   19  H   UNL     1       9.472  24.201  55.257  1.00  0.00     0.162 HD
HETATM   20  O   UNL     1       6.953  23.224  53.710  1.00  0.00    -0.274 OA
BRANCH  18  21
HETATM   21  C   UNL     1       9.074  22.119  55.225  1.00  0.00     0.084 C 
HETATM   22  C   UNL     1       8.132  21.303  56.103  1.00  0.00     0.025 C 
HETATM   23  C   UNL     1       8.425  19.868  55.685  1.00  0.00     0.002 C 
HETATM   24  C   UNL     1       8.827  19.938  54.211  1.00  0.00     0.002 C 
HETATM   25  C   UNL     1       8.959  21.421  53.874  1.00  0.00     0.025 C 
ENDBRANCH  18  21
ENDBRANCH  16  17
ENDBRANCH   3  16
BRANCH  11  26
HETATM   26  C   UNL     1       7.439  29.144  55.206  1.00  0.00     0.176 C 
BRANCH  26  27
HETATM   27  O   UNL     1       8.824  29.477  55.175  1.00  0.00    -0.400 OA
HETATM   28  H   UNL     1       9.267  28.845  54.582  1.00  0.00     0.209 HD
ENDBRANCH  26  27
ENDBRANCH  11  26
BRANCH   7  29
HETATM   29  N   UNL     1       4.229  27.397  50.834  1.00  0.00    -0.305 N 
HETATM   30  C   UNL     1       4.833  28.185  49.880  1.00  0.00     0.232 C 
HETATM   31  O   UNL     1       5.670  29.063  50.071  1.00  0.00    -0.272 OA
HETATM   32  H   UNL     1       3.479  26.784  50.533  1.00  0.00     0.171 HD
BRANCH  30  33
HETATM   33  C   UNL     1       4.431  27.813  48.458  1.00  0.00     0.176 C 
BRANCH  33  34
HETATM   34  S   UNL     1       2.742  27.131  48.362  1.00  0.00    -0.164 SA
HETATM   35  C   UNL     1       3.151  25.444  47.843  1.00  0.00     0.090 C 
ENDBRANCH  33  34
ENDBRANCH  30  33
ENDBRANCH   7  29
BRANCH  13  36
HETATM   36  O   UNL     1       7.729  28.454  58.928  1.00  0.00    -0.395 OA
HETATM   37  H   UNL     1       8.542  28.615  59.437  1.00  0.00     0.210 HD
ENDBRANCH  13  36
TORSDOF 9
ENDMDL
MODEL 2
REMARK VINA RESULT:      -7.9      2.839      7.493
REMARK  9 active torsions:
REMARK  status: ('A' for Active; 'I' for Inactive)
REMARK    1  A    between atoms: C_3  and  C_4 
REMARK    2  A    between atoms: C_4  and  C_5 
REMARK       I    between atoms: C_5  and  N_6 
REMARK    3  A    between atoms: N_6  and  C_7 
REMARK    4  A    between atoms: C_16  and  N_17 
REMARK       I    between atoms: N_17  and  C_18 
REMARK    5  A    between atoms: C_18  and  C_19 
REMARK    6  A    between atoms: C_19  and  S_20 
REMARK    7  A    between atoms: C_26  and  C_27 
REMARK    8  A    between atoms: C_27  and  O_28 
REMARK    9  A    between atoms: C_30  and  O_31 
ROOT
HETATM    1  C   UNL     1       5.693  27.891  47.393  1.00  0.00     0.016 C 
HETATM    2  C   UNL     1       4.410  27.543  48.224  1.00  0.00    -0.030 C 
HETATM    3  C   UNL     1       4.965  27.142  49.688  1.00  0.00     0.056 C 
HETATM    4  C   UNL     1       4.932  28.332  50.629  1.00  0.00     0.056 A 
HETATM    5  C   UNL     1       4.549  29.605  50.267  1.00  0.00     0.012 A 
HETATM    6  S   UNL     1       4.697  30.674  51.582  1.00  0.00    -0.055 SA
HETATM    7  C   UNL     1       5.231  29.384  52.554  1.00  0.00     0.173 A 
HETATM    8  N   UNL     1       5.297  28.212  51.961  1.00  0.00    -0.227 NA
HETATM    9  C   UNL     1       4.070  30.031  48.932  1.00  0.00     0.055 C 
HETATM   10  C   UNL     1       3.461  28.830  48.165  1.00  0.00     0.012 C 
HETATM   11  C   UNL     1       1.918  28.590  48.447  1.00  0.00     0.008 C 
HETATM   12  C   UNL     1       1.109  29.842  48.001  1.00  0.00     0.020 C 
HETATM   13  C   UNL     1       1.420  27.382  47.600  1.00  0.00     0.128 C 
HETATM   14  C   UNL     1       2.273  26.133  47.799  1.00  0.00     0.033 C 
HETATM   15  C   UNL     1       3.739  26.381  47.446  1.00  0.00     0.013 C 
ENDROOT
BRANCH   3  16
HETATM   16  C   UNL     1       4.383  25.871  50.338  1.00  0.00     0.114 C 
BRANCH  16  17
HETATM   17  C   UNL     1       5.235  25.334  51.478  1.00  0.00     0.218 C 
HETATM   18  N   UNL     1       6.584  25.529  51.303  1.00  0.00    -0.356 N 
HETATM   19  H   UNL     1       6.879  25.528  50.328  1.00  0.00     0.162 HD
HETATM   20  O   UNL     1       4.739  24.819  52.475  1.00  0.00    -0.274 OA
BRANCH  18  21
HETATM   21  C   UNL     1       7.548  25.127  52.299  1.00  0.00     0.084 C 
HETATM   22  C   UNL     1       7.187  25.569  53.713  1.00  0.00     0.025 C 
HETATM   23  C   UNL     1       8.068  24.684  54.586  1.00  0.00     0.002 C 
HETATM   24  C   UNL     1       8.239  23.376  53.814  1.00  0.00     0.002 C 
HETATM   25  C   UNL     1       7.632  23.611  52.434  1.00  0.00     0.025 C 
ENDBRANCH  18  21
ENDBRANCH  16  17
ENDBRANCH   3  16
BRANCH  11  26
HETATM   26  C   UNL     1       1.591  28.356  49.942  1.00  0.00     0.176 C 
BRANCH  26  27
HETATM   27  O   UNL     1       1.049  29.524  50.551  1.00  0.00    -0.400 OA
HETATM   28  H   UNL     1       1.186  29.447  51.512  1.00  0.00     0.209 HD
ENDBRANCH  26  27
ENDBRANCH  11  26
BRANCH   7  29
HETATM   29  N   UNL     1       5.541  29.525  53.879  1.00  0.00    -0.305 N 
HETATM   30  C   UNL     1       4.929  28.926  54.956  1.00  0.00     0.232 C 
HETATM   31  O   UNL     1       3.970  28.160  54.927  1.00  0.00    -0.272 OA
HETATM   32  H   UNL     1       6.259  30.216  54.069  1.00  0.00     0.171 HD
BRANCH  30  33
HETATM   33  C   UNL     1       5.621  29.228  56.280  1.00  0.00     0.176 C 
BRANCH  33  34
HETATM   34  S   UNL     1       7.427  28.981  56.200  1.00  0.00    -0.164 SA
HETATM   35  C   UNL     1       7.798  29.068  57.972  1.00  0.00     0.090 C 
ENDBRANCH  33  34
ENDBRANCH  30  33
ENDBRANCH   7  29
BRANCH  13  36
HETATM   36  O   UNL     1       1.460  27.702  46.204  1.00  0.00    -0.395 OA
HETATM   37  H   UNL     1       1.525  26.863  45.717  1.00  0.00     0.210 HD
ENDBRANCH  13  36
TORSDOF 9
ENDMDL
MODEL 3
REMARK VINA RESULT:      -7.9      6.852      9.716
REMARK  9 active torsions:
REMARK  status: ('A' for Active; 'I' for Inactive)
REMARK    1  A    between atoms: C_3  and  C_4 
REMARK    2  A    between atoms: C_4  and  C_5 
REMARK       I    between atoms: C_5  and  N_6 
REMARK    3  A    between atoms: N_6  and  C_7 
REMARK    4  A    between atoms: C_16  and  N_17 
REMARK       I    between atoms: N_17  and  C_18 
REMARK    5  A    between atoms: C_18  and  C_19 
REMARK    6  A    between atoms: C_19  and  S_20 
REMARK    7  A    between atoms: C_26  and  C_27 
REMARK    8  A    between atoms: C_27  and  O_28 
REMARK    9  A    between atoms: C_30  and  O_31 
ROOT
HETATM    1  C   UNL     1       4.910  30.989  63.035  1.00  0.00     0.016 C 
HETATM    2  C   UNL     1       5.684  32.351  62.958  1.00  0.00    -0.030 C 
HETATM    3  C   UNL     1       5.877  32.624  61.377  1.00  0.00     0.056 C 
HETATM    4  C   UNL     1       4.776  33.519  60.840  1.00  0.00     0.056 A 
HETATM    5  C   UNL     1       3.711  33.981  61.582  1.00  0.00     0.012 A 
HETATM    6  S   UNL     1       2.663  34.910  60.616  1.00  0.00    -0.055 SA
HETATM    7  C   UNL     1       3.695  34.669  59.286  1.00  0.00     0.173 A 
HETATM    8  N   UNL     1       4.769  33.948  59.521  1.00  0.00    -0.227 NA
HETATM    9  C   UNL     1       3.468  33.728  63.021  1.00  0.00     0.055 C 
HETATM   10  C   UNL     1       4.801  33.425  63.750  1.00  0.00     0.012 C 
HETATM   11  C   UNL     1       5.561  34.713  64.285  1.00  0.00     0.008 C 
HETATM   12  C   UNL     1       4.661  35.452  65.317  1.00  0.00     0.020 C 
HETATM   13  C   UNL     1       6.861  34.277  65.021  1.00  0.00     0.128 C 
HETATM   14  C   UNL     1       7.741  33.367  64.170  1.00  0.00     0.033 C 
HETATM   15  C   UNL     1       7.002  32.102  63.737  1.00  0.00     0.013 C 
ENDROOT
BRANCH   3  16
HETATM   16  C   UNL     1       7.274  33.074  60.905  1.00  0.00     0.114 C 
BRANCH  16  17
HETATM   17  C   UNL     1       7.808  32.255  59.741  1.00  0.00     0.218 C 
HETATM   18  N   UNL     1       6.930  31.303  59.282  1.00  0.00    -0.356 N 
HETATM   19  H   UNL     1       6.315  30.927  60.002  1.00  0.00     0.162 HD
HETATM   20  O   UNL     1       8.908  32.473  59.242  1.00  0.00    -0.274 OA
BRANCH  18  21
HETATM   21  C   UNL     1       7.243  30.457  58.154  1.00  0.00     0.084 C 
HETATM   22  C   UNL     1       8.149  29.283  58.503  1.00  0.00     0.025 C 
HETATM   23  C   UNL     1       7.969  28.343  57.317  1.00  0.00     0.002 C 
HETATM   24  C   UNL     1       6.539  28.567  56.823  1.00  0.00     0.002 C 
HETATM   25  C   UNL     1       6.003  29.769  57.595  1.00  0.00     0.025 C 
ENDBRANCH  18  21
ENDBRANCH  16  17
ENDBRANCH   3  16
BRANCH  11  26
HETATM   26  C   UNL     1       5.900  35.736  63.175  1.00  0.00     0.176 C 
BRANCH  26  27
HETATM   27  O   UNL     1       6.149  37.033  63.712  1.00  0.00    -0.400 OA
HETATM   28  H   UNL     1       7.039  37.304  63.428  1.00  0.00     0.209 HD
ENDBRANCH  26  27
ENDBRANCH  11  26
BRANCH   7  29
HETATM   29  N   UNL     1       3.462  35.210  58.051  1.00  0.00    -0.305 N 
HETATM   30  C   UNL     1       2.911  34.592  56.951  1.00  0.00     0.232 C 
HETATM   31  O   UNL     1       2.540  33.425  56.869  1.00  0.00    -0.272 OA
HETATM   32  H   UNL     1       3.816  36.153  57.934  1.00  0.00     0.171 HD
BRANCH  30  33
HETATM   33  C   UNL     1       2.697  35.543  55.779  1.00  0.00     0.176 C 
BRANCH  33  34
HETATM   34  S   UNL     1       4.256  36.264  55.166  1.00  0.00    -0.164 SA
HETATM   35  C   UNL     1       5.171  34.731  54.858  1.00  0.00     0.090 C 
ENDBRANCH  33  34
ENDBRANCH  30  33
ENDBRANCH   7  29
BRANCH  13  36
HETATM   36  O   UNL     1       6.540  33.557  66.217  1.00  0.00    -0.395 OA
HETATM   37  H   UNL     1       7.093  32.757  66.231  1.00  0.00     0.210 HD
ENDBRANCH  13  36
TORSDOF 9
ENDMDL
MODEL 4
REMARK VINA RESULT:      -7.8      6.334      9.144
REMARK  9 active torsions:
REMARK  status: ('A' for Active; 'I' for Inactive)
REMARK    1  A    between atoms: C_3  and  C_4 
REMARK    2  A    between atoms: C_4  and  C_5 
REMARK       I    between atoms: C_5  and  N_6 
REMARK    3  A    between atoms: N_6  and  C_7 
REMARK    4  A    between atoms: C_16  and  N_17 
REMARK       I    between atoms: N_17  and  C_18 
REMARK    5  A    between atoms: C_18  and  C_19 
REMARK    6  A    between atoms: C_19  and  S_20 
REMARK    7  A    between atoms: C_26  and  C_27 
REMARK    8  A    between atoms: C_27  and  O_28 
REMARK    9  A    between atoms: C_30  and  O_31 
ROOT
HETATM    1  C   UNL     1       4.968  31.121  63.010  1.00  0.00     0.016 C 
HETATM    2  C   UNL     1       5.649  32.517  62.796  1.00  0.00    -0.030 C 
HETATM    3  C   UNL     1       6.304  32.433  61.321  1.00  0.00     0.056 C 
HETATM    4  C   UNL     1       5.372  33.019  60.277  1.00  0.00     0.056 A 
HETATM    5  C   UNL     1       4.106  33.496  60.537  1.00  0.00     0.012 A 
HETATM    6  S   UNL     1       3.355  34.022  59.104  1.00  0.00    -0.055 SA
HETATM    7  C   UNL     1       4.758  33.614  58.234  1.00  0.00     0.173 A 
HETATM    8  N   UNL     1       5.748  33.119  58.946  1.00  0.00    -0.227 NA
HETATM    9  C   UNL     1       3.447  33.559  61.862  1.00  0.00     0.055 C 
HETATM   10  C   UNL     1       4.506  33.620  62.991  1.00  0.00     0.012 C 
HETATM   11  C   UNL     1       4.989  35.087  63.357  1.00  0.00     0.008 C 
HETATM   12  C   UNL     1       3.775  35.922  63.858  1.00  0.00     0.020 C 
HETATM   13  C   UNL     1       6.022  35.015  64.520  1.00  0.00     0.128 C 
HETATM   14  C   UNL     1       7.172  34.057  64.226  1.00  0.00     0.033 C 
HETATM   15  C   UNL     1       6.675  32.638  63.953  1.00  0.00     0.013 C 
ENDROOT
BRANCH   3  16
HETATM   16  C   UNL     1       7.749  32.941  61.162  1.00  0.00     0.114 C 
BRANCH  16  17
HETATM   17  C   UNL     1       8.719  31.863  60.703  1.00  0.00     0.218 C 
HETATM   18  N   UNL     1       8.507  31.436  59.415  1.00  0.00    -0.356 N 
HETATM   19  H   UNL     1       7.532  31.483  59.119  1.00  0.00     0.162 HD
HETATM   20  O   UNL     1       9.631  31.460  61.420  1.00  0.00    -0.274 OA
BRANCH  18  21
HETATM   21  C   UNL     1       9.354  30.449  58.789  1.00  0.00     0.084 C 
HETATM   22  C   UNL     1       8.612  29.524  57.832  1.00  0.00     0.025 C 
HETATM   23  C   UNL     1       9.734  28.910  57.005  1.00  0.00     0.002 C 
HETATM   24  C   UNL     1      10.829  29.975  56.934  1.00  0.00     0.002 C 
HETATM   25  C   UNL     1      10.406  31.088  57.889  1.00  0.00     0.025 C 
ENDBRANCH  18  21
ENDBRANCH  16  17
ENDBRANCH   3  16
BRANCH  11  26
HETATM   26  C   UNL     1       5.595  35.855  62.158  1.00  0.00     0.176 C 
BRANCH  26  27
HETATM   27  O   UNL     1       4.695  36.839  61.654  1.00  0.00    -0.400 OA
HETATM   28  H   UNL     1       3.819  36.662  62.038  1.00  0.00     0.209 HD
ENDBRANCH  26  27
ENDBRANCH  11  26
BRANCH   7  29
HETATM   29  N   UNL     1       4.887  33.812  56.886  1.00  0.00    -0.305 N 
HETATM   30  C   UNL     1       4.810  32.869  55.885  1.00  0.00     0.232 C 
HETATM   31  O   UNL     1       4.628  31.663  56.020  1.00  0.00    -0.272 OA
HETATM   32  H   UNL     1       5.145  34.757  56.625  1.00  0.00     0.171 HD
BRANCH  30  33
HETATM   33  C   UNL     1       4.886  33.475  54.489  1.00  0.00     0.176 C 
BRANCH  33  34
HETATM   34  S   UNL     1       3.918  32.536  53.262  1.00  0.00    -0.164 SA
HETATM   35  C   UNL     1       2.255  33.051  53.765  1.00  0.00     0.090 C 
ENDBRANCH  33  34
ENDBRANCH  30  33
ENDBRANCH   7  29
BRANCH  13  36
HETATM   36  O   UNL     1       5.390  34.562  65.722  1.00  0.00    -0.395 OA
HETATM   37  H   UNL     1       4.429  34.638  65.589  1.00  0.00     0.210 HD
ENDBRANCH  13  36
TORSDOF 9
ENDMDL
MODEL 5
REMARK VINA RESULT:      -7.7      3.212      7.671
REMARK  9 active torsions:
REMARK  status: ('A' for Active; 'I' for Inactive)
REMARK    1  A    between atoms: C_3  and  C_4 
REMARK    2  A    between atoms: C_4  and  C_5 
REMARK       I    between atoms: C_5  and  N_6 
REMARK    3  A    between atoms: N_6  and  C_7 
REMARK    4  A    between atoms: C_16  and  N_17 
REMARK       I    between atoms: N_17  and  C_18 
REMARK    5  A    between atoms: C_18  and  C_19 
REMARK    6  A    between atoms: C_19  and  S_20 
REMARK    7  A    between atoms: C_26  and  C_27 
REMARK    8  A    between atoms: C_27  and  O_28 
REMARK    9  A    between atoms: C_30  and  O_31 
ROOT
HETATM    1  C   UNL     1       6.156  27.756  47.355  1.00  0.00     0.016 C 
HETATM    2  C   UNL     1       4.839  27.517  48.172  1.00  0.00    -0.030 C 
HETATM    3  C   UNL     1       5.206  27.959  49.682  1.00  0.00     0.056 C 
HETATM    4  C   UNL     1       4.796  29.397  49.943  1.00  0.00     0.056 A 
HETATM    5  C   UNL     1       4.250  30.238  49.000  1.00  0.00     0.012 A 
HETATM    6  S   UNL     1       3.974  31.783  49.658  1.00  0.00    -0.055 SA
HETATM    7  C   UNL     1       4.568  31.235  51.156  1.00  0.00     0.173 A 
HETATM    8  N   UNL     1       4.949  29.977  51.193  1.00  0.00    -0.227 NA
HETATM    9  C   UNL     1       3.930  29.893  47.595  1.00  0.00     0.055 C 
HETATM   10  C   UNL     1       3.692  28.369  47.453  1.00  0.00     0.012 C 
HETATM   11  C   UNL     1       2.195  27.913  47.720  1.00  0.00     0.008 C 
HETATM   12  C   UNL     1       1.253  28.596  46.686  1.00  0.00     0.020 C 
HETATM   13  C   UNL     1       2.079  26.374  47.516  1.00  0.00     0.128 C 
HETATM   14  C   UNL     1       3.103  25.594  48.335  1.00  0.00     0.033 C 
HETATM   15  C   UNL     1       4.536  26.005  47.996  1.00  0.00     0.013 C 
ENDROOT
BRANCH   3  16
HETATM   16  C   UNL     1       4.771  27.014  50.819  1.00  0.00     0.114 C 
BRANCH  16  17
HETATM   17  C   UNL     1       5.882  26.718  51.814  1.00  0.00     0.218 C 
HETATM   18  N   UNL     1       6.150  25.379  51.965  1.00  0.00    -0.356 N 
HETATM   19  H   UNL     1       5.339  24.777  51.827  1.00  0.00     0.162 HD
HETATM   20  O   UNL     1       6.500  27.611  52.384  1.00  0.00    -0.274 OA
BRANCH  18  21
HETATM   21  C   UNL     1       7.201  24.905  52.833  1.00  0.00     0.084 C 
HETATM   22  C   UNL     1       6.761  24.718  54.280  1.00  0.00     0.025 C 
HETATM   23  C   UNL     1       7.855  23.830  54.861  1.00  0.00     0.002 C 
HETATM   24  C   UNL     1       8.346  22.962  53.702  1.00  0.00     0.002 C 
HETATM   25  C   UNL     1       7.677  23.510  52.445  1.00  0.00     0.025 C 
ENDBRANCH  18  21
ENDBRANCH  16  17
ENDBRANCH   3  16
BRANCH  11  26
HETATM   26  C   UNL     1       1.672  28.301  49.124  1.00  0.00     0.176 C 
BRANCH  26  27
HETATM   27  O   UNL     1       0.935  29.520  49.094  1.00  0.00    -0.400 OA
HETATM   28  H   UNL     1       0.149  29.404  49.655  1.00  0.00     0.209 HD
ENDBRANCH  26  27
ENDBRANCH  11  26
BRANCH   7  29
HETATM   29  N   UNL     1       4.621  32.024  52.272  1.00  0.00    -0.305 N 
HETATM   30  C   UNL     1       3.956  31.842  53.464  1.00  0.00     0.232 C 
HETATM   31  O   UNL     1       3.172  30.939  53.742  1.00  0.00    -0.272 OA
HETATM   32  H   UNL     1       5.158  32.877  52.157  1.00  0.00     0.171 HD
BRANCH  30  33
HETATM   33  C   UNL     1       4.350  32.861  54.527  1.00  0.00     0.176 C 
BRANCH  33  34
HETATM   34  S   UNL     1       3.855  32.351  56.207  1.00  0.00    -0.164 SA
HETATM   35  C   UNL     1       5.294  31.333  56.624  1.00  0.00     0.090 C 
ENDBRANCH  33  34
ENDBRANCH  30  33
ENDBRANCH   7  29
BRANCH  13  36
HETATM   36  O   UNL     1       2.291  26.036  46.141  1.00  0.00    -0.395 OA
HETATM   37  H   UNL     1       3.248  26.086  45.975  1.00  0.00     0.210 HD
ENDBRANCH  13  36
TORSDOF 9
ENDMDL
MODEL 6
REMARK VINA RESULT:      -7.6      3.564      7.730
REMARK  9 active torsions:
REMARK  status: ('A' for Active; 'I' for Inactive)
REMARK    1  A    between atoms: C_3  and  C_4 
REMARK    2  A    between atoms: C_4  and  C_5 
REMARK       I    between atoms: C_5  and  N_6 
REMARK    3  A    between atoms: N_6  and  C_7 
REMARK    4  A    between atoms: C_16  and  N_17 
REMARK       I    between atoms: N_17  and  C_18 
REMARK    5  A    between atoms: C_18  and  C_19 
REMARK    6  A    between atoms: C_19  and  S_20 
REMARK    7  A    between atoms: C_26  and  C_27 
REMARK    8  A    between atoms: C_27  and  O_28 
REMARK    9  A    between atoms: C_30  and  O_31 
ROOT
HETATM    1  C   UNL     1       6.143  27.708  47.340  1.00  0.00     0.016 C 
HETATM    2  C   UNL     1       4.817  27.508  48.153  1.00  0.00    -0.030 C 
HETATM    3  C   UNL     1       5.180  27.983  49.655  1.00  0.00     0.056 C 
HETATM    4  C   UNL     1       4.789  29.432  49.877  1.00  0.00     0.056 A 
HETATM    5  C   UNL     1       4.261  30.258  48.909  1.00  0.00     0.012 A 
HETATM    6  S   UNL     1       4.004  31.822  49.526  1.00  0.00    -0.055 SA
HETATM    7  C   UNL     1       4.579  31.304  51.041  1.00  0.00     0.173 A 
HETATM    8  N   UNL     1       4.941  30.042  51.113  1.00  0.00    -0.227 NA
HETATM    9  C   UNL     1       3.946  29.882  47.511  1.00  0.00     0.055 C 
HETATM   10  C   UNL     1       3.687  28.359  47.405  1.00  0.00     0.012 C 
HETATM   11  C   UNL     1       2.182  27.931  47.673  1.00  0.00     0.008 C 
HETATM   12  C   UNL     1       1.258  28.601  46.615  1.00  0.00     0.020 C 
HETATM   13  C   UNL     1       2.045  26.389  47.507  1.00  0.00     0.128 C 
HETATM   14  C   UNL     1       3.052  25.616  48.352  1.00  0.00     0.033 C 
HETATM   15  C   UNL     1       4.493  25.997  48.014  1.00  0.00     0.013 C 
ENDROOT
BRANCH   3  16
HETATM   16  C   UNL     1       4.723  27.074  50.812  1.00  0.00     0.114 C 
BRANCH  16  17
HETATM   17  C   UNL     1       5.831  26.759  51.804  1.00  0.00     0.218 C 
HETATM   18  N   UNL     1       5.988  25.418  52.056  1.00  0.00    -0.356 N 
HETATM   19  H   UNL     1       5.125  24.880  51.983  1.00  0.00     0.162 HD
HETATM   20  O   UNL     1       6.540  27.637  52.288  1.00  0.00    -0.274 OA
BRANCH  18  21
HETATM   21  C   UNL     1       7.018  24.922  52.937  1.00  0.00     0.084 C 
HETATM   22  C   UNL     1       6.493  24.452  54.288  1.00  0.00     0.025 C 
HETATM   23  C   UNL     1       7.638  23.603  54.827  1.00  0.00     0.002 C 
HETATM   24  C   UNL     1       8.319  22.996  53.601  1.00  0.00     0.002 C 
HETATM   25  C   UNL     1       7.689  23.669  52.384  1.00  0.00     0.025 C 
ENDBRANCH  18  21
ENDBRANCH  16  17
ENDBRANCH   3  16
BRANCH  11  26
HETATM   26  C   UNL     1       1.655  28.361  49.063  1.00  0.00     0.176 C 
BRANCH  26  27
HETATM   27  O   UNL     1       0.942  29.594  48.998  1.00  0.00    -0.400 OA
HETATM   28  H   UNL     1       0.194  29.470  48.388  1.00  0.00     0.209 HD
ENDBRANCH  26  27
ENDBRANCH  11  26
BRANCH   7  29
HETATM   29  N   UNL     1       4.636  32.120  52.138  1.00  0.00    -0.305 N 
HETATM   30  C   UNL     1       3.986  31.960  53.341  1.00  0.00     0.232 C 
HETATM   31  O   UNL     1       3.214  31.056  53.649  1.00  0.00    -0.272 OA
HETATM   32  H   UNL     1       5.162  32.975  51.997  1.00  0.00     0.171 HD
BRANCH  30  33
HETATM   33  C   UNL     1       4.380  33.008  54.375  1.00  0.00     0.176 C 
BRANCH  33  34
HETATM   34  S   UNL     1       4.317  34.706  53.713  1.00  0.00    -0.164 SA
HETATM   35  C   UNL     1       6.096  35.039  53.629  1.00  0.00     0.090 C 
ENDBRANCH  33  34
ENDBRANCH  30  33
ENDBRANCH   7  29
BRANCH  13  36
HETATM   36  O   UNL     1       2.262  26.014  46.141  1.00  0.00    -0.395 OA
HETATM   37  H   UNL     1       1.391  25.976  45.710  1.00  0.00     0.210 HD
ENDBRANCH  13  36
TORSDOF 9
ENDMDL
MODEL 7
REMARK VINA RESULT:      -7.4      6.447      9.232
REMARK  9 active torsions:
REMARK  status: ('A' for Active; 'I' for Inactive)
REMARK    1  A    between atoms: C_3  and  C_4 
REMARK    2  A    between atoms: C_4  and  C_5 
REMARK       I    between atoms: C_5  and  N_6 
REMARK    3  A    between atoms: N_6  and  C_7 
REMARK    4  A    between atoms: C_16  and  N_17 
REMARK       I    between atoms: N_17  and  C_18 
REMARK    5  A    between atoms: C_18  and  C_19 
REMARK    6  A    between atoms: C_19  and  S_20 
REMARK    7  A    between atoms: C_26  and  C_27 
REMARK    8  A    between atoms: C_27  and  O_28 
REMARK    9  A    between atoms: C_30  and  O_31 
ROOT
HETATM    1  C   UNL     1       3.574  31.135  61.672  1.00  0.00     0.016 C 
HETATM    2  C   UNL     1       4.582  32.319  61.879  1.00  0.00    -0.030 C 
HETATM    3  C   UNL     1       5.345  32.460  60.461  1.00  0.00     0.056 C 
HETATM    4  C   UNL     1       4.689  33.516  59.592  1.00  0.00     0.056 A 
HETATM    5  C   UNL     1       3.550  34.213  59.933  1.00  0.00     0.012 A 
HETATM    6  S   UNL     1       3.093  35.269  58.679  1.00  0.00    -0.055 SA
HETATM    7  C   UNL     1       4.443  34.761  57.777  1.00  0.00     0.173 A 
HETATM    8  N   UNL     1       5.211  33.863  58.355  1.00  0.00    -0.227 NA
HETATM    9  C   UNL     1       2.794  34.093  61.200  1.00  0.00     0.055 C 
HETATM   10  C   UNL     1       3.716  33.585  62.336  1.00  0.00     0.012 C 
HETATM   11  C   UNL     1       4.491  34.732  63.112  1.00  0.00     0.008 C 
HETATM   12  C   UNL     1       3.463  35.687  63.786  1.00  0.00     0.020 C 
HETATM   13  C   UNL     1       5.355  34.099  64.242  1.00  0.00     0.128 C 
HETATM   14  C   UNL     1       6.271  32.992  63.731  1.00  0.00     0.033 C 
HETATM   15  C   UNL     1       5.485  31.868  63.057  1.00  0.00     0.013 C 
ENDROOT
BRANCH   3  16
HETATM   16  C   UNL     1       6.879  32.608  60.498  1.00  0.00     0.114 C 
BRANCH  16  17
HETATM   17  C   UNL     1       7.616  31.311  60.208  1.00  0.00     0.218 C 
HETATM   18  N   UNL     1       7.259  30.723  59.018  1.00  0.00    -0.356 N 
HETATM   19  H   UNL     1       6.294  30.899  58.744  1.00  0.00     0.162 HD
HETATM   20  O   UNL     1       8.480  30.870  60.960  1.00  0.00    -0.274 OA
BRANCH  18  21
HETATM   21  C   UNL     1       7.883  29.508  58.551  1.00  0.00     0.084 C 
HETATM   22  C   UNL     1       7.046  28.745  57.530  1.00  0.00     0.025 C 
HETATM   23  C   UNL     1       8.058  27.803  56.889  1.00  0.00     0.002 C 
HETATM   24  C   UNL     1       9.398  28.537  56.937  1.00  0.00     0.002 C 
HETATM   25  C   UNL     1       9.172  29.786  57.785  1.00  0.00     0.025 C 
ENDBRANCH  18  21
ENDBRANCH  16  17
ENDBRANCH   3  16
BRANCH  11  26
HETATM   26  C   UNL     1       5.379  35.608  62.196  1.00  0.00     0.176 C 
BRANCH  26  27
HETATM   27  O   UNL     1       5.780  36.811  62.846  1.00  0.00    -0.400 OA
HETATM   28  H   UNL     1       6.747  36.782  62.950  1.00  0.00     0.209 HD
ENDBRANCH  26  27
ENDBRANCH  11  26
BRANCH   7  29
HETATM   29  N   UNL     1       4.750  35.266  56.543  1.00  0.00    -0.305 N 
HETATM   30  C   UNL     1       5.209  36.528  56.240  1.00  0.00     0.232 C 
HETATM   31  O   UNL     1       5.413  37.448  57.027  1.00  0.00    -0.272 OA
HETATM   32  H   UNL     1       4.533  34.645  55.771  1.00  0.00     0.171 HD
BRANCH  30  33
HETATM   33  C   UNL     1       5.556  36.698  54.766  1.00  0.00     0.176 C 
BRANCH  33  34
HETATM   34  S   UNL     1       5.712  35.104  53.893  1.00  0.00    -0.164 SA
HETATM   35  C   UNL     1       7.160  35.484  52.873  1.00  0.00     0.090 C 
ENDBRANCH  33  34
ENDBRANCH  30  33
ENDBRANCH   7  29
BRANCH  13  36
HETATM   36  O   UNL     1       4.515  33.523  65.249  1.00  0.00    -0.395 OA
HETATM   37  H   UNL     1       4.246  34.241  65.847  1.00  0.00     0.210 HD
ENDBRANCH  13  36
TORSDOF 9
ENDMDL
MODEL 8
REMARK VINA RESULT:      -6.9      8.154     12.153
REMARK  9 active torsions:
REMARK  status: ('A' for Active; 'I' for Inactive)
REMARK    1  A    between atoms: C_3  and  C_4 
REMARK    2  A    between atoms: C_4  and  C_5 
REMARK       I    between atoms: C_5  and  N_6 
REMARK    3  A    between atoms: N_6  and  C_7 
REMARK    4  A    between atoms: C_16  and  N_17 
REMARK       I    between atoms: N_17  and  C_18 
REMARK    5  A    between atoms: C_18  and  C_19 
REMARK    6  A    between atoms: C_19  and  S_20 
REMARK    7  A    between atoms: C_26  and  C_27 
REMARK    8  A    between atoms: C_27  and  O_28 
REMARK    9  A    between atoms: C_30  and  O_31 
ROOT
HETATM    1  C   UNL     1       1.002  35.493  59.090  1.00  0.00     0.016 C 
HETATM    2  C   UNL     1       2.412  36.062  58.702  1.00  0.00    -0.030 C 
HETATM    3  C   UNL     1       3.440  35.336  59.715  1.00  0.00     0.056 C 
HETATM    4  C   UNL     1       4.053  34.102  59.079  1.00  0.00     0.056 A 
HETATM    5  C   UNL     1       3.724  33.621  57.831  1.00  0.00     0.012 A 
HETATM    6  S   UNL     1       4.583  32.192  57.491  1.00  0.00    -0.055 SA
HETATM    7  C   UNL     1       5.356  32.314  59.002  1.00  0.00     0.173 A 
HETATM    8  N   UNL     1       5.019  33.353  59.734  1.00  0.00    -0.227 NA
HETATM    9  C   UNL     1       2.762  34.227  56.882  1.00  0.00     0.055 C 
HETATM   10  C   UNL     1       2.622  35.746  57.148  1.00  0.00     0.012 C 
HETATM   11  C   UNL     1       3.679  36.645  56.377  1.00  0.00     0.008 C 
HETATM   12  C   UNL     1       3.497  36.457  54.843  1.00  0.00     0.020 C 
HETATM   13  C   UNL     1       3.415  38.145  56.701  1.00  0.00     0.128 C 
HETATM   14  C   UNL     1       3.366  38.422  58.200  1.00  0.00     0.033 C 
HETATM   15  C   UNL     1       2.286  37.596  58.898  1.00  0.00     0.013 C 
ENDROOT
BRANCH   3  16
HETATM   16  C   UNL     1       4.498  36.222  60.401  1.00  0.00     0.114 C 
BRANCH  16  17
HETATM   17  C   UNL     1       4.417  36.192  61.919  1.00  0.00     0.218 C 
HETATM   18  N   UNL     1       5.172  35.200  62.496  1.00  0.00    -0.356 N 
HETATM   19  H   UNL     1       5.271  34.366  61.918  1.00  0.00     0.162 HD
HETATM   20  O   UNL     1       3.766  37.017  62.553  1.00  0.00    -0.274 OA
BRANCH  18  21
HETATM   21  C   UNL     1       5.257  35.041  63.928  1.00  0.00     0.084 C 
HETATM   22  C   UNL     1       4.249  34.047  64.494  1.00  0.00     0.025 C 
HETATM   23  C   UNL     1       4.811  33.733  65.875  1.00  0.00     0.002 C 
HETATM   24  C   UNL     1       6.329  33.862  65.745  1.00  0.00     0.002 C 
HETATM   25  C   UNL     1       6.592  34.446  64.360  1.00  0.00     0.025 C 
ENDBRANCH  18  21
ENDBRANCH  16  17
ENDBRANCH   3  16
BRANCH  11  26
HETATM   26  C   UNL     1       5.149  36.286  56.700  1.00  0.00     0.176 C 
BRANCH  26  27
HETATM   27  O   UNL     1       5.981  36.385  55.546  1.00  0.00    -0.400 OA
HETATM   28  H   UNL     1       5.601  35.812  54.858  1.00  0.00     0.209 HD
ENDBRANCH  26  27
ENDBRANCH  11  26
BRANCH   7  29
HETATM   29  N   UNL     1       6.299  31.420  59.434  1.00  0.00    -0.305 N 
HETATM   30  C   UNL     1       7.657  31.616  59.541  1.00  0.00     0.232 C 
HETATM   31  O   UNL     1       8.282  32.632  59.250  1.00  0.00    -0.272 OA
HETATM   32  H   UNL     1       5.940  30.490  59.616  1.00  0.00     0.171 HD
BRANCH  30  33
HETATM   33  C   UNL     1       8.381  30.432  60.171  1.00  0.00     0.176 C 
BRANCH  33  34
HETATM   34  S   UNL     1       9.430  30.921  61.582  1.00  0.00    -0.164 SA
HETATM   35  C   UNL     1       8.131  31.476  62.716  1.00  0.00     0.090 C 
ENDBRANCH  33  34
ENDBRANCH  30  33
ENDBRANCH   7  29
BRANCH  13  36
HETATM   36  O   UNL     1       2.158  38.560  56.152  1.00  0.00    -0.395 OA
HETATM   37  H   UNL     1       2.336  39.312  55.561  1.00  0.00     0.210 HD
ENDBRANCH  13  36
TORSDOF 9
ENDMDL
MODEL 9
REMARK VINA RESULT:      -6.9      6.872     10.834
REMARK  9 active torsions:
REMARK  status: ('A' for Active; 'I' for Inactive)
REMARK    1  A    between atoms: C_3  and  C_4 
REMARK    2  A    between atoms: C_4  and  C_5 
REMARK       I    between atoms: C_5  and  N_6 
REMARK    3  A    between atoms: N_6  and  C_7 
REMARK    4  A    between atoms: C_16  and  N_17 
REMARK       I    between atoms: N_17  and  C_18 
REMARK    5  A    between atoms: C_18  and  C_19 
REMARK    6  A    between atoms: C_19  and  S_20 
REMARK    7  A    between atoms: C_26  and  C_27 
REMARK    8  A    between atoms: C_27  and  O_28 
REMARK    9  A    between atoms: C_30  and  O_31 
ROOT
HETATM    1  C   UNL     1       1.268  29.051  50.197  1.00  0.00     0.016 C 
HETATM    2  C   UNL     1       2.221  28.674  49.009  1.00  0.00    -0.030 C 
HETATM    3  C   UNL     1       2.352  30.030  48.141  1.00  0.00     0.056 C 
HETATM    4  C   UNL     1       3.588  30.815  48.540  1.00  0.00     0.056 A 
HETATM    5  C   UNL     1       4.447  30.458  49.556  1.00  0.00     0.012 A 
HETATM    6  S   UNL     1       5.683  31.615  49.734  1.00  0.00    -0.055 SA
HETATM    7  C   UNL     1       5.022  32.500  48.440  1.00  0.00     0.173 A 
HETATM    8  N   UNL     1       3.948  31.983  47.884  1.00  0.00    -0.227 NA
HETATM    9  C   UNL     1       4.350  29.248  50.404  1.00  0.00     0.055 C 
HETATM   10  C   UNL     1       3.575  28.129  49.664  1.00  0.00     0.012 C 
HETATM   11  C   UNL     1       4.483  27.200  48.750  1.00  0.00     0.008 C 
HETATM   12  C   UNL     1       5.542  26.481  49.634  1.00  0.00     0.020 C 
HETATM   13  C   UNL     1       3.597  26.103  48.089  1.00  0.00     0.128 C 
HETATM   14  C   UNL     1       2.394  26.683  47.354  1.00  0.00     0.033 C 
HETATM   15  C   UNL     1       1.502  27.507  48.281  1.00  0.00     0.013 C 
ENDROOT
BRANCH   3  16
HETATM   16  C   UNL     1       2.211  29.905  46.612  1.00  0.00     0.114 C 
BRANCH  16  17
HETATM   17  C   UNL     1       0.945  30.548  46.070  1.00  0.00     0.218 C 
HETATM   18  N   UNL     1      -0.206  30.108  46.678  1.00  0.00    -0.356 N 
HETATM   19  H   UNL     1      -0.157  29.144  47.007  1.00  0.00     0.162 HD
HETATM   20  O   UNL     1       0.974  31.413  45.199  1.00  0.00    -0.274 OA
BRANCH  18  21
HETATM   21  C   UNL     1      -1.503  30.635  46.328  1.00  0.00     0.084 C 
HETATM   22  C   UNL     1      -2.564  29.561  46.120  1.00  0.00     0.025 C 
HETATM   23  C   UNL     1      -3.869  30.343  46.206  1.00  0.00     0.002 C 
HETATM   24  C   UNL     1      -3.598  31.500  47.168  1.00  0.00     0.002 C 
HETATM   25  C   UNL     1      -2.098  31.480  47.449  1.00  0.00     0.025 C 
ENDBRANCH  18  21
ENDBRANCH  16  17
ENDBRANCH   3  16
BRANCH  11  26
HETATM   26  C   UNL     1       5.262  27.976  47.661  1.00  0.00     0.176 C 
BRANCH  26  27
HETATM   27  O   UNL     1       6.113  27.116  46.908  1.00  0.00    -0.400 OA
HETATM   28  H   UNL     1       5.590  26.755  46.171  1.00  0.00     0.209 HD
ENDBRANCH  26  27
ENDBRANCH  11  26
BRANCH   7  29
HETATM   29  N   UNL     1       5.575  33.658  47.966  1.00  0.00    -0.305 N 
HETATM   30  C   UNL     1       6.175  33.867  46.745  1.00  0.00     0.232 C 
HETATM   31  O   UNL     1       6.340  33.040  45.853  1.00  0.00    -0.272 OA
HETATM   32  H   UNL     1       5.605  34.414  48.641  1.00  0.00     0.171 HD
BRANCH  30  33
HETATM   33  C   UNL     1       6.574  35.320  46.518  1.00  0.00     0.176 C 
BRANCH  33  34
HETATM   34  S   UNL     1       8.354  35.513  46.170  1.00  0.00    -0.164 SA
HETATM   35  C   UNL     1       8.979  35.447  47.869  1.00  0.00     0.090 C 
ENDBRANCH  33  34
ENDBRANCH  30  33
ENDBRANCH   7  29
BRANCH  13  36
HETATM   36  O   UNL     1       3.093  25.204  49.083  1.00  0.00    -0.395 OA
HETATM   37  H   UNL     1       2.705  25.745  49.792  1.00  0.00     0.210 HD
ENDBRANCH  13  36
TORSDOF 9
ENDMDL
MODEL 10
REMARK VINA RESULT:      -6.8      2.838      7.446
REMARK  9 active torsions:
REMARK  status: ('A' for Active; 'I' for Inactive)
REMARK    1  A    between atoms: C_3  and  C_4 
REMARK    2  A    between atoms: C_4  and  C_5 
REMARK       I    between atoms: C_5  and  N_6 
REMARK    3  A    between atoms: N_6  and  C_7 
REMARK    4  A    between atoms: C_16  and  N_17 
REMARK       I    between atoms: N_17  and  C_18 
REMARK    5  A    between atoms: C_18  and  C_19 
REMARK    6  A    between atoms: C_19  and  S_20 
REMARK    7  A    between atoms: C_26  and  C_27 
REMARK    8  A    between atoms: C_27  and  O_28 
REMARK    9  A    between atoms: C_30  and  O_31 
ROOT
HETATM    1  C   UNL     1       1.210  29.447  50.774  1.00  0.00     0.016 C 
HETATM    2  C   UNL     1       2.669  30.018  50.698  1.00  0.00    -0.030 C 
HETATM    3  C   UNL     1       3.430  29.370  51.968  1.00  0.00     0.056 C 
HETATM    4  C   UNL     1       4.181  28.114  51.570  1.00  0.00     0.056 A 
HETATM    5  C   UNL     1       4.162  27.556  50.310  1.00  0.00     0.012 A 
HETATM    6  S   UNL     1       5.083  26.127  50.270  1.00  0.00    -0.055 SA
HETATM    7  C   UNL     1       5.473  26.348  51.911  1.00  0.00     0.173 A 
HETATM    8  N   UNL     1       4.967  27.421  52.479  1.00  0.00    -0.227 NA
HETATM    9  C   UNL     1       3.450  28.089  49.125  1.00  0.00     0.055 C 
HETATM   10  C   UNL     1       3.244  29.619  49.260  1.00  0.00     0.012 C 
HETATM   11  C   UNL     1       4.450  30.492  48.710  1.00  0.00     0.008 C 
HETATM   12  C   UNL     1       4.640  30.214  47.190  1.00  0.00     0.020 C 
HETATM   13  C   UNL     1       4.110  32.003  48.872  1.00  0.00     0.128 C 
HETATM   14  C   UNL     1       3.704  32.364  50.297  1.00  0.00     0.033 C 
HETATM   15  C   UNL     1       2.493  31.558  50.767  1.00  0.00     0.013 C 
ENDROOT
BRANCH   3  16
HETATM   16  C   UNL     1       4.290  30.313  52.831  1.00  0.00     0.114 C 
BRANCH  16  17
HETATM   17  C   UNL     1       4.429  29.851  54.273  1.00  0.00     0.218 C 
HETATM   18  N   UNL     1       5.713  29.518  54.629  1.00  0.00    -0.356 N 
HETATM   19  H   UNL     1       6.273  29.150  53.861  1.00  0.00     0.162 HD
HETATM   20  O   UNL     1       3.474  29.828  55.044  1.00  0.00    -0.274 OA
BRANCH  18  21
HETATM   21  C   UNL     1       6.049  29.099  55.968  1.00  0.00     0.084 C 
HETATM   22  C   UNL     1       5.987  27.590  56.171  1.00  0.00     0.025 C 
HETATM   23  C   UNL     1       6.778  27.380  57.456  1.00  0.00     0.002 C 
HETATM   24  C   UNL     1       7.834  28.485  57.478  1.00  0.00     0.002 C 
HETATM   25  C   UNL     1       7.496  29.424  56.323  1.00  0.00     0.025 C 
ENDBRANCH  18  21
ENDBRANCH  16  17
ENDBRANCH   3  16
BRANCH  11  26
HETATM   26  C   UNL     1       5.803  30.179  49.393  1.00  0.00     0.176 C 
BRANCH  26  27
HETATM   27  O   UNL     1       6.581  31.357  49.586  1.00  0.00    -0.400 OA
HETATM   28  H   UNL     1       7.328  31.126  50.165  1.00  0.00     0.209 HD
ENDBRANCH  26  27
ENDBRANCH  11  26
BRANCH   7  29
HETATM   29  N   UNL     1       6.290  25.498  52.607  1.00  0.00    -0.305 N 
HETATM   30  C   UNL     1       7.414  25.818  53.334  1.00  0.00     0.232 C 
HETATM   31  O   UNL     1       7.907  26.933  53.479  1.00  0.00    -0.272 OA
HETATM   32  H   UNL     1       6.064  24.516  52.494  1.00  0.00     0.171 HD
BRANCH  30  33
HETATM   33  C   UNL     1       8.006  24.623  54.072  1.00  0.00     0.176 C 
BRANCH  33  34
HETATM   34  S   UNL     1       6.931  24.030  55.421  1.00  0.00    -0.164 SA
HETATM   35  C   UNL     1       8.160  23.974  56.752  1.00  0.00     0.090 C 
ENDBRANCH  33  34
ENDBRANCH  30  33
ENDBRANCH   7  29
BRANCH  13  36
HETATM   36  O   UNL     1       3.019  32.363  48.017  1.00  0.00    -0.395 OA
HETATM   37  H   UNL     1       2.869  33.318  48.126  1.00  0.00     0.210 HD
ENDBRANCH  13  36
TORSDOF 9
ENDMDL
