MODEL 1
REMARK VINA RESULT:      -8.4      0.000      0.000
REMARK  7 active torsions:
REMARK  status: ('A' for Active; 'I' for Inactive)
REMARK    1  A    between atoms: C_6  and  C_7 
REMARK    2  A    between atoms: C_7  and  S_8 
REMARK    3  A    between atoms: S_8  and  C_9 
REMARK    4  A    between atoms: N_10  and  C_11 
REMARK    5  A    between atoms: C_14  and  C_15 
REMARK    6  A    between atoms: C_15  and  O_16 
REMARK    7  A    between atoms: C_20  and  N_21 
ROOT
HETATM    1  C   UNL     1       7.988  20.815  53.506  1.00  0.00     0.001 A 
HETATM    2  C   UNL     1       7.959  22.059  52.880  1.00  0.00     0.017 A 
HETATM    3  C   UNL     1       7.824  23.247  53.640  1.00  0.00     0.033 A 
HETATM    4  C   UNL     1       7.712  23.175  55.032  1.00  0.00     0.072 A 
HETATM    5  N   UNL     1       7.564  24.260  55.800  1.00  0.00    -0.232 NA
HETATM    6  C   UNL     1       7.507  25.458  55.187  1.00  0.00     0.138 A 
HETATM    7  N   UNL     1       7.603  25.637  53.856  1.00  0.00    -0.220 NA
HETATM    8  C   UNL     1       7.780  24.540  53.110  1.00  0.00     0.115 A 
HETATM    9  C   UNL     1       7.748  21.922  55.634  1.00  0.00     0.032 A 
HETATM   10  C   UNL     1       7.886  20.747  54.888  1.00  0.00     0.002 A 
ENDROOT
BRANCH   6  11
HETATM   11  C   UNL     1       7.268  26.673  56.050  1.00  0.00     0.163 C 
BRANCH  11  12
HETATM   12  S   UNL     1       7.607  28.234  55.171  1.00  0.00    -0.082 SA
BRANCH  12  13
HETATM   13  C   UNL     1       7.253  29.369  56.427  1.00  0.00     0.192 A 
HETATM   14  N   UNL     1       8.117  29.840  57.389  1.00  0.00    -0.305 N 
HETATM   15  C   UNL     1       7.358  30.690  58.170  1.00  0.00     0.154 A 
HETATM   16  N   UNL     1       6.132  30.748  57.683  1.00  0.00    -0.132 NA
HETATM   17  N   UNL     1       6.070  29.919  56.597  1.00  0.00    -0.123 NA
BRANCH  14  18
HETATM   18  C   UNL     1       9.535  29.602  57.616  1.00  0.00     0.094 A 
HETATM   19  C   UNL     1      10.564  29.515  56.506  1.00  0.00     0.028 A 
HETATM   20  C   UNL     1      10.609  30.662  57.460  1.00  0.00     0.028 A 
ENDBRANCH  14  18
BRANCH  15  21
HETATM   21  C   UNL     1       7.844  31.442  59.353  1.00  0.00     0.244 C 
BRANCH  21  22
HETATM   22  O   UNL     1       7.837  30.571  60.482  1.00  0.00    -0.393 OA
HETATM   23  H   UNL     1       8.433  30.968  61.148  1.00  0.00     0.209 HD
ENDBRANCH  21  22
ENDBRANCH  15  21
ENDBRANCH  12  13
ENDBRANCH  11  12
ENDBRANCH   6  11
BRANCH   8  24
HETATM   24  N   UNL     1       7.900  24.778  51.735  1.00  0.00    -0.286 NA
HETATM   25  H   UNL     1       7.653  25.754  51.586  1.00  0.00     0.125 HD
HETATM   26  H   UNL     1       8.841  24.582  51.415  1.00  0.00     0.125 HD
ENDBRANCH   8  24
TORSDOF 7
ENDMDL
MODEL 2
REMARK VINA RESULT:      -8.4      1.807      3.018
REMARK  7 active torsions:
REMARK  status: ('A' for Active; 'I' for Inactive)
REMARK    1  A    between atoms: C_6  and  C_7 
REMARK    2  A    between atoms: C_7  and  S_8 
REMARK    3  A    between atoms: S_8  and  C_9 
REMARK    4  A    between atoms: N_10  and  C_11 
REMARK    5  A    between atoms: C_14  and  C_15 
REMARK    6  A    between atoms: C_15  and  O_16 
REMARK    7  A    between atoms: C_20  and  N_21 
ROOT
HETATM    1  C   UNL     1       8.182  20.437  54.697  1.00  0.00     0.001 A 
HETATM    2  C   UNL     1       8.147  21.487  55.612  1.00  0.00     0.017 A 
HETATM    3  C   UNL     1       7.892  22.812  55.180  1.00  0.00     0.033 A 
HETATM    4  C   UNL     1       7.679  23.075  53.824  1.00  0.00     0.072 A 
HETATM    5  N   UNL     1       7.452  24.308  53.356  1.00  0.00    -0.232 NA
HETATM    6  C   UNL     1       7.449  25.323  54.241  1.00  0.00     0.138 A 
HETATM    7  N   UNL     1       7.645  25.178  55.565  1.00  0.00    -0.220 NA
HETATM    8  C   UNL     1       7.841  23.933  56.015  1.00  0.00     0.115 A 
HETATM    9  C   UNL     1       7.715  22.010  52.930  1.00  0.00     0.032 A 
HETATM   10  C   UNL     1       7.962  20.700  53.352  1.00  0.00     0.002 A 
ENDROOT
BRANCH   6  11
HETATM   11  C   UNL     1       7.264  26.720  53.700  1.00  0.00     0.163 C 
BRANCH  11  12
HETATM   12  S   UNL     1       6.734  27.903  54.982  1.00  0.00    -0.082 SA
BRANCH  12  13
HETATM   13  C   UNL     1       8.245  28.676  55.319  1.00  0.00     0.192 A 
HETATM   14  N   UNL     1       8.684  29.147  56.536  1.00  0.00    -0.305 N 
HETATM   15  C   UNL     1       9.922  29.702  56.280  1.00  0.00     0.154 A 
HETATM   16  N   UNL     1      10.217  29.540  55.004  1.00  0.00    -0.132 NA
HETATM   17  N   UNL     1       9.165  28.902  54.406  1.00  0.00    -0.123 NA
BRANCH  14  18
HETATM   18  C   UNL     1       8.088  29.101  57.863  1.00  0.00     0.094 A 
HETATM   19  C   UNL     1       8.372  30.117  58.951  1.00  0.00     0.028 A 
HETATM   20  C   UNL     1       7.011  30.055  58.343  1.00  0.00     0.028 A 
ENDBRANCH  14  18
BRANCH  15  21
HETATM   21  C   UNL     1      10.800  30.355  57.283  1.00  0.00     0.244 C 
BRANCH  21  22
HETATM   22  O   UNL     1      12.126  29.853  57.125  1.00  0.00    -0.393 OA
HETATM   23  H   UNL     1      12.731  30.614  57.236  1.00  0.00     0.209 HD
ENDBRANCH  21  22
ENDBRANCH  15  21
ENDBRANCH  12  13
ENDBRANCH  11  12
ENDBRANCH   6  11
BRANCH   8  24
HETATM   24  N   UNL     1       8.014  23.830  57.401  1.00  0.00    -0.286 NA
HETATM   25  H   UNL     1       8.832  24.388  57.634  1.00  0.00     0.125 HD
HETATM   26  H   UNL     1       7.191  24.157  57.893  1.00  0.00     0.125 HD
ENDBRANCH   8  24
TORSDOF 7
ENDMDL
MODEL 3
REMARK VINA RESULT:      -8.1      1.464      2.395
REMARK  7 active torsions:
REMARK  status: ('A' for Active; 'I' for Inactive)
REMARK    1  A    between atoms: C_6  and  C_7 
REMARK    2  A    between atoms: C_7  and  S_8 
REMARK    3  A    between atoms: S_8  and  C_9 
REMARK    4  A    between atoms: N_10  and  C_11 
REMARK    5  A    between atoms: C_14  and  C_15 
REMARK    6  A    between atoms: C_15  and  O_16 
REMARK    7  A    between atoms: C_20  and  N_21 
ROOT
HETATM    1  C   UNL     1       8.114  21.119  53.358  1.00  0.00     0.001 A 
HETATM    2  C   UNL     1       8.003  22.452  52.968  1.00  0.00     0.017 A 
HETATM    3  C   UNL     1       7.682  23.456  53.915  1.00  0.00     0.033 A 
HETATM    4  C   UNL     1       7.468  23.111  55.253  1.00  0.00     0.072 A 
HETATM    5  N   UNL     1       7.145  24.013  56.187  1.00  0.00    -0.232 NA
HETATM    6  C   UNL     1       7.010  25.295  55.798  1.00  0.00     0.138 A 
HETATM    7  N   UNL     1       7.192  25.732  54.538  1.00  0.00    -0.220 NA
HETATM    8  C   UNL     1       7.543  24.817  53.626  1.00  0.00     0.115 A 
HETATM    9  C   UNL     1       7.590  21.775  55.618  1.00  0.00     0.032 A 
HETATM   10  C   UNL     1       7.910  20.780  54.689  1.00  0.00     0.002 A 
ENDROOT
BRANCH   6  11
HETATM   11  C   UNL     1       6.575  26.297  56.840  1.00  0.00     0.163 C 
BRANCH  11  12
HETATM   12  S   UNL     1       6.345  27.969  56.150  1.00  0.00    -0.082 SA
BRANCH  12  13
HETATM   13  C   UNL     1       7.113  28.910  57.382  1.00  0.00     0.192 A 
HETATM   14  N   UNL     1       6.758  30.170  57.807  1.00  0.00    -0.305 N 
HETATM   15  C   UNL     1       7.688  30.499  58.774  1.00  0.00     0.154 A 
HETATM   16  N   UNL     1       8.520  29.487  58.939  1.00  0.00    -0.132 NA
HETATM   17  N   UNL     1       8.159  28.498  58.065  1.00  0.00    -0.123 NA
BRANCH  14  18
HETATM   18  C   UNL     1       5.657  31.044  57.429  1.00  0.00     0.094 A 
HETATM   19  C   UNL     1       4.331  30.546  56.889  1.00  0.00     0.028 A 
HETATM   20  C   UNL     1       4.379  31.193  58.232  1.00  0.00     0.028 A 
ENDBRANCH  14  18
BRANCH  15  21
HETATM   21  C   UNL     1       7.734  31.774  59.531  1.00  0.00     0.244 C 
BRANCH  21  22
HETATM   22  O   UNL     1       8.937  32.461  59.195  1.00  0.00    -0.393 OA
HETATM   23  H   UNL     1       8.690  33.390  59.012  1.00  0.00     0.209 HD
ENDBRANCH  21  22
ENDBRANCH  15  21
ENDBRANCH  12  13
ENDBRANCH  11  12
ENDBRANCH   6  11
BRANCH   8  24
HETATM   24  N   UNL     1       7.746  25.322  52.336  1.00  0.00    -0.286 NA
HETATM   25  H   UNL     1       8.539  25.957  52.392  1.00  0.00     0.125 HD
HETATM   26  H   UNL     1       7.919  24.572  51.677  1.00  0.00     0.125 HD
ENDBRANCH   8  24
TORSDOF 7
ENDMDL
MODEL 4
REMARK VINA RESULT:      -8.0      1.661      2.577
REMARK  7 active torsions:
REMARK  status: ('A' for Active; 'I' for Inactive)
REMARK    1  A    between atoms: C_6  and  C_7 
REMARK    2  A    between atoms: C_7  and  S_8 
REMARK    3  A    between atoms: S_8  and  C_9 
REMARK    4  A    between atoms: N_10  and  C_11 
REMARK    5  A    between atoms: C_14  and  C_15 
REMARK    6  A    between atoms: C_15  and  O_16 
REMARK    7  A    between atoms: C_20  and  N_21 
ROOT
HETATM    1  C   UNL     1       8.668  22.535  54.415  1.00  0.00     0.001 A 
HETATM    2  C   UNL     1       8.762  23.143  55.665  1.00  0.00     0.017 A 
HETATM    3  C   UNL     1       7.938  24.248  55.994  1.00  0.00     0.033 A 
HETATM    4  C   UNL     1       7.025  24.740  55.057  1.00  0.00     0.072 A 
HETATM    5  N   UNL     1       6.234  25.791  55.305  1.00  0.00    -0.232 NA
HETATM    6  C   UNL     1       6.351  26.393  56.503  1.00  0.00     0.138 A 
HETATM    7  N   UNL     1       7.197  26.000  57.474  1.00  0.00    -0.220 NA
HETATM    8  C   UNL     1       7.958  24.928  57.215  1.00  0.00     0.115 A 
HETATM    9  C   UNL     1       6.946  24.115  53.818  1.00  0.00     0.032 A 
HETATM   10  C   UNL     1       7.754  23.021  53.489  1.00  0.00     0.002 A 
ENDROOT
BRANCH   6  11
HETATM   11  C   UNL     1       5.509  27.621  56.753  1.00  0.00     0.163 C 
BRANCH  11  12
HETATM   12  S   UNL     1       6.088  29.070  55.808  1.00  0.00    -0.082 SA
BRANCH  12  13
HETATM   13  C   UNL     1       6.819  29.985  57.081  1.00  0.00     0.192 A 
HETATM   14  N   UNL     1       8.138  29.954  57.474  1.00  0.00    -0.305 N 
HETATM   15  C   UNL     1       8.215  30.829  58.541  1.00  0.00     0.154 A 
HETATM   16  N   UNL     1       7.029  31.370  58.746  1.00  0.00    -0.132 NA
HETATM   17  N   UNL     1       6.159  30.838  57.834  1.00  0.00    -0.123 NA
BRANCH  14  18
HETATM   18  C   UNL     1       9.288  29.235  56.946  1.00  0.00     0.094 A 
HETATM   19  C   UNL     1       9.768  29.348  55.513  1.00  0.00     0.028 A 
HETATM   20  C   UNL     1      10.616  29.889  56.615  1.00  0.00     0.028 A 
ENDBRANCH  14  18
BRANCH  15  21
HETATM   21  C   UNL     1       9.441  31.135  59.320  1.00  0.00     0.244 C 
BRANCH  21  22
HETATM   22  O   UNL     1       9.995  32.357  58.836  1.00  0.00    -0.393 OA
HETATM   23  H   UNL     1       9.610  32.510  57.950  1.00  0.00     0.209 HD
ENDBRANCH  21  22
ENDBRANCH  15  21
ENDBRANCH  12  13
ENDBRANCH  11  12
ENDBRANCH   6  11
BRANCH   8  24
HETATM   24  N   UNL     1       8.803  24.542  58.262  1.00  0.00    -0.286 NA
HETATM   25  H   UNL     1       8.321  24.774  59.127  1.00  0.00     0.125 HD
HETATM   26  H   UNL     1       9.013  23.552  58.211  1.00  0.00     0.125 HD
ENDBRANCH   8  24
TORSDOF 7
ENDMDL
MODEL 5
REMARK VINA RESULT:      -7.9      1.620      3.095
REMARK  7 active torsions:
REMARK  status: ('A' for Active; 'I' for Inactive)
REMARK    1  A    between atoms: C_6  and  C_7 
REMARK    2  A    between atoms: C_7  and  S_8 
REMARK    3  A    between atoms: S_8  and  C_9 
REMARK    4  A    between atoms: N_10  and  C_11 
REMARK    5  A    between atoms: C_14  and  C_15 
REMARK    6  A    between atoms: C_15  and  O_16 
REMARK    7  A    between atoms: C_20  and  N_21 
ROOT
HETATM    1  C   UNL     1       8.406  20.227  54.304  1.00  0.00     0.001 A 
HETATM    2  C   UNL     1       8.382  21.011  55.456  1.00  0.00     0.017 A 
HETATM    3  C   UNL     1       8.083  22.394  55.381  1.00  0.00     0.033 A 
HETATM    4  C   UNL     1       7.815  22.984  54.142  1.00  0.00     0.072 A 
HETATM    5  N   UNL     1       7.545  24.287  54.008  1.00  0.00    -0.232 NA
HETATM    6  C   UNL     1       7.553  25.046  55.121  1.00  0.00     0.138 A 
HETATM    7  N   UNL     1       7.800  24.578  56.359  1.00  0.00    -0.220 NA
HETATM    8  C   UNL     1       8.039  23.266  56.473  1.00  0.00     0.115 A 
HETATM    9  C   UNL     1       7.841  22.180  53.008  1.00  0.00     0.032 A 
HETATM   10  C   UNL     1       8.131  20.814  53.077  1.00  0.00     0.002 A 
ENDROOT
BRANCH   6  11
HETATM   11  C   UNL     1       7.319  26.528  54.957  1.00  0.00     0.163 C 
BRANCH  11  12
HETATM   12  S   UNL     1       5.872  27.117  55.898  1.00  0.00    -0.082 SA
BRANCH  12  13
HETATM   13  C   UNL     1       6.657  28.156  57.035  1.00  0.00     0.192 A 
HETATM   14  N   UNL     1       6.374  29.481  57.283  1.00  0.00    -0.305 N 
HETATM   15  C   UNL     1       7.288  29.870  58.242  1.00  0.00     0.154 A 
HETATM   16  N   UNL     1       8.042  28.837  58.570  1.00  0.00    -0.132 NA
HETATM   17  N   UNL     1       7.646  27.770  57.811  1.00  0.00    -0.123 NA
BRANCH  14  18
HETATM   18  C   UNL     1       5.351  30.368  56.749  1.00  0.00     0.094 A 
HETATM   19  C   UNL     1       4.593  30.103  55.463  1.00  0.00     0.028 A 
HETATM   20  C   UNL     1       3.866  30.055  56.765  1.00  0.00     0.028 A 
ENDBRANCH  14  18
BRANCH  15  21
HETATM   21  C   UNL     1       7.394  31.227  58.835  1.00  0.00     0.244 C 
BRANCH  21  22
HETATM   22  O   UNL     1       7.596  31.096  60.241  1.00  0.00    -0.393 OA
HETATM   23  H   UNL     1       8.165  30.311  60.372  1.00  0.00     0.209 HD
ENDBRANCH  21  22
ENDBRANCH  15  21
ENDBRANCH  12  13
ENDBRANCH  11  12
ENDBRANCH   6  11
BRANCH   8  24
HETATM   24  N   UNL     1       8.264  22.822  57.782  1.00  0.00    -0.286 NA
HETATM   25  H   UNL     1       7.828  21.907  57.859  1.00  0.00     0.125 HD
HETATM   26  H   UNL     1       9.257  22.776  57.982  1.00  0.00     0.125 HD
ENDBRANCH   8  24
TORSDOF 7
ENDMDL
MODEL 6
REMARK VINA RESULT:      -7.8      2.177      3.555
REMARK  7 active torsions:
REMARK  status: ('A' for Active; 'I' for Inactive)
REMARK    1  A    between atoms: C_6  and  C_7 
REMARK    2  A    between atoms: C_7  and  S_8 
REMARK    3  A    between atoms: S_8  and  C_9 
REMARK    4  A    between atoms: N_10  and  C_11 
REMARK    5  A    between atoms: C_14  and  C_15 
REMARK    6  A    between atoms: C_15  and  O_16 
REMARK    7  A    between atoms: C_20  and  N_21 
ROOT
HETATM    1  C   UNL     1       8.344  20.326  56.656  1.00  0.00     0.001 A 
HETATM    2  C   UNL     1       8.186  20.342  55.272  1.00  0.00     0.017 A 
HETATM    3  C   UNL     1       8.149  21.569  54.564  1.00  0.00     0.033 A 
HETATM    4  C   UNL     1       8.265  22.778  55.257  1.00  0.00     0.072 A 
HETATM    5  N   UNL     1       8.219  23.966  54.645  1.00  0.00    -0.232 NA
HETATM    6  C   UNL     1       8.036  23.977  53.311  1.00  0.00     0.138 A 
HETATM    7  N   UNL     1       7.912  22.872  52.551  1.00  0.00    -0.220 NA
HETATM    8  C   UNL     1       7.991  21.693  53.180  1.00  0.00     0.115 A 
HETATM    9  C   UNL     1       8.426  22.735  56.637  1.00  0.00     0.032 A 
HETATM   10  C   UNL     1       8.467  21.527  57.340  1.00  0.00     0.002 A 
ENDROOT
BRANCH   6  11
HETATM   11  C   UNL     1       7.913  25.320  52.633  1.00  0.00     0.163 C 
BRANCH  11  12
HETATM   12  S   UNL     1       6.428  26.237  53.162  1.00  0.00    -0.082 SA
BRANCH  12  13
HETATM   13  C   UNL     1       7.133  27.301  54.330  1.00  0.00     0.192 A 
HETATM   14  N   UNL     1       6.805  27.406  55.663  1.00  0.00    -0.305 N 
HETATM   15  C   UNL     1       7.618  28.408  56.155  1.00  0.00     0.154 A 
HETATM   16  N   UNL     1       8.403  28.846  55.188  1.00  0.00    -0.132 NA
HETATM   17  N   UNL     1       8.094  28.154  54.049  1.00  0.00    -0.123 NA
BRANCH  14  18
HETATM   18  C   UNL     1       5.863  26.665  56.489  1.00  0.00     0.094 A 
HETATM   19  C   UNL     1       5.356  25.277  56.151  1.00  0.00     0.028 A 
HETATM   20  C   UNL     1       6.240  25.466  57.338  1.00  0.00     0.028 A 
ENDBRANCH  14  18
BRANCH  15  21
HETATM   21  C   UNL     1       7.632  28.901  57.555  1.00  0.00     0.244 C 
BRANCH  21  22
HETATM   22  O   UNL     1       6.657  29.933  57.685  1.00  0.00    -0.393 OA
HETATM   23  H   UNL     1       5.979  29.769  56.998  1.00  0.00     0.209 HD
ENDBRANCH  21  22
ENDBRANCH  15  21
ENDBRANCH  12  13
ENDBRANCH  11  12
ENDBRANCH   6  11
BRANCH   8  24
HETATM   24  N   UNL     1       7.881  20.574  52.346  1.00  0.00    -0.286 NA
HETATM   25  H   UNL     1       6.901  20.499  52.087  1.00  0.00     0.125 HD
HETATM   26  H   UNL     1       8.473  20.673  51.529  1.00  0.00     0.125 HD
ENDBRANCH   8  24
TORSDOF 7
ENDMDL
MODEL 7
REMARK VINA RESULT:      -7.7      3.421      9.089
REMARK  7 active torsions:
REMARK  status: ('A' for Active; 'I' for Inactive)
REMARK    1  A    between atoms: C_6  and  C_7 
REMARK    2  A    between atoms: C_7  and  S_8 
REMARK    3  A    between atoms: S_8  and  C_9 
REMARK    4  A    between atoms: N_10  and  C_11 
REMARK    5  A    between atoms: C_14  and  C_15 
REMARK    6  A    between atoms: C_15  and  O_16 
REMARK    7  A    between atoms: C_20  and  N_21 
ROOT
HETATM    1  C   UNL     1       7.254  33.160  63.685  1.00  0.00     0.001 A 
HETATM    2  C   UNL     1       8.010  32.061  63.284  1.00  0.00     0.017 A 
HETATM    3  C   UNL     1       8.020  31.647  61.929  1.00  0.00     0.033 A 
HETATM    4  C   UNL     1       7.261  32.341  60.982  1.00  0.00     0.072 A 
HETATM    5  N   UNL     1       7.217  31.986  59.693  1.00  0.00    -0.232 NA
HETATM    6  C   UNL     1       7.926  30.905  59.317  1.00  0.00     0.138 A 
HETATM    7  N   UNL     1       8.687  30.167  60.148  1.00  0.00    -0.220 NA
HETATM    8  C   UNL     1       8.739  30.558  61.427  1.00  0.00     0.115 A 
HETATM    9  C   UNL     1       6.518  33.438  61.406  1.00  0.00     0.032 A 
HETATM   10  C   UNL     1       6.508  33.853  62.741  1.00  0.00     0.002 A 
ENDROOT
BRANCH   6  11
HETATM   11  C   UNL     1       7.817  30.465  57.877  1.00  0.00     0.163 C 
BRANCH  11  12
HETATM   12  S   UNL     1       6.259  29.583  57.530  1.00  0.00    -0.082 SA
BRANCH  12  13
HETATM   13  C   UNL     1       6.850  27.961  57.428  1.00  0.00     0.192 A 
HETATM   14  N   UNL     1       6.339  26.938  56.661  1.00  0.00    -0.305 N 
HETATM   15  C   UNL     1       7.131  25.843  56.949  1.00  0.00     0.154 A 
HETATM   16  N   UNL     1       8.072  26.200  57.802  1.00  0.00    -0.132 NA
HETATM   17  N   UNL     1       7.891  27.522  58.102  1.00  0.00    -0.123 NA
BRANCH  14  18
HETATM   18  C   UNL     1       5.244  26.901  55.702  1.00  0.00     0.094 A 
HETATM   19  C   UNL     1       4.728  28.121  54.964  1.00  0.00     0.028 A 
HETATM   20  C   UNL     1       5.425  27.044  54.203  1.00  0.00     0.028 A 
ENDBRANCH  14  18
BRANCH  15  21
HETATM   21  C   UNL     1       6.971  24.485  56.372  1.00  0.00     0.244 C 
BRANCH  21  22
HETATM   22  O   UNL     1       7.734  24.407  55.170  1.00  0.00    -0.393 OA
HETATM   23  H   UNL     1       7.095  24.322  54.434  1.00  0.00     0.209 HD
ENDBRANCH  21  22
ENDBRANCH  15  21
ENDBRANCH  12  13
ENDBRANCH  11  12
ENDBRANCH   6  11
BRANCH   8  24
HETATM   24  N   UNL     1       9.563  29.776  62.247  1.00  0.00    -0.286 NA
HETATM   25  H   UNL     1      10.432  30.291  62.362  1.00  0.00     0.125 HD
HETATM   26  H   UNL     1       9.118  29.597  63.140  1.00  0.00     0.125 HD
ENDBRANCH   8  24
TORSDOF 7
ENDMDL
MODEL 8
REMARK VINA RESULT:      -7.7      3.559      9.075
REMARK  7 active torsions:
REMARK  status: ('A' for Active; 'I' for Inactive)
REMARK    1  A    between atoms: C_6  and  C_7 
REMARK    2  A    between atoms: C_7  and  S_8 
REMARK    3  A    between atoms: S_8  and  C_9 
REMARK    4  A    between atoms: N_10  and  C_11 
REMARK    5  A    between atoms: C_14  and  C_15 
REMARK    6  A    between atoms: C_15  and  O_16 
REMARK    7  A    between atoms: C_20  and  N_21 
ROOT
HETATM    1  C   UNL     1       7.402  33.198  63.828  1.00  0.00     0.001 A 
HETATM    2  C   UNL     1       8.098  32.086  63.360  1.00  0.00     0.017 A 
HETATM    3  C   UNL     1       7.998  31.690  62.003  1.00  0.00     0.033 A 
HETATM    4  C   UNL     1       7.188  32.415  61.124  1.00  0.00     0.072 A 
HETATM    5  N   UNL     1       7.040  32.078  59.837  1.00  0.00    -0.232 NA
HETATM    6  C   UNL     1       7.692  30.985  59.398  1.00  0.00     0.138 A 
HETATM    7  N   UNL     1       8.494  30.218  60.161  1.00  0.00    -0.220 NA
HETATM    8  C   UNL     1       8.650  30.591  61.437  1.00  0.00     0.115 A 
HETATM    9  C   UNL     1       6.507  33.524  61.613  1.00  0.00     0.032 A 
HETATM   10  C   UNL     1       6.606  33.921  62.950  1.00  0.00     0.002 A 
ENDROOT
BRANCH   6  11
HETATM   11  C   UNL     1       7.467  30.567  57.965  1.00  0.00     0.163 C 
BRANCH  11  12
HETATM   12  S   UNL     1       7.892  28.818  57.671  1.00  0.00    -0.082 SA
BRANCH  12  13
HETATM   13  C   UNL     1       6.825  28.468  56.356  1.00  0.00     0.192 A 
HETATM   14  N   UNL     1       6.645  27.253  55.732  1.00  0.00    -0.305 N 
HETATM   15  C   UNL     1       5.723  27.494  54.733  1.00  0.00     0.154 A 
HETATM   16  N   UNL     1       5.350  28.760  54.782  1.00  0.00    -0.132 NA
HETATM   17  N   UNL     1       6.044  29.365  55.794  1.00  0.00    -0.123 NA
BRANCH  14  18
HETATM   18  C   UNL     1       7.212  25.938  55.995  1.00  0.00     0.094 A 
HETATM   19  C   UNL     1       7.735  25.500  57.349  1.00  0.00     0.028 A 
HETATM   20  C   UNL     1       6.509  24.857  56.793  1.00  0.00     0.028 A 
ENDBRANCH  14  18
BRANCH  15  21
HETATM   21  C   UNL     1       5.207  26.488  53.772  1.00  0.00     0.244 C 
BRANCH  21  22
HETATM   22  O   UNL     1       3.902  26.884  53.353  1.00  0.00    -0.393 OA
HETATM   23  H   UNL     1       3.693  27.713  53.828  1.00  0.00     0.209 HD
ENDBRANCH  21  22
ENDBRANCH  15  21
ENDBRANCH  12  13
ENDBRANCH  11  12
ENDBRANCH   6  11
BRANCH   8  24
HETATM   24  N   UNL     1       9.512  29.779  62.185  1.00  0.00    -0.286 NA
HETATM   25  H   UNL     1       9.143  29.756  63.132  1.00  0.00     0.125 HD
HETATM   26  H   UNL     1       9.566  28.848  61.787  1.00  0.00     0.125 HD
ENDBRANCH   8  24
TORSDOF 7
ENDMDL
MODEL 9
REMARK VINA RESULT:      -7.6      1.875      3.315
REMARK  7 active torsions:
REMARK  status: ('A' for Active; 'I' for Inactive)
REMARK    1  A    between atoms: C_6  and  C_7 
REMARK    2  A    between atoms: C_7  and  S_8 
REMARK    3  A    between atoms: S_8  and  C_9 
REMARK    4  A    between atoms: N_10  and  C_11 
REMARK    5  A    between atoms: C_14  and  C_15 
REMARK    6  A    between atoms: C_15  and  O_16 
REMARK    7  A    between atoms: C_20  and  N_21 
ROOT
HETATM    1  C   UNL     1       7.945  22.329  53.739  1.00  0.00     0.001 A 
HETATM    2  C   UNL     1       7.955  22.870  55.023  1.00  0.00     0.017 A 
HETATM    3  C   UNL     1       7.722  24.253  55.224  1.00  0.00     0.033 A 
HETATM    4  C   UNL     1       7.487  25.088  54.128  1.00  0.00     0.072 A 
HETATM    5  N   UNL     1       7.279  26.404  54.256  1.00  0.00    -0.232 NA
HETATM    6  C   UNL     1       7.319  26.926  55.496  1.00  0.00     0.138 A 
HETATM    7  N   UNL     1       7.538  26.212  56.616  1.00  0.00    -0.220 NA
HETATM    8  C   UNL     1       7.714  24.893  56.467  1.00  0.00     0.115 A 
HETATM    9  C   UNL     1       7.478  24.524  52.857  1.00  0.00     0.032 A 
HETATM   10  C   UNL     1       7.703  23.159  52.653  1.00  0.00     0.002 A 
ENDROOT
BRANCH   6  11
HETATM   11  C   UNL     1       7.155  28.421  55.629  1.00  0.00     0.163 C 
BRANCH  11  12
HETATM   12  S   UNL     1       5.961  28.881  56.928  1.00  0.00    -0.082 SA
BRANCH  12  13
HETATM   13  C   UNL     1       7.022  29.665  58.047  1.00  0.00     0.192 A 
HETATM   14  N   UNL     1       6.938  30.962  58.502  1.00  0.00    -0.305 N 
HETATM   15  C   UNL     1       8.022  31.118  59.344  1.00  0.00     0.154 A 
HETATM   16  N   UNL     1       8.686  29.979  59.413  1.00  0.00    -0.132 NA
HETATM   17  N   UNL     1       8.060  29.075  58.599  1.00  0.00    -0.123 NA
BRANCH  14  18
HETATM   18  C   UNL     1       5.961  32.013  58.255  1.00  0.00     0.094 A 
HETATM   19  C   UNL     1       4.542  31.753  57.789  1.00  0.00     0.028 A 
HETATM   20  C   UNL     1       4.777  32.298  59.158  1.00  0.00     0.028 A 
ENDBRANCH  14  18
BRANCH  15  21
HETATM   21  C   UNL     1       8.374  32.358  60.078  1.00  0.00     0.244 C 
BRANCH  21  22
HETATM   22  O   UNL     1       9.795  32.449  60.166  1.00  0.00    -0.393 OA
HETATM   23  H   UNL     1      10.143  31.542  60.050  1.00  0.00     0.209 HD
ENDBRANCH  21  22
ENDBRANCH  15  21
ENDBRANCH  12  13
ENDBRANCH  11  12
ENDBRANCH   6  11
BRANCH   8  24
HETATM   24  N   UNL     1       7.914  24.189  57.662  1.00  0.00    -0.286 NA
HETATM   25  H   UNL     1       7.164  23.505  57.726  1.00  0.00     0.125 HD
HETATM   26  H   UNL     1       8.824  23.742  57.669  1.00  0.00     0.125 HD
ENDBRANCH   8  24
TORSDOF 7
ENDMDL
MODEL 10
REMARK VINA RESULT:      -7.5      2.654      7.935
REMARK  7 active torsions:
REMARK  status: ('A' for Active; 'I' for Inactive)
REMARK    1  A    between atoms: C_6  and  C_7 
REMARK    2  A    between atoms: C_7  and  S_8 
REMARK    3  A    between atoms: S_8  and  C_9 
REMARK    4  A    between atoms: N_10  and  C_11 
REMARK    5  A    between atoms: C_14  and  C_15 
REMARK    6  A    between atoms: C_15  and  O_16 
REMARK    7  A    between atoms: C_20  and  N_21 
ROOT
HETATM    1  C   UNL     1       9.058  32.192  60.162  1.00  0.00     0.001 A 
HETATM    2  C   UNL     1       9.947  31.575  59.283  1.00  0.00     0.017 A 
HETATM    3  C   UNL     1       9.468  30.765  58.224  1.00  0.00     0.033 A 
HETATM    4  C   UNL     1       8.094  30.574  58.058  1.00  0.00     0.072 A 
HETATM    5  N   UNL     1       7.585  29.805  57.089  1.00  0.00    -0.232 NA
HETATM    6  C   UNL     1       8.449  29.188  56.261  1.00  0.00     0.138 A 
HETATM    7  N   UNL     1       9.789  29.304  56.335  1.00  0.00    -0.220 NA
HETATM    8  C   UNL     1      10.274  30.101  57.294  1.00  0.00     0.115 A 
HETATM    9  C   UNL     1       7.227  31.203  58.945  1.00  0.00     0.032 A 
HETATM   10  C   UNL     1       7.694  32.007  59.989  1.00  0.00     0.002 A 
ENDROOT
BRANCH   6  11
HETATM   11  C   UNL     1       7.874  28.265  55.213  1.00  0.00     0.163 C 
BRANCH  11  12
HETATM   12  S   UNL     1       6.556  27.192  55.873  1.00  0.00    -0.082 SA
BRANCH  12  13
HETATM   13  C   UNL     1       7.484  25.788  56.273  1.00  0.00     0.192 A 
HETATM   14  N   UNL     1       7.431  24.555  55.663  1.00  0.00    -0.305 N 
HETATM   15  C   UNL     1       8.330  23.771  56.359  1.00  0.00     0.154 A 
HETATM   16  N   UNL     1       8.907  24.498  57.297  1.00  0.00    -0.132 NA
HETATM   17  N   UNL     1       8.373  25.757  57.242  1.00  0.00    -0.123 NA
BRANCH  14  18
HETATM   18  C   UNL     1       6.670  24.074  54.519  1.00  0.00     0.094 A 
HETATM   19  C   UNL     1       6.072  24.981  53.462  1.00  0.00     0.028 A 
HETATM   20  C   UNL     1       7.193  24.068  53.095  1.00  0.00     0.028 A 
ENDBRANCH  14  18
BRANCH  15  21
HETATM   21  C   UNL     1       8.625  22.343  56.083  1.00  0.00     0.244 C 
BRANCH  21  22
HETATM   22  O   UNL     1       9.586  22.270  55.032  1.00  0.00    -0.393 OA
HETATM   23  H   UNL     1      10.462  22.427  55.439  1.00  0.00     0.209 HD
ENDBRANCH  21  22
ENDBRANCH  15  21
ENDBRANCH  12  13
ENDBRANCH  11  12
ENDBRANCH   6  11
BRANCH   8  24
HETATM   24  N   UNL     1      11.670  30.210  57.316  1.00  0.00    -0.286 NA
HETATM   25  H   UNL     1      11.893  30.979  57.943  1.00  0.00     0.125 HD
HETATM   26  H   UNL     1      12.096  29.344  57.627  1.00  0.00     0.125 HD
ENDBRANCH   8  24
TORSDOF 7
ENDMDL
