MODEL 1
REMARK VINA RESULT:      -9.6      0.000      0.000
REMARK  9 active torsions:
REMARK  status: ('A' for Active; 'I' for Inactive)
REMARK    1  A    between atoms: C_2  and  O_3 
REMARK    2  A    between atoms: O_3  and  C_4 
REMARK    3  A    between atoms: C_7  and  N_8 
REMARK       I    between atoms: N_8  and  C_9 
REMARK    4  A    between atoms: C_9  and  C_10 
REMARK    5  A    between atoms: C_11  and  N_12 
REMARK       I    between atoms: N_12  and  C_13 
REMARK    6  A    between atoms: C_13  and  C_14 
REMARK    7  A    between atoms: C_14  and  N_15 
REMARK    8  A    between atoms: N_15  and  C_18 
REMARK    9  A    between atoms: C_18  and  C_19 
ROOT
HETATM    1  C   UNL     1       5.318  27.186  51.431  1.00  0.00     0.073 A 
HETATM    2  C   UNL     1       5.439  28.480  51.957  1.00  0.00     0.093 A 
HETATM    3  S   UNL     1       5.014  29.708  50.845  1.00  0.00    -0.075 SA
HETATM    4  C   UNL     1       4.723  28.572  49.662  1.00  0.00    -0.008 A 
HETATM    5  C   UNL     1       4.925  27.279  50.060  1.00  0.00    -0.026 A 
HETATM    6  C   UNL     1       4.676  26.353  48.917  1.00  0.00     0.041 C 
HETATM    7  C   UNL     1       4.642  27.316  47.693  1.00  0.00     0.010 C 
HETATM    8  C   UNL     1       4.301  28.727  48.251  1.00  0.00     0.047 C 
ENDROOT
BRANCH   2   9
HETATM    9  N   UNL     1       5.878  28.791  53.238  1.00  0.00    -0.319 N 
HETATM   10  C   UNL     1       5.110  28.919  54.371  1.00  0.00     0.248 C 
HETATM   11  O   UNL     1       3.907  28.705  54.520  1.00  0.00    -0.271 OA
HETATM   12  H   UNL     1       6.895  28.897  53.293  1.00  0.00     0.169 HD
BRANCH  10  13
HETATM   13  C   UNL     1       5.896  29.368  55.604  1.00  0.00     0.335 C 
BRANCH  13  14
HETATM   14  N   UNL     1       6.904  28.298  55.955  1.00  0.00    -0.059 N 
HETATM   15  H   UNL     1       6.426  27.405  55.738  1.00  0.00     0.278 HD
HETATM   16  H   UNL     1       7.665  28.324  55.266  1.00  0.00     0.278 HD
BRANCH  14  17
HETATM   17  C   UNL     1       7.446  28.236  57.344  1.00  0.00     0.215 C 
HETATM   18  C   UNL     1       7.740  26.783  57.715  1.00  0.00     0.045 C 
BRANCH  17  19
HETATM   19  C   UNL     1       8.569  29.229  57.553  1.00  0.00    -0.028 A 
HETATM   20  C   UNL     1       8.460  30.338  58.408  1.00  0.00     0.009 A 
HETATM   21  C   UNL     1       9.538  31.209  58.586  1.00  0.00     0.001 A 
HETATM   22  C   UNL     1      10.737  30.988  57.917  1.00  0.00     0.000 A 
HETATM   23  C   UNL     1      10.865  29.894  57.066  1.00  0.00     0.001 A 
HETATM   24  C   UNL     1       9.792  29.020  56.888  1.00  0.00     0.009 A 
ENDBRANCH  17  19
ENDBRANCH  14  17
ENDBRANCH  13  14
ENDBRANCH  10  13
ENDBRANCH   2   9
BRANCH   1  25
HETATM   25  C   UNL     1       5.584  25.996  52.264  1.00  0.00     0.259 C 
HETATM   26  N   UNL     1       6.919  25.750  52.506  1.00  0.00    -0.323 N 
HETATM   27  H   UNL     1       7.581  26.378  52.079  1.00  0.00     0.169 HD
HETATM   28  O   UNL     1       4.645  25.289  52.626  1.00  0.00    -0.267 OA
BRANCH  26  29
HETATM   29  C   UNL     1       7.497  24.654  53.178  1.00  0.00     0.035 A 
HETATM   30  C   UNL     1       7.849  23.449  52.571  1.00  0.00     0.032 A 
HETATM   31  C   UNL     1       8.471  22.432  53.310  1.00  0.00     0.039 A 
HETATM   32  C   UNL     1       8.749  22.613  54.663  1.00  0.00     0.068 A 
HETATM   33  C   UNL     1       8.362  23.800  55.282  1.00  0.00     0.039 A 
HETATM   34  C   UNL     1       7.745  24.814  54.547  1.00  0.00     0.032 A 
BRANCH  32  35
HETATM   35  O   UNL     1       9.371  21.715  55.483  1.00  0.00    -0.352 OA
BRANCH  35  36
HETATM   36  C   UNL     1       8.922  20.362  55.410  1.00  0.00     0.171 C 
HETATM   37  C   UNL     1       7.574  20.279  56.103  1.00  0.00     0.034 C 
ENDBRANCH  35  36
ENDBRANCH  32  35
ENDBRANCH  26  29
ENDBRANCH   1  25
TORSDOF 9
ENDMDL
MODEL 2
REMARK VINA RESULT:      -9.6      3.142      6.792
REMARK  9 active torsions:
REMARK  status: ('A' for Active; 'I' for Inactive)
REMARK    1  A    between atoms: C_2  and  O_3 
REMARK    2  A    between atoms: O_3  and  C_4 
REMARK    3  A    between atoms: C_7  and  N_8 
REMARK       I    between atoms: N_8  and  C_9 
REMARK    4  A    between atoms: C_9  and  C_10 
REMARK    5  A    between atoms: C_11  and  N_12 
REMARK       I    between atoms: N_12  and  C_13 
REMARK    6  A    between atoms: C_13  and  C_14 
REMARK    7  A    between atoms: C_14  and  N_15 
REMARK    8  A    between atoms: N_15  and  C_18 
REMARK    9  A    between atoms: C_18  and  C_19 
ROOT
HETATM    1  C   UNL     1       7.407  25.860  55.150  1.00  0.00     0.073 A 
HETATM    2  C   UNL     1       7.660  26.331  56.446  1.00  0.00     0.093 A 
HETATM    3  S   UNL     1       8.283  25.133  57.496  1.00  0.00    -0.075 SA
HETATM    4  C   UNL     1       8.179  23.987  56.292  1.00  0.00    -0.008 A 
HETATM    5  C   UNL     1       7.693  24.460  55.104  1.00  0.00    -0.026 A 
HETATM    6  C   UNL     1       7.604  23.347  54.114  1.00  0.00     0.041 C 
HETATM    7  C   UNL     1       7.776  22.079  55.004  1.00  0.00     0.010 C 
HETATM    8  C   UNL     1       8.506  22.542  56.297  1.00  0.00     0.047 C 
ENDROOT
BRANCH   2   9
HETATM    9  N   UNL     1       7.422  27.625  56.892  1.00  0.00    -0.319 N 
HETATM   10  C   UNL     1       8.360  28.581  57.205  1.00  0.00     0.248 C 
HETATM   11  O   UNL     1       9.583  28.537  57.077  1.00  0.00    -0.271 OA
HETATM   12  H   UNL     1       6.425  27.847  56.949  1.00  0.00     0.169 HD
BRANCH  10  13
HETATM   13  C   UNL     1       7.764  29.874  57.764  1.00  0.00     0.335 C 
BRANCH  13  14
HETATM   14  N   UNL     1       7.905  29.864  59.269  1.00  0.00    -0.059 N 
HETATM   15  H   UNL     1       6.954  30.072  59.624  1.00  0.00     0.278 HD
HETATM   16  H   UNL     1       8.059  28.897  59.579  1.00  0.00     0.278 HD
BRANCH  14  17
HETATM   17  C   UNL     1       8.881  30.791  59.914  1.00  0.00     0.215 C 
HETATM   18  C   UNL     1       9.653  31.552  58.837  1.00  0.00     0.045 C 
BRANCH  17  19
HETATM   19  C   UNL     1       8.231  31.625  60.998  1.00  0.00    -0.028 A 
HETATM   20  C   UNL     1       8.727  31.695  62.309  1.00  0.00     0.009 A 
HETATM   21  C   UNL     1       8.104  32.502  63.265  1.00  0.00     0.001 A 
HETATM   22  C   UNL     1       6.981  33.250  62.927  1.00  0.00     0.000 A 
HETATM   23  C   UNL     1       6.475  33.196  61.632  1.00  0.00     0.001 A 
HETATM   24  C   UNL     1       7.096  32.393  60.674  1.00  0.00     0.009 A 
ENDBRANCH  17  19
ENDBRANCH  14  17
ENDBRANCH  13  14
ENDBRANCH  10  13
ENDBRANCH   2   9
BRANCH   1  25
HETATM   25  C   UNL     1       6.922  26.765  54.090  1.00  0.00     0.259 C 
HETATM   26  N   UNL     1       5.807  26.316  53.415  1.00  0.00    -0.323 N 
HETATM   27  H   UNL     1       5.445  25.415  53.685  1.00  0.00     0.169 HD
HETATM   28  O   UNL     1       7.550  27.793  53.838  1.00  0.00    -0.267 OA
BRANCH  26  29
HETATM   29  C   UNL     1       5.165  26.898  52.303  1.00  0.00     0.035 A 
HETATM   30  C   UNL     1       4.373  28.045  52.358  1.00  0.00     0.032 A 
HETATM   31  C   UNL     1       3.818  28.586  51.188  1.00  0.00     0.039 A 
HETATM   32  C   UNL     1       4.052  27.983  49.954  1.00  0.00     0.068 A 
HETATM   33  C   UNL     1       4.808  26.815  49.902  1.00  0.00     0.039 A 
HETATM   34  C   UNL     1       5.364  26.277  51.064  1.00  0.00     0.032 A 
BRANCH  32  35
HETATM   35  O   UNL     1       3.592  28.424  48.745  1.00  0.00    -0.352 OA
BRANCH  35  36
HETATM   36  C   UNL     1       2.833  27.496  47.970  1.00  0.00     0.171 C 
HETATM   37  C   UNL     1       1.389  27.572  48.433  1.00  0.00     0.034 C 
ENDBRANCH  35  36
ENDBRANCH  32  35
ENDBRANCH  26  29
ENDBRANCH   1  25
TORSDOF 9
ENDMDL
MODEL 3
REMARK VINA RESULT:      -9.5      2.516      7.045
REMARK  9 active torsions:
REMARK  status: ('A' for Active; 'I' for Inactive)
REMARK    1  A    between atoms: C_2  and  O_3 
REMARK    2  A    between atoms: O_3  and  C_4 
REMARK    3  A    between atoms: C_7  and  N_8 
REMARK       I    between atoms: N_8  and  C_9 
REMARK    4  A    between atoms: C_9  and  C_10 
REMARK    5  A    between atoms: C_11  and  N_12 
REMARK       I    between atoms: N_12  and  C_13 
REMARK    6  A    between atoms: C_13  and  C_14 
REMARK    7  A    between atoms: C_14  and  N_15 
REMARK    8  A    between atoms: N_15  and  C_18 
REMARK    9  A    between atoms: C_18  and  C_19 
ROOT
HETATM    1  C   UNL     1       3.839  29.557  53.711  1.00  0.00     0.073 A 
HETATM    2  C   UNL     1       3.644  28.519  52.789  1.00  0.00     0.093 A 
HETATM    3  S   UNL     1       2.994  29.048  51.298  1.00  0.00    -0.075 SA
HETATM    4  C   UNL     1       2.915  30.614  51.858  1.00  0.00    -0.008 A 
HETATM    5  C   UNL     1       3.365  30.778  53.140  1.00  0.00    -0.026 A 
HETATM    6  C   UNL     1       3.211  32.204  53.552  1.00  0.00     0.041 C 
HETATM    7  C   UNL     1       2.275  32.784  52.448  1.00  0.00     0.010 C 
HETATM    8  C   UNL     1       2.422  31.853  51.211  1.00  0.00     0.047 C 
ENDROOT
BRANCH   2   9
HETATM    9  N   UNL     1       3.911  27.176  53.021  1.00  0.00    -0.319 N 
HETATM   10  C   UNL     1       5.002  26.459  52.588  1.00  0.00     0.248 C 
HETATM   11  O   UNL     1       6.003  26.856  51.993  1.00  0.00    -0.271 OA
HETATM   12  H   UNL     1       3.201  26.727  53.606  1.00  0.00     0.169 HD
BRANCH  10  13
HETATM   13  C   UNL     1       4.941  24.970  52.933  1.00  0.00     0.335 C 
BRANCH  13  14
HETATM   14  N   UNL     1       5.600  24.755  54.277  1.00  0.00    -0.059 N 
HETATM   15  H   UNL     1       5.349  25.594  54.830  1.00  0.00     0.278 HD
HETATM   16  H   UNL     1       5.108  23.999  54.768  1.00  0.00     0.278 HD
BRANCH  14  17
HETATM   17  C   UNL     1       7.078  24.554  54.338  1.00  0.00     0.215 C 
HETATM   18  C   UNL     1       7.655  25.348  55.508  1.00  0.00     0.045 C 
BRANCH  17  19
HETATM   19  C   UNL     1       7.448  23.088  54.266  1.00  0.00    -0.028 A 
HETATM   20  C   UNL     1       7.777  22.440  53.065  1.00  0.00     0.009 A 
HETATM   21  C   UNL     1       8.138  21.089  53.059  1.00  0.00     0.001 A 
HETATM   22  C   UNL     1       8.178  20.369  54.248  1.00  0.00     0.000 A 
HETATM   23  C   UNL     1       7.857  20.993  55.449  1.00  0.00     0.001 A 
HETATM   24  C   UNL     1       7.498  22.342  55.460  1.00  0.00     0.009 A 
ENDBRANCH  17  19
ENDBRANCH  14  17
ENDBRANCH  13  14
ENDBRANCH  10  13
ENDBRANCH   2   9
BRANCH   1  25
HETATM   25  C   UNL     1       4.447  29.300  55.032  1.00  0.00     0.259 C 
HETATM   26  N   UNL     1       5.608  30.003  55.277  1.00  0.00    -0.323 N 
HETATM   27  H   UNL     1       5.944  30.597  54.536  1.00  0.00     0.169 HD
HETATM   28  O   UNL     1       3.941  28.465  55.779  1.00  0.00    -0.267 OA
BRANCH  26  29
HETATM   29  C   UNL     1       6.466  29.910  56.392  1.00  0.00     0.035 A 
HETATM   30  C   UNL     1       7.578  29.071  56.466  1.00  0.00     0.032 A 
HETATM   31  C   UNL     1       8.409  29.086  57.597  1.00  0.00     0.039 A 
HETATM   32  C   UNL     1       8.135  29.942  58.661  1.00  0.00     0.068 A 
HETATM   33  C   UNL     1       7.003  30.752  58.607  1.00  0.00     0.039 A 
HETATM   34  C   UNL     1       6.176  30.740  57.481  1.00  0.00     0.032 A 
BRANCH  32  35
HETATM   35  O   UNL     1       8.877  30.069  59.801  1.00  0.00    -0.352 OA
BRANCH  35  36
HETATM   36  C   UNL     1       8.398  30.989  60.781  1.00  0.00     0.171 C 
HETATM   37  C   UNL     1       9.601  31.632  61.446  1.00  0.00     0.034 C 
ENDBRANCH  35  36
ENDBRANCH  32  35
ENDBRANCH  26  29
ENDBRANCH   1  25
TORSDOF 9
ENDMDL
MODEL 4
REMARK VINA RESULT:      -9.4      2.983      7.112
REMARK  9 active torsions:
REMARK  status: ('A' for Active; 'I' for Inactive)
REMARK    1  A    between atoms: C_2  and  O_3 
REMARK    2  A    between atoms: O_3  and  C_4 
REMARK    3  A    between atoms: C_7  and  N_8 
REMARK       I    between atoms: N_8  and  C_9 
REMARK    4  A    between atoms: C_9  and  C_10 
REMARK    5  A    between atoms: C_11  and  N_12 
REMARK       I    between atoms: N_12  and  C_13 
REMARK    6  A    between atoms: C_13  and  C_14 
REMARK    7  A    between atoms: C_14  and  N_15 
REMARK    8  A    between atoms: N_15  and  C_18 
REMARK    9  A    between atoms: C_18  and  C_19 
ROOT
HETATM    1  C   UNL     1       7.576  30.069  58.364  1.00  0.00     0.073 A 
HETATM    2  C   UNL     1       6.488  30.793  57.854  1.00  0.00     0.093 A 
HETATM    3  S   UNL     1       6.128  32.203  58.753  1.00  0.00    -0.075 SA
HETATM    4  C   UNL     1       7.344  31.854  59.836  1.00  0.00    -0.008 A 
HETATM    5  C   UNL     1       8.036  30.708  59.558  1.00  0.00    -0.026 A 
HETATM    6  C   UNL     1       9.069  30.471  60.608  1.00  0.00     0.041 C 
HETATM    7  C   UNL     1       8.646  31.459  61.737  1.00  0.00     0.010 C 
HETATM    8  C   UNL     1       7.789  32.565  61.058  1.00  0.00     0.047 C 
ENDROOT
BRANCH   2   9
HETATM    9  N   UNL     1       5.730  30.432  56.747  1.00  0.00    -0.319 N 
HETATM   10  C   UNL     1       4.390  30.125  56.722  1.00  0.00     0.248 C 
HETATM   11  O   UNL     1       3.564  30.187  57.633  1.00  0.00    -0.271 OA
HETATM   12  H   UNL     1       6.271  30.439  55.878  1.00  0.00     0.169 HD
BRANCH  10  13
HETATM   13  C   UNL     1       3.884  29.671  55.353  1.00  0.00     0.335 C 
BRANCH  13  14
HETATM   14  N   UNL     1       4.346  28.252  55.110  1.00  0.00    -0.059 N 
HETATM   15  H   UNL     1       5.348  28.252  55.376  1.00  0.00     0.278 HD
HETATM   16  H   UNL     1       3.920  27.641  55.817  1.00  0.00     0.278 HD
BRANCH  14  17
HETATM   17  C   UNL     1       4.204  27.664  53.745  1.00  0.00     0.215 C 
HETATM   18  C   UNL     1       4.021  28.784  52.721  1.00  0.00     0.045 C 
BRANCH  17  19
HETATM   19  C   UNL     1       5.291  26.652  53.454  1.00  0.00    -0.028 A 
HETATM   20  C   UNL     1       5.020  25.326  53.079  1.00  0.00     0.009 A 
HETATM   21  C   UNL     1       6.062  24.439  52.795  1.00  0.00     0.001 A 
HETATM   22  C   UNL     1       7.385  24.860  52.879  1.00  0.00     0.000 A 
HETATM   23  C   UNL     1       7.674  26.171  53.247  1.00  0.00     0.001 A 
HETATM   24  C   UNL     1       6.636  27.060  53.529  1.00  0.00     0.009 A 
ENDBRANCH  17  19
ENDBRANCH  14  17
ENDBRANCH  13  14
ENDBRANCH  10  13
ENDBRANCH   2   9
BRANCH   1  25
HETATM   25  C   UNL     1       8.071  28.856  57.685  1.00  0.00     0.259 C 
HETATM   26  N   UNL     1       7.237  27.762  57.781  1.00  0.00    -0.323 N 
HETATM   27  H   UNL     1       6.392  27.880  58.317  1.00  0.00     0.169 HD
HETATM   28  O   UNL     1       9.179  28.871  57.150  1.00  0.00    -0.267 OA
BRANCH  26  29
HETATM   29  C   UNL     1       7.464  26.447  57.325  1.00  0.00     0.035 A 
HETATM   30  C   UNL     1       8.705  25.811  57.335  1.00  0.00     0.032 A 
HETATM   31  C   UNL     1       8.827  24.478  56.912  1.00  0.00     0.039 A 
HETATM   32  C   UNL     1       7.707  23.771  56.479  1.00  0.00     0.068 A 
HETATM   33  C   UNL     1       6.474  24.418  56.430  1.00  0.00     0.039 A 
HETATM   34  C   UNL     1       6.351  25.743  56.852  1.00  0.00     0.032 A 
BRANCH  32  35
HETATM   35  O   UNL     1       7.690  22.469  56.068  1.00  0.00    -0.352 OA
BRANCH  35  36
HETATM   36  C   UNL     1       8.624  22.103  55.054  1.00  0.00     0.171 C 
HETATM   37  C   UNL     1       7.884  21.283  54.012  1.00  0.00     0.034 C 
ENDBRANCH  35  36
ENDBRANCH  32  35
ENDBRANCH  26  29
ENDBRANCH   1  25
TORSDOF 9
ENDMDL
MODEL 5
REMARK VINA RESULT:      -9.3      2.460      6.342
REMARK  9 active torsions:
REMARK  status: ('A' for Active; 'I' for Inactive)
REMARK    1  A    between atoms: C_2  and  O_3 
REMARK    2  A    between atoms: O_3  and  C_4 
REMARK    3  A    between atoms: C_7  and  N_8 
REMARK       I    between atoms: N_8  and  C_9 
REMARK    4  A    between atoms: C_9  and  C_10 
REMARK    5  A    between atoms: C_11  and  N_12 
REMARK       I    between atoms: N_12  and  C_13 
REMARK    6  A    between atoms: C_13  and  C_14 
REMARK    7  A    between atoms: C_14  and  N_15 
REMARK    8  A    between atoms: N_15  and  C_18 
REMARK    9  A    between atoms: C_18  and  C_19 
ROOT
HETATM    1  C   UNL     1       7.516  24.079  54.230  1.00  0.00     0.073 A 
HETATM    2  C   UNL     1       7.495  24.342  55.607  1.00  0.00     0.093 A 
HETATM    3  S   UNL     1       7.953  22.999  56.563  1.00  0.00    -0.075 SA
HETATM    4  C   UNL     1       8.128  22.057  55.201  1.00  0.00    -0.008 A 
HETATM    5  C   UNL     1       7.861  22.707  54.027  1.00  0.00    -0.026 A 
HETATM    6  C   UNL     1       8.008  21.763  52.881  1.00  0.00     0.041 C 
HETATM    7  C   UNL     1       8.056  20.372  53.582  1.00  0.00     0.010 C 
HETATM    8  C   UNL     1       8.504  20.632  55.048  1.00  0.00     0.047 C 
ENDROOT
BRANCH   2   9
HETATM    9  N   UNL     1       7.126  25.547  56.191  1.00  0.00    -0.319 N 
HETATM   10  C   UNL     1       5.927  25.844  56.796  1.00  0.00     0.248 C 
HETATM   11  O   UNL     1       4.974  25.102  57.031  1.00  0.00    -0.271 OA
HETATM   12  H   UNL     1       7.874  26.245  56.165  1.00  0.00     0.169 HD
BRANCH  10  13
HETATM   13  C   UNL     1       5.807  27.300  57.249  1.00  0.00     0.335 C 
BRANCH  13  14
HETATM   14  N   UNL     1       6.327  28.197  56.148  1.00  0.00    -0.059 N 
HETATM   15  H   UNL     1       7.168  27.710  55.788  1.00  0.00     0.278 HD
HETATM   16  H   UNL     1       5.678  28.153  55.354  1.00  0.00     0.278 HD
BRANCH  14  17
HETATM   17  C   UNL     1       6.680  29.611  56.469  1.00  0.00     0.215 C 
HETATM   18  C   UNL     1       5.693  30.167  57.494  1.00  0.00     0.045 C 
BRANCH  17  19
HETATM   19  C   UNL     1       8.151  29.761  56.796  1.00  0.00    -0.028 A 
HETATM   20  C   UNL     1       9.173  29.398  55.904  1.00  0.00     0.009 A 
HETATM   21  C   UNL     1      10.516  29.583  56.247  1.00  0.00     0.001 A 
HETATM   22  C   UNL     1      10.857  30.133  57.477  1.00  0.00     0.000 A 
HETATM   23  C   UNL     1       9.858  30.502  58.374  1.00  0.00     0.001 A 
HETATM   24  C   UNL     1       8.517  30.320  58.035  1.00  0.00     0.009 A 
ENDBRANCH  17  19
ENDBRANCH  14  17
ENDBRANCH  13  14
ENDBRANCH  10  13
ENDBRANCH   2   9
BRANCH   1  25
HETATM   25  C   UNL     1       7.209  25.136  53.247  1.00  0.00     0.259 C 
HETATM   26  N   UNL     1       5.864  25.390  53.075  1.00  0.00    -0.323 N 
HETATM   27  H   UNL     1       5.224  24.823  53.608  1.00  0.00     0.169 HD
HETATM   28  O   UNL     1       8.126  25.663  52.619  1.00  0.00    -0.267 OA
BRANCH  26  29
HETATM   29  C   UNL     1       5.250  26.263  52.155  1.00  0.00     0.035 A 
HETATM   30  C   UNL     1       4.661  27.482  52.492  1.00  0.00     0.032 A 
HETATM   31  C   UNL     1       4.122  28.313  51.499  1.00  0.00     0.039 A 
HETATM   32  C   UNL     1       4.168  27.932  50.160  1.00  0.00     0.068 A 
HETATM   33  C   UNL     1       4.718  26.697  49.824  1.00  0.00     0.039 A 
HETATM   34  C   UNL     1       5.258  25.870  50.811  1.00  0.00     0.032 A 
BRANCH  32  35
HETATM   35  O   UNL     1       3.703  28.660  49.101  1.00  0.00    -0.352 OA
BRANCH  35  36
HETATM   36  C   UNL     1       2.825  27.990  48.198  1.00  0.00     0.171 C 
HETATM   37  C   UNL     1       1.427  28.029  48.789  1.00  0.00     0.034 C 
ENDBRANCH  35  36
ENDBRANCH  32  35
ENDBRANCH  26  29
ENDBRANCH   1  25
TORSDOF 9
ENDMDL
MODEL 6
REMARK VINA RESULT:      -9.2      2.497      7.261
REMARK  9 active torsions:
REMARK  status: ('A' for Active; 'I' for Inactive)
REMARK    1  A    between atoms: C_2  and  O_3 
REMARK    2  A    between atoms: O_3  and  C_4 
REMARK    3  A    between atoms: C_7  and  N_8 
REMARK       I    between atoms: N_8  and  C_9 
REMARK    4  A    between atoms: C_9  and  C_10 
REMARK    5  A    between atoms: C_11  and  N_12 
REMARK       I    between atoms: N_12  and  C_13 
REMARK    6  A    between atoms: C_13  and  C_14 
REMARK    7  A    between atoms: C_14  and  N_15 
REMARK    8  A    between atoms: N_15  and  C_18 
REMARK    9  A    between atoms: C_18  and  C_19 
ROOT
HETATM    1  C   UNL     1       7.303  23.609  54.923  1.00  0.00     0.073 A 
HETATM    2  C   UNL     1       7.213  23.522  53.527  1.00  0.00     0.093 A 
HETATM    3  S   UNL     1       7.679  21.997  52.908  1.00  0.00    -0.075 SA
HETATM    4  C   UNL     1       8.050  21.460  54.440  1.00  0.00    -0.008 A 
HETATM    5  C   UNL     1       7.835  22.382  55.429  1.00  0.00    -0.026 A 
HETATM    6  C   UNL     1       8.237  21.813  56.748  1.00  0.00     0.041 C 
HETATM    7  C   UNL     1       9.051  20.546  56.344  1.00  0.00     0.010 C 
HETATM    8  C   UNL     1       8.589  20.163  54.910  1.00  0.00     0.047 C 
ENDROOT
BRANCH   2   9
HETATM    9  N   UNL     1       6.814  24.550  52.681  1.00  0.00    -0.319 N 
HETATM   10  C   UNL     1       5.532  24.997  52.464  1.00  0.00     0.248 C 
HETATM   11  O   UNL     1       4.489  24.658  53.023  1.00  0.00    -0.271 OA
HETATM   12  H   UNL     1       7.602  25.008  52.216  1.00  0.00     0.169 HD
BRANCH  10  13
HETATM   13  C   UNL     1       5.427  26.082  51.392  1.00  0.00     0.335 C 
BRANCH  13  14
HETATM   14  N   UNL     1       4.402  27.103  51.831  1.00  0.00    -0.059 N 
HETATM   15  H   UNL     1       3.724  27.149  51.049  1.00  0.00     0.278 HD
HETATM   16  H   UNL     1       3.845  26.703  52.595  1.00  0.00     0.278 HD
BRANCH  14  17
HETATM   17  C   UNL     1       4.851  28.486  52.169  1.00  0.00     0.215 C 
HETATM   18  C   UNL     1       4.301  29.470  51.137  1.00  0.00     0.045 C 
BRANCH  17  19
HETATM   19  C   UNL     1       4.598  28.819  53.624  1.00  0.00    -0.028 A 
HETATM   20  C   UNL     1       4.508  27.841  54.627  1.00  0.00     0.009 A 
HETATM   21  C   UNL     1       4.299  28.205  55.961  1.00  0.00     0.001 A 
HETATM   22  C   UNL     1       4.179  29.546  56.311  1.00  0.00     0.000 A 
HETATM   23  C   UNL     1       4.267  30.530  55.331  1.00  0.00     0.001 A 
HETATM   24  C   UNL     1       4.477  30.171  54.000  1.00  0.00     0.009 A 
ENDBRANCH  17  19
ENDBRANCH  14  17
ENDBRANCH  13  14
ENDBRANCH  10  13
ENDBRANCH   2   9
BRANCH   1  25
HETATM   25  C   UNL     1       6.886  24.829  55.641  1.00  0.00     0.259 C 
HETATM   26  N   UNL     1       7.820  25.844  55.643  1.00  0.00    -0.323 N 
HETATM   27  H   UNL     1       8.697  25.655  55.184  1.00  0.00     0.169 HD
HETATM   28  O   UNL     1       5.803  24.847  56.225  1.00  0.00    -0.267 OA
BRANCH  26  29
HETATM   29  C   UNL     1       7.761  27.084  56.310  1.00  0.00     0.035 A 
HETATM   30  C   UNL     1       7.523  27.236  57.677  1.00  0.00     0.032 A 
HETATM   31  C   UNL     1       7.538  28.509  58.266  1.00  0.00     0.039 A 
HETATM   32  C   UNL     1       7.793  29.640  57.494  1.00  0.00     0.068 A 
HETATM   33  C   UNL     1       7.990  29.495  56.123  1.00  0.00     0.039 A 
HETATM   34  C   UNL     1       7.978  28.229  55.535  1.00  0.00     0.032 A 
BRANCH  32  35
HETATM   35  O   UNL     1       7.859  30.926  57.950  1.00  0.00    -0.352 OA
BRANCH  35  36
HETATM   36  C   UNL     1       9.001  31.272  58.731  1.00  0.00     0.171 C 
HETATM   37  C   UNL     1       8.546  32.206  59.838  1.00  0.00     0.034 C 
ENDBRANCH  35  36
ENDBRANCH  32  35
ENDBRANCH  26  29
ENDBRANCH   1  25
TORSDOF 9
ENDMDL
MODEL 7
REMARK VINA RESULT:      -9.2      2.550      8.427
REMARK  9 active torsions:
REMARK  status: ('A' for Active; 'I' for Inactive)
REMARK    1  A    between atoms: C_2  and  O_3 
REMARK    2  A    between atoms: O_3  and  C_4 
REMARK    3  A    between atoms: C_7  and  N_8 
REMARK       I    between atoms: N_8  and  C_9 
REMARK    4  A    between atoms: C_9  and  C_10 
REMARK    5  A    between atoms: C_11  and  N_12 
REMARK       I    between atoms: N_12  and  C_13 
REMARK    6  A    between atoms: C_13  and  C_14 
REMARK    7  A    between atoms: C_14  and  N_15 
REMARK    8  A    between atoms: N_15  and  C_18 
REMARK    9  A    between atoms: C_18  and  C_19 
ROOT
HETATM    1  C   UNL     1       5.860  25.997  54.715  1.00  0.00     0.073 A 
HETATM    2  C   UNL     1       5.056  26.069  53.569  1.00  0.00     0.093 A 
HETATM    3  S   UNL     1       5.324  24.789  52.467  1.00  0.00    -0.075 SA
HETATM    4  C   UNL     1       6.520  24.165  53.444  1.00  0.00    -0.008 A 
HETATM    5  C   UNL     1       6.740  24.877  54.591  1.00  0.00    -0.026 A 
HETATM    6  C   UNL     1       7.853  24.257  55.367  1.00  0.00     0.041 C 
HETATM    7  C   UNL     1       8.493  23.281  54.333  1.00  0.00     0.010 C 
HETATM    8  C   UNL     1       7.397  22.983  53.271  1.00  0.00     0.047 C 
ENDROOT
BRANCH   2   9
HETATM    9  N   UNL     1       4.133  27.072  53.295  1.00  0.00    -0.319 N 
HETATM   10  C   UNL     1       4.362  28.251  52.626  1.00  0.00     0.248 C 
HETATM   11  O   UNL     1       5.384  28.632  52.056  1.00  0.00    -0.271 OA
HETATM   12  H   UNL     1       3.191  26.843  53.624  1.00  0.00     0.169 HD
BRANCH  10  13
HETATM   13  C   UNL     1       3.151  29.183  52.582  1.00  0.00     0.335 C 
BRANCH  13  14
HETATM   14  N   UNL     1       2.123  28.601  51.638  1.00  0.00    -0.059 N 
HETATM   15  H   UNL     1       2.367  27.596  51.571  1.00  0.00     0.278 HD
HETATM   16  H   UNL     1       1.212  28.586  52.112  1.00  0.00     0.278 HD
BRANCH  14  17
HETATM   17  C   UNL     1       1.997  29.166  50.263  1.00  0.00     0.215 C 
HETATM   18  C   UNL     1       2.730  30.505  50.190  1.00  0.00     0.045 C 
BRANCH  17  19
HETATM   19  C   UNL     1       2.348  28.145  49.202  1.00  0.00    -0.028 A 
HETATM   20  C   UNL     1       3.636  27.607  49.054  1.00  0.00     0.009 A 
HETATM   21  C   UNL     1       3.899  26.646  48.074  1.00  0.00     0.001 A 
HETATM   22  C   UNL     1       2.884  26.206  47.231  1.00  0.00     0.000 A 
HETATM   23  C   UNL     1       1.599  26.726  47.364  1.00  0.00     0.001 A 
HETATM   24  C   UNL     1       1.332  27.684  48.342  1.00  0.00     0.009 A 
ENDBRANCH  17  19
ENDBRANCH  14  17
ENDBRANCH  13  14
ENDBRANCH  10  13
ENDBRANCH   2   9
BRANCH   1  25
HETATM   25  C   UNL     1       5.726  26.983  55.805  1.00  0.00     0.259 C 
HETATM   26  N   UNL     1       6.710  27.949  55.832  1.00  0.00    -0.323 N 
HETATM   27  H   UNL     1       7.433  27.880  55.133  1.00  0.00     0.169 HD
HETATM   28  O   UNL     1       4.820  26.856  56.628  1.00  0.00    -0.267 OA
BRANCH  26  29
HETATM   29  C   UNL     1       6.913  28.963  56.790  1.00  0.00     0.035 A 
HETATM   30  C   UNL     1       6.188  30.154  56.846  1.00  0.00     0.032 A 
HETATM   31  C   UNL     1       6.422  31.083  57.871  1.00  0.00     0.039 A 
HETATM   32  C   UNL     1       7.382  30.828  58.848  1.00  0.00     0.068 A 
HETATM   33  C   UNL     1       8.135  29.660  58.770  1.00  0.00     0.039 A 
HETATM   34  C   UNL     1       7.902  28.732  57.753  1.00  0.00     0.032 A 
BRANCH  32  35
HETATM   35  O   UNL     1       7.685  31.638  59.906  1.00  0.00    -0.352 OA
BRANCH  35  36
HETATM   36  C   UNL     1       9.015  32.151  59.961  1.00  0.00     0.171 C 
HETATM   37  C   UNL     1       9.573  31.857  61.342  1.00  0.00     0.034 C 
ENDBRANCH  35  36
ENDBRANCH  32  35
ENDBRANCH  26  29
ENDBRANCH   1  25
TORSDOF 9
ENDMDL
MODEL 8
REMARK VINA RESULT:      -9.2      2.072      6.817
REMARK  9 active torsions:
REMARK  status: ('A' for Active; 'I' for Inactive)
REMARK    1  A    between atoms: C_2  and  O_3 
REMARK    2  A    between atoms: O_3  and  C_4 
REMARK    3  A    between atoms: C_7  and  N_8 
REMARK       I    between atoms: N_8  and  C_9 
REMARK    4  A    between atoms: C_9  and  C_10 
REMARK    5  A    between atoms: C_11  and  N_12 
REMARK       I    between atoms: N_12  and  C_13 
REMARK    6  A    between atoms: C_13  and  C_14 
REMARK    7  A    between atoms: C_14  and  N_15 
REMARK    8  A    between atoms: N_15  and  C_18 
REMARK    9  A    between atoms: C_18  and  C_19 
ROOT
HETATM    1  C   UNL     1       7.011  29.696  56.768  1.00  0.00     0.073 A 
HETATM    2  C   UNL     1       5.909  30.384  56.240  1.00  0.00     0.093 A 
HETATM    3  S   UNL     1       5.443  31.740  57.173  1.00  0.00    -0.075 SA
HETATM    4  C   UNL     1       6.633  31.411  58.291  1.00  0.00    -0.008 A 
HETATM    5  C   UNL     1       7.392  30.311  58.000  1.00  0.00    -0.026 A 
HETATM    6  C   UNL     1       8.395  30.087  59.083  1.00  0.00     0.041 C 
HETATM    7  C   UNL     1       7.879  31.010  60.228  1.00  0.00     0.010 C 
HETATM    8  C   UNL     1       6.994  32.097  59.554  1.00  0.00     0.047 C 
ENDROOT
BRANCH   2   9
HETATM    9  N   UNL     1       5.213  30.028  55.092  1.00  0.00    -0.319 N 
HETATM   10  C   UNL     1       4.449  28.901  54.898  1.00  0.00     0.248 C 
HETATM   11  O   UNL     1       4.144  28.024  55.707  1.00  0.00    -0.271 OA
HETATM   12  H   UNL     1       5.288  30.730  54.350  1.00  0.00     0.169 HD
BRANCH  10  13
HETATM   13  C   UNL     1       3.898  28.763  53.478  1.00  0.00     0.335 C 
BRANCH  13  14
HETATM   14  N   UNL     1       3.802  27.293  53.135  1.00  0.00    -0.059 N 
HETATM   15  H   UNL     1       3.695  26.816  54.049  1.00  0.00     0.278 HD
HETATM   16  H   UNL     1       2.899  27.120  52.678  1.00  0.00     0.278 HD
BRANCH  14  17
HETATM   17  C   UNL     1       4.914  26.650  52.376  1.00  0.00     0.215 C 
HETATM   18  C   UNL     1       4.867  25.136  52.583  1.00  0.00     0.045 C 
BRANCH  17  19
HETATM   19  C   UNL     1       4.971  27.136  50.943  1.00  0.00    -0.028 A 
HETATM   20  C   UNL     1       5.433  28.413  50.587  1.00  0.00     0.009 A 
HETATM   21  C   UNL     1       5.490  28.801  49.245  1.00  0.00     0.001 A 
HETATM   22  C   UNL     1       5.089  27.924  48.243  1.00  0.00     0.000 A 
HETATM   23  C   UNL     1       4.629  26.653  48.576  1.00  0.00     0.001 A 
HETATM   24  C   UNL     1       4.573  26.261  49.914  1.00  0.00     0.009 A 
ENDBRANCH  17  19
ENDBRANCH  14  17
ENDBRANCH  13  14
ENDBRANCH  10  13
ENDBRANCH   2   9
BRANCH   1  25
HETATM   25  C   UNL     1       7.593  28.535  56.067  1.00  0.00     0.259 C 
HETATM   26  N   UNL     1       7.202  27.309  56.562  1.00  0.00    -0.323 N 
HETATM   27  H   UNL     1       6.586  27.316  57.360  1.00  0.00     0.169 HD
HETATM   28  O   UNL     1       8.405  28.719  55.161  1.00  0.00    -0.267 OA
BRANCH  26  29
HETATM   29  C   UNL     1       7.647  26.028  56.176  1.00  0.00     0.035 A 
HETATM   30  C   UNL     1       7.436  25.463  54.918  1.00  0.00     0.032 A 
HETATM   31  C   UNL     1       7.964  24.202  54.605  1.00  0.00     0.039 A 
HETATM   32  C   UNL     1       8.711  23.496  55.546  1.00  0.00     0.068 A 
HETATM   33  C   UNL     1       8.888  24.040  56.816  1.00  0.00     0.039 A 
HETATM   34  C   UNL     1       8.365  25.296  57.130  1.00  0.00     0.032 A 
BRANCH  32  35
HETATM   35  O   UNL     1       9.297  22.277  55.356  1.00  0.00    -0.352 OA
BRANCH  35  36
HETATM   36  C   UNL     1       8.447  21.216  54.924  1.00  0.00     0.171 C 
HETATM   37  C   UNL     1       7.924  20.504  56.158  1.00  0.00     0.034 C 
ENDBRANCH  35  36
ENDBRANCH  32  35
ENDBRANCH  26  29
ENDBRANCH   1  25
TORSDOF 9
ENDMDL
MODEL 9
REMARK VINA RESULT:      -9.1      2.526      8.822
REMARK  9 active torsions:
REMARK  status: ('A' for Active; 'I' for Inactive)
REMARK    1  A    between atoms: C_2  and  O_3 
REMARK    2  A    between atoms: O_3  and  C_4 
REMARK    3  A    between atoms: C_7  and  N_8 
REMARK       I    between atoms: N_8  and  C_9 
REMARK    4  A    between atoms: C_9  and  C_10 
REMARK    5  A    between atoms: C_11  and  N_12 
REMARK       I    between atoms: N_12  and  C_13 
REMARK    6  A    between atoms: C_13  and  C_14 
REMARK    7  A    between atoms: C_14  and  N_15 
REMARK    8  A    between atoms: N_15  and  C_18 
REMARK    9  A    between atoms: C_18  and  C_19 
ROOT
HETATM    1  C   UNL     1       7.313  23.804  55.176  1.00  0.00     0.073 A 
HETATM    2  C   UNL     1       7.304  23.884  53.776  1.00  0.00     0.093 A 
HETATM    3  S   UNL     1       7.793  22.436  53.009  1.00  0.00    -0.075 SA
HETATM    4  C   UNL     1       8.069  21.717  54.485  1.00  0.00    -0.008 A 
HETATM    5  C   UNL     1       7.804  22.518  55.562  1.00  0.00    -0.026 A 
HETATM    6  C   UNL     1       8.123  21.792  56.826  1.00  0.00     0.041 C 
HETATM    7  C   UNL     1       8.949  20.570  56.322  1.00  0.00     0.010 C 
HETATM    8  C   UNL     1       8.569  20.365  54.828  1.00  0.00     0.047 C 
ENDROOT
BRANCH   2   9
HETATM    9  N   UNL     1       6.964  25.010  53.037  1.00  0.00    -0.319 N 
HETATM   10  C   UNL     1       5.777  25.248  52.384  1.00  0.00     0.248 C 
HETATM   11  O   UNL     1       4.746  24.577  52.383  1.00  0.00    -0.271 OA
HETATM   12  H   UNL     1       7.702  25.720  53.035  1.00  0.00     0.169 HD
BRANCH  10  13
HETATM   13  C   UNL     1       5.765  26.547  51.577  1.00  0.00     0.335 C 
BRANCH  13  14
HETATM   14  N   UNL     1       4.681  26.456  50.526  1.00  0.00    -0.059 N 
HETATM   15  H   UNL     1       5.064  25.814  49.808  1.00  0.00     0.278 HD
HETATM   16  H   UNL     1       3.892  25.925  50.912  1.00  0.00     0.278 HD
BRANCH  14  17
HETATM   17  C   UNL     1       4.208  27.705  49.860  1.00  0.00     0.215 C 
HETATM   18  C   UNL     1       5.410  28.535  49.412  1.00  0.00     0.045 C 
BRANCH  17  19
HETATM   19  C   UNL     1       3.156  27.417  48.810  1.00  0.00    -0.028 A 
HETATM   20  C   UNL     1       1.981  28.174  48.677  1.00  0.00     0.009 A 
HETATM   21  C   UNL     1       1.054  27.881  47.672  1.00  0.00     0.001 A 
HETATM   22  C   UNL     1       1.286  26.834  46.787  1.00  0.00     0.000 A 
HETATM   23  C   UNL     1       2.446  26.073  46.901  1.00  0.00     0.001 A 
HETATM   24  C   UNL     1       3.374  26.363  47.901  1.00  0.00     0.009 A 
ENDBRANCH  17  19
ENDBRANCH  14  17
ENDBRANCH  13  14
ENDBRANCH  10  13
ENDBRANCH   2   9
BRANCH   1  25
HETATM   25  C   UNL     1       6.864  24.938  56.009  1.00  0.00     0.259 C 
HETATM   26  N   UNL     1       7.566  26.109  55.813  1.00  0.00    -0.323 N 
HETATM   27  H   UNL     1       8.325  26.078  55.151  1.00  0.00     0.169 HD
HETATM   28  O   UNL     1       5.971  24.764  56.837  1.00  0.00    -0.267 OA
BRANCH  26  29
HETATM   29  C   UNL     1       7.444  27.327  56.511  1.00  0.00     0.035 A 
HETATM   30  C   UNL     1       6.246  28.020  56.688  1.00  0.00     0.032 A 
HETATM   31  C   UNL     1       6.210  29.201  57.446  1.00  0.00     0.039 A 
HETATM   32  C   UNL     1       7.372  29.696  58.034  1.00  0.00     0.068 A 
HETATM   33  C   UNL     1       8.576  29.029  57.824  1.00  0.00     0.039 A 
HETATM   34  C   UNL     1       8.614  27.852  57.073  1.00  0.00     0.032 A 
BRANCH  32  35
HETATM   35  O   UNL     1       7.464  30.816  58.812  1.00  0.00    -0.352 OA
BRANCH  35  36
HETATM   36  C   UNL     1       8.368  30.760  59.913  1.00  0.00     0.171 C 
HETATM   37  C   UNL     1       8.752  32.184  60.275  1.00  0.00     0.034 C 
ENDBRANCH  35  36
ENDBRANCH  32  35
ENDBRANCH  26  29
ENDBRANCH   1  25
TORSDOF 9
ENDMDL
MODEL 10
REMARK VINA RESULT:      -9.0      2.782      6.494
REMARK  9 active torsions:
REMARK  status: ('A' for Active; 'I' for Inactive)
REMARK    1  A    between atoms: C_2  and  O_3 
REMARK    2  A    between atoms: O_3  and  C_4 
REMARK    3  A    between atoms: C_7  and  N_8 
REMARK       I    between atoms: N_8  and  C_9 
REMARK    4  A    between atoms: C_9  and  C_10 
REMARK    5  A    between atoms: C_11  and  N_12 
REMARK       I    between atoms: N_12  and  C_13 
REMARK    6  A    between atoms: C_13  and  C_14 
REMARK    7  A    between atoms: C_14  and  N_15 
REMARK    8  A    between atoms: N_15  and  C_18 
REMARK    9  A    between atoms: C_18  and  C_19 
ROOT
HETATM    1  C   UNL     1       7.014  24.779  54.448  1.00  0.00     0.073 A 
HETATM    2  C   UNL     1       7.420  25.214  55.718  1.00  0.00     0.093 A 
HETATM    3  S   UNL     1       8.631  24.232  56.419  1.00  0.00    -0.075 SA
HETATM    4  C   UNL     1       8.598  23.209  55.106  1.00  0.00    -0.008 A 
HETATM    5  C   UNL     1       7.707  23.569  54.132  1.00  0.00    -0.026 A 
HETATM    6  C   UNL     1       7.731  22.567  53.027  1.00  0.00     0.041 C 
HETATM    7  C   UNL     1       8.511  21.374  53.660  1.00  0.00     0.010 C 
HETATM    8  C   UNL     1       9.355  21.967  54.824  1.00  0.00     0.047 C 
ENDROOT
BRANCH   2   9
HETATM    9  N   UNL     1       6.905  26.314  56.394  1.00  0.00    -0.319 N 
HETATM   10  C   UNL     1       7.611  27.362  56.935  1.00  0.00     0.248 C 
HETATM   11  O   UNL     1       8.816  27.601  56.866  1.00  0.00    -0.271 OA
HETATM   12  H   UNL     1       5.882  26.306  56.440  1.00  0.00     0.169 HD
BRANCH  10  13
HETATM   13  C   UNL     1       6.744  28.362  57.702  1.00  0.00     0.335 C 
BRANCH  13  14
HETATM   14  N   UNL     1       7.624  29.133  58.660  1.00  0.00    -0.059 N 
HETATM   15  H   UNL     1       7.332  28.812  59.601  1.00  0.00     0.278 HD
HETATM   16  H   UNL     1       8.585  28.778  58.584  1.00  0.00     0.278 HD
BRANCH  14  17
HETATM   17  C   UNL     1       7.604  30.625  58.625  1.00  0.00     0.215 C 
HETATM   18  C   UNL     1       6.337  31.104  57.916  1.00  0.00     0.045 C 
BRANCH  17  19
HETATM   19  C   UNL     1       7.883  31.222  59.988  1.00  0.00    -0.028 A 
HETATM   20  C   UNL     1       6.995  32.095  60.637  1.00  0.00     0.009 A 
HETATM   21  C   UNL     1       7.291  32.597  61.907  1.00  0.00     0.001 A 
HETATM   22  C   UNL     1       8.472  32.236  62.547  1.00  0.00     0.000 A 
HETATM   23  C   UNL     1       9.364  31.371  61.921  1.00  0.00     0.001 A 
HETATM   24  C   UNL     1       9.072  30.866  60.654  1.00  0.00     0.009 A 
ENDBRANCH  17  19
ENDBRANCH  14  17
ENDBRANCH  13  14
ENDBRANCH  10  13
ENDBRANCH   2   9
BRANCH   1  25
HETATM   25  C   UNL     1       6.019  25.536  53.663  1.00  0.00     0.259 C 
HETATM   26  N   UNL     1       6.405  25.825  52.371  1.00  0.00    -0.323 N 
HETATM   27  H   UNL     1       7.325  25.521  52.093  1.00  0.00     0.169 HD
HETATM   28  O   UNL     1       4.976  25.903  54.201  1.00  0.00    -0.267 OA
BRANCH  26  29
HETATM   29  C   UNL     1       5.728  26.603  51.410  1.00  0.00     0.035 A 
HETATM   30  C   UNL     1       5.035  26.082  50.318  1.00  0.00     0.032 A 
HETATM   31  C   UNL     1       4.342  26.932  49.441  1.00  0.00     0.039 A 
HETATM   32  C   UNL     1       4.337  28.309  49.653  1.00  0.00     0.068 A 
HETATM   33  C   UNL     1       5.063  28.834  50.719  1.00  0.00     0.039 A 
HETATM   34  C   UNL     1       5.750  27.990  51.594  1.00  0.00     0.032 A 
BRANCH  32  35
HETATM   35  O   UNL     1       3.684  29.236  48.890  1.00  0.00    -0.352 OA
BRANCH  35  36
HETATM   36  C   UNL     1       2.758  30.086  49.566  1.00  0.00     0.171 C 
HETATM   37  C   UNL     1       1.519  29.268  49.882  1.00  0.00     0.034 C 
ENDBRANCH  35  36
ENDBRANCH  32  35
ENDBRANCH  26  29
ENDBRANCH   1  25
TORSDOF 9
ENDMDL
