MODEL 1
REMARK VINA RESULT:     -10.5      0.000      0.000
REMARK  6 active torsions:
REMARK  status: ('A' for Active; 'I' for Inactive)
REMARK    1  A    between atoms: C_5  and  N_6 
REMARK    2  A    between atoms: C_8  and  C_9 
REMARK    3  A    between atoms: C_16  and  C_17 
REMARK    4  A    between atoms: C_17  and  N_18 
REMARK    5  A    between atoms: C_22  and  N_23 
REMARK    6  A    between atoms: C_26  and  O_27 
ROOT
HETATM    1  N   UNL     1       7.260  28.545  56.251  1.00  0.00    -0.244 N 
HETATM    2  N   UNL     1       7.751  27.328  55.930  1.00  0.00    -0.167 NA
HETATM    3  C   UNL     1       6.937  26.822  55.001  1.00  0.00     0.097 A 
HETATM    4  C   UNL     1       5.805  27.660  54.806  1.00  0.00     0.016 A 
HETATM    5  C   UNL     1       6.073  28.774  55.581  1.00  0.00     0.130 A 
ENDROOT
BRANCH   4   6
HETATM    6  C   UNL     1       4.612  27.421  53.962  1.00  0.00     0.277 C 
BRANCH   6   7
HETATM    7  N   UNL     1       4.521  28.317  52.706  1.00  0.00    -0.067 N 
HETATM    8  H   UNL     1       4.927  29.215  53.021  1.00  0.00     0.280 HD
HETATM    9  C   UNL     1       5.377  27.804  51.580  1.00  0.00     0.237 C 
HETATM   10  C   UNL     1       5.215  28.668  50.348  1.00  0.00     0.061 C 
HETATM   11  C   UNL     1       3.769  28.798  49.870  1.00  0.00     0.191 C 
HETATM   12  C   UNL     1       2.885  29.276  51.026  1.00  0.00     0.061 C 
HETATM   13  C   UNL     1       3.074  28.543  52.355  1.00  0.00     0.237 C 
BRANCH  11  14
HETATM   14  N   UNL     1       3.212  27.583  49.092  1.00  0.00    -0.064 N 
HETATM   15  H   UNL     1       2.585  27.124  49.775  1.00  0.00     0.280 HD
HETATM   16  C   UNL     1       2.259  27.986  47.959  1.00  0.00     0.266 C 
HETATM   17  C   UNL     1       1.517  26.790  47.345  1.00  0.00     0.144 C 
HETATM   18  C   UNL     1       2.489  25.692  46.935  1.00  0.00     0.035 C 
HETATM   19  C   UNL     1       3.375  25.292  48.102  1.00  0.00     0.030 C 
HETATM   20  C   UNL     1       4.151  26.479  48.659  1.00  0.00     0.235 C 
BRANCH  17  21
HETATM   21  O   UNL     1       0.832  27.255  46.192  1.00  0.00    -0.394 OA
HETATM   22  H   UNL     1       1.314  26.968  45.392  1.00  0.00     0.210 HD
ENDBRANCH  17  21
ENDBRANCH  11  14
ENDBRANCH   6   7
ENDBRANCH   4   6
BRANCH   3  23
HETATM   23  C   UNL     1       7.239  25.544  54.367  1.00  0.00    -0.005 A 
HETATM   24  C   UNL     1       7.039  24.346  55.068  1.00  0.00     0.017 A 
HETATM   25  C   UNL     1       7.318  23.121  54.458  1.00  0.00     0.043 A 
HETATM   26  C   UNL     1       7.802  23.098  53.155  1.00  0.00     0.116 A 
HETATM   27  F   UNL     1       8.062  21.924  52.568  1.00  0.00    -0.206 F 
HETATM   28  C   UNL     1       8.029  24.276  52.454  1.00  0.00     0.043 A 
HETATM   29  C   UNL     1       7.754  25.504  53.062  1.00  0.00     0.017 A 
ENDBRANCH   3  23
BRANCH   1  30
HETATM   30  C   UNL     1       7.904  29.382  57.201  1.00  0.00     0.058 A 
HETATM   31  C   UNL     1       7.131  30.092  58.128  1.00  0.00     0.032 A 
HETATM   32  C   UNL     1       7.743  30.932  59.064  1.00  0.00     0.009 A 
HETATM   33  C   UNL     1       9.133  31.081  59.081  1.00  0.00    -0.062 A 
HETATM   34  C   UNL     1       9.803  31.965  60.094  1.00  0.00     0.048 C 
HETATM   35  C   UNL     1       9.905  30.364  58.161  1.00  0.00     0.009 A 
HETATM   36  C   UNL     1       9.300  29.519  57.224  1.00  0.00     0.032 A 
ENDBRANCH   1  30
TORSDOF 6
ENDMDL
MODEL 2
REMARK VINA RESULT:     -10.1      3.335      9.145
REMARK  6 active torsions:
REMARK  status: ('A' for Active; 'I' for Inactive)
REMARK    1  A    between atoms: C_5  and  N_6 
REMARK    2  A    between atoms: C_8  and  C_9 
REMARK    3  A    between atoms: C_16  and  C_17 
REMARK    4  A    between atoms: C_17  and  N_18 
REMARK    5  A    between atoms: C_22  and  N_23 
REMARK    6  A    between atoms: C_26  and  O_27 
ROOT
HETATM    1  N   UNL     1       5.129  26.787  51.142  1.00  0.00    -0.244 N 
HETATM    2  N   UNL     1       5.566  25.565  51.517  1.00  0.00    -0.167 NA
HETATM    3  C   UNL     1       6.386  25.754  52.552  1.00  0.00     0.097 A 
HETATM    4  C   UNL     1       6.608  27.140  52.779  1.00  0.00     0.016 A 
HETATM    5  C   UNL     1       5.748  27.767  51.894  1.00  0.00     0.130 A 
ENDROOT
BRANCH   4   6
HETATM    6  C   UNL     1       7.530  27.784  53.742  1.00  0.00     0.277 C 
BRANCH   6   7
HETATM    7  N   UNL     1       7.018  27.820  55.199  1.00  0.00    -0.067 N 
HETATM    8  H   UNL     1       6.349  27.031  55.239  1.00  0.00     0.280 HD
HETATM    9  C   UNL     1       8.112  27.535  56.193  1.00  0.00     0.237 C 
HETATM   10  C   UNL     1       7.590  27.641  57.609  1.00  0.00     0.061 C 
HETATM   11  C   UNL     1       6.948  28.989  57.932  1.00  0.00     0.191 C 
HETATM   12  C   UNL     1       5.864  29.305  56.896  1.00  0.00     0.061 C 
HETATM   13  C   UNL     1       6.262  29.101  55.434  1.00  0.00     0.237 C 
BRANCH  11  14
HETATM   14  N   UNL     1       7.933  30.148  58.208  1.00  0.00    -0.064 N 
HETATM   15  H   UNL     1       7.712  30.837  57.468  1.00  0.00     0.280 HD
HETATM   16  C   UNL     1       7.612  30.909  59.501  1.00  0.00     0.266 C 
HETATM   17  C   UNL     1       8.427  32.202  59.656  1.00  0.00     0.144 C 
HETATM   18  C   UNL     1       9.916  31.935  59.484  1.00  0.00     0.035 C 
HETATM   19  C   UNL     1      10.189  31.227  58.168  1.00  0.00     0.030 C 
HETATM   20  C   UNL     1       9.420  29.916  58.058  1.00  0.00     0.235 C 
BRANCH  17  21
HETATM   21  O   UNL     1       8.196  32.702  60.963  1.00  0.00    -0.394 OA
HETATM   22  H   UNL     1       8.803  32.261  61.590  1.00  0.00     0.210 HD
ENDBRANCH  17  21
ENDBRANCH  11  14
ENDBRANCH   6   7
ENDBRANCH   4   6
BRANCH   3  23
HETATM   23  C   UNL     1       6.964  24.617  53.259  1.00  0.00    -0.005 A 
HETATM   24  C   UNL     1       7.800  23.718  52.582  1.00  0.00     0.017 A 
HETATM   25  C   UNL     1       8.362  22.634  53.260  1.00  0.00     0.043 A 
HETATM   26  C   UNL     1       8.079  22.448  54.609  1.00  0.00     0.116 A 
HETATM   27  F   UNL     1       8.624  21.414  55.261  1.00  0.00    -0.206 F 
HETATM   28  C   UNL     1       7.233  23.314  55.290  1.00  0.00     0.043 A 
HETATM   29  C   UNL     1       6.667  24.398  54.614  1.00  0.00     0.017 A 
ENDBRANCH   3  23
BRANCH   1  30
HETATM   30  C   UNL     1       4.208  26.955  50.075  1.00  0.00     0.058 A 
HETATM   31  C   UNL     1       3.463  28.138  49.989  1.00  0.00     0.032 A 
HETATM   32  C   UNL     1       2.542  28.320  48.952  1.00  0.00     0.009 A 
HETATM   33  C   UNL     1       2.344  27.322  47.995  1.00  0.00    -0.062 A 
HETATM   34  C   UNL     1       1.371  27.514  46.867  1.00  0.00     0.048 C 
HETATM   35  C   UNL     1       3.095  26.144  48.076  1.00  0.00     0.009 A 
HETATM   36  C   UNL     1       4.022  25.956  49.108  1.00  0.00     0.032 A 
ENDBRANCH   1  30
TORSDOF 6
ENDMDL
MODEL 3
REMARK VINA RESULT:      -9.9      1.277      1.666
REMARK  6 active torsions:
REMARK  status: ('A' for Active; 'I' for Inactive)
REMARK    1  A    between atoms: C_5  and  N_6 
REMARK    2  A    between atoms: C_8  and  C_9 
REMARK    3  A    between atoms: C_16  and  C_17 
REMARK    4  A    between atoms: C_17  and  N_18 
REMARK    5  A    between atoms: C_22  and  N_23 
REMARK    6  A    between atoms: C_26  and  O_27 
ROOT
HETATM    1  N   UNL     1       7.359  28.041  55.897  1.00  0.00    -0.244 N 
HETATM    2  N   UNL     1       7.767  26.756  55.815  1.00  0.00    -0.167 NA
HETATM    3  C   UNL     1       7.063  26.193  54.831  1.00  0.00     0.097 A 
HETATM    4  C   UNL     1       6.067  27.084  54.346  1.00  0.00     0.016 A 
HETATM    5  C   UNL     1       6.322  28.269  55.012  1.00  0.00     0.130 A 
ENDROOT
BRANCH   4   6
HETATM    6  C   UNL     1       5.003  26.827  53.348  1.00  0.00     0.277 C 
BRANCH   6   7
HETATM    7  N   UNL     1       5.418  27.090  51.882  1.00  0.00    -0.067 N 
HETATM    8  H   UNL     1       6.447  26.981  51.899  1.00  0.00     0.280 HD
HETATM    9  C   UNL     1       4.869  26.050  50.942  1.00  0.00     0.237 C 
HETATM   10  C   UNL     1       5.241  26.373  49.511  1.00  0.00     0.061 C 
HETATM   11  C   UNL     1       4.792  27.760  49.054  1.00  0.00     0.191 C 
HETATM   12  C   UNL     1       5.309  28.818  50.034  1.00  0.00     0.061 C 
HETATM   13  C   UNL     1       5.094  28.514  51.516  1.00  0.00     0.237 C 
BRANCH  11  14
HETATM   14  N   UNL     1       3.294  27.892  48.695  1.00  0.00    -0.064 N 
HETATM   15  H   UNL     1       2.809  27.543  49.541  1.00  0.00     0.280 HD
HETATM   16  C   UNL     1       2.828  29.351  48.604  1.00  0.00     0.266 C 
HETATM   17  C   UNL     1       1.302  29.489  48.492  1.00  0.00     0.144 C 
HETATM   18  C   UNL     1       0.755  28.625  47.364  1.00  0.00     0.035 C 
HETATM   19  C   UNL     1       1.200  27.182  47.526  1.00  0.00     0.030 C 
HETATM   20  C   UNL     1       2.718  27.057  47.573  1.00  0.00     0.235 C 
BRANCH  17  21
HETATM   21  O   UNL     1       1.013  30.850  48.212  1.00  0.00    -0.394 OA
HETATM   22  H   UNL     1       1.699  31.211  47.617  1.00  0.00     0.210 HD
ENDBRANCH  17  21
ENDBRANCH  11  14
ENDBRANCH   6   7
ENDBRANCH   4   6
BRANCH   3  23
HETATM   23  C   UNL     1       7.329  24.820  54.420  1.00  0.00    -0.005 A 
HETATM   24  C   UNL     1       7.239  23.776  55.351  1.00  0.00     0.017 A 
HETATM   25  C   UNL     1       7.484  22.459  54.956  1.00  0.00     0.043 A 
HETATM   26  C   UNL     1       7.825  22.192  53.635  1.00  0.00     0.116 A 
HETATM   27  F   UNL     1       8.052  20.929  53.254  1.00  0.00    -0.206 F 
HETATM   28  C   UNL     1       7.943  23.217  52.704  1.00  0.00     0.043 A 
HETATM   29  C   UNL     1       7.701  24.536  53.096  1.00  0.00     0.017 A 
ENDBRANCH   3  23
BRANCH   1  30
HETATM   30  C   UNL     1       7.927  28.947  56.831  1.00  0.00     0.058 A 
HETATM   31  C   UNL     1       7.099  29.579  57.768  1.00  0.00     0.032 A 
HETATM   32  C   UNL     1       7.635  30.484  58.689  1.00  0.00     0.009 A 
HETATM   33  C   UNL     1       9.002  30.778  58.682  1.00  0.00    -0.062 A 
HETATM   34  C   UNL     1       9.592  31.733  59.680  1.00  0.00     0.048 C 
HETATM   35  C   UNL     1       9.830  30.139  57.752  1.00  0.00     0.009 A 
HETATM   36  C   UNL     1       9.301  29.229  56.829  1.00  0.00     0.032 A 
ENDBRANCH   1  30
TORSDOF 6
ENDMDL
MODEL 4
REMARK VINA RESULT:      -9.9      2.328      5.746
REMARK  6 active torsions:
REMARK  status: ('A' for Active; 'I' for Inactive)
REMARK    1  A    between atoms: C_5  and  N_6 
REMARK    2  A    between atoms: C_8  and  C_9 
REMARK    3  A    between atoms: C_16  and  C_17 
REMARK    4  A    between atoms: C_17  and  N_18 
REMARK    5  A    between atoms: C_22  and  N_23 
REMARK    6  A    between atoms: C_26  and  O_27 
ROOT
HETATM    1  N   UNL     1       6.686  25.208  54.746  1.00  0.00    -0.244 N 
HETATM    2  N   UNL     1       7.398  26.077  55.495  1.00  0.00    -0.167 NA
HETATM    3  C   UNL     1       6.644  27.169  55.632  1.00  0.00     0.097 A 
HETATM    4  C   UNL     1       5.467  27.076  54.840  1.00  0.00     0.016 A 
HETATM    5  C   UNL     1       5.503  25.790  54.332  1.00  0.00     0.130 A 
ENDROOT
BRANCH   4   6
HETATM    6  C   UNL     1       4.423  28.102  54.610  1.00  0.00     0.277 C 
BRANCH   6   7
HETATM    7  N   UNL     1       4.556  28.868  53.275  1.00  0.00    -0.067 N 
HETATM    8  H   UNL     1       5.050  29.737  53.543  1.00  0.00     0.280 HD
HETATM    9  C   UNL     1       5.428  28.140  52.287  1.00  0.00     0.237 C 
HETATM   10  C   UNL     1       5.485  28.886  50.972  1.00  0.00     0.061 C 
HETATM   11  C   UNL     1       4.114  29.143  50.347  1.00  0.00     0.191 C 
HETATM   12  C   UNL     1       3.207  29.843  51.365  1.00  0.00     0.061 C 
HETATM   13  C   UNL     1       3.187  29.234  52.767  1.00  0.00     0.237 C 
BRANCH  11  14
HETATM   14  N   UNL     1       3.468  27.933  49.635  1.00  0.00    -0.064 N 
HETATM   15  H   UNL     1       3.034  27.398  50.407  1.00  0.00     0.280 HD
HETATM   16  C   UNL     1       2.266  28.324  48.764  1.00  0.00     0.266 C 
HETATM   17  C   UNL     1       1.475  27.111  48.252  1.00  0.00     0.144 C 
HETATM   18  C   UNL     1       2.393  26.105  47.571  1.00  0.00     0.035 C 
HETATM   19  C   UNL     1       3.536  25.710  48.489  1.00  0.00     0.030 C 
HETATM   20  C   UNL     1       4.348  26.919  48.937  1.00  0.00     0.235 C 
BRANCH  17  21
HETATM   21  O   UNL     1       0.527  27.584  47.308  1.00  0.00    -0.394 OA
HETATM   22  H   UNL     1       0.688  27.155  46.445  1.00  0.00     0.210 HD
ENDBRANCH  17  21
ENDBRANCH  11  14
ENDBRANCH   6   7
ENDBRANCH   4   6
BRANCH   3  23
HETATM   23  C   UNL     1       7.086  28.277  56.472  1.00  0.00    -0.005 A 
HETATM   24  C   UNL     1       8.455  28.518  56.655  1.00  0.00     0.017 A 
HETATM   25  C   UNL     1       8.880  29.584  57.450  1.00  0.00     0.043 A 
HETATM   26  C   UNL     1       7.937  30.399  58.066  1.00  0.00     0.116 A 
HETATM   27  F   UNL     1       8.344  31.425  58.822  1.00  0.00    -0.206 F 
HETATM   28  C   UNL     1       6.576  30.160  57.915  1.00  0.00     0.043 A 
HETATM   29  C   UNL     1       6.147  29.093  57.122  1.00  0.00     0.017 A 
ENDBRANCH   3  23
BRANCH   1  30
HETATM   30  C   UNL     1       7.184  23.917  54.425  1.00  0.00     0.058 A 
HETATM   31  C   UNL     1       7.402  22.989  55.451  1.00  0.00     0.032 A 
HETATM   32  C   UNL     1       7.903  21.716  55.159  1.00  0.00     0.009 A 
HETATM   33  C   UNL     1       8.202  21.356  53.842  1.00  0.00    -0.062 A 
HETATM   34  C   UNL     1       8.722  19.985  53.515  1.00  0.00     0.048 C 
HETATM   35  C   UNL     1       7.975  22.280  52.816  1.00  0.00     0.009 A 
HETATM   36  C   UNL     1       7.471  23.554  53.100  1.00  0.00     0.032 A 
ENDBRANCH   1  30
TORSDOF 6
ENDMDL
MODEL 5
REMARK VINA RESULT:      -9.9      4.685      9.762
REMARK  6 active torsions:
REMARK  status: ('A' for Active; 'I' for Inactive)
REMARK    1  A    between atoms: C_5  and  N_6 
REMARK    2  A    between atoms: C_8  and  C_9 
REMARK    3  A    between atoms: C_16  and  C_17 
REMARK    4  A    between atoms: C_17  and  N_18 
REMARK    5  A    between atoms: C_22  and  N_23 
REMARK    6  A    between atoms: C_26  and  O_27 
ROOT
HETATM    1  N   UNL     1       6.473  25.093  54.763  1.00  0.00    -0.244 N 
HETATM    2  N   UNL     1       5.974  25.897  53.799  1.00  0.00    -0.167 NA
HETATM    3  C   UNL     1       5.551  27.006  54.408  1.00  0.00     0.097 A 
HETATM    4  C   UNL     1       5.643  26.876  55.821  1.00  0.00     0.016 A 
HETATM    5  C   UNL     1       6.285  25.665  56.007  1.00  0.00     0.130 A 
ENDROOT
BRANCH   4   6
HETATM    6  C   UNL     1       5.178  27.814  56.869  1.00  0.00     0.277 C 
BRANCH   6   7
HETATM    7  N   UNL     1       5.962  29.144  56.936  1.00  0.00    -0.067 N 
HETATM    8  H   UNL     1       6.006  29.449  55.948  1.00  0.00     0.280 HD
HETATM    9  C   UNL     1       5.218  30.204  57.704  1.00  0.00     0.237 C 
HETATM   10  C   UNL     1       6.041  31.469  57.804  1.00  0.00     0.061 C 
HETATM   11  C   UNL     1       7.420  31.262  58.430  1.00  0.00     0.191 C 
HETATM   12  C   UNL     1       8.164  30.152  57.681  1.00  0.00     0.061 C 
HETATM   13  C   UNL     1       7.364  28.876  57.417  1.00  0.00     0.237 C 
BRANCH  11  14
HETATM   14  N   UNL     1       7.440  31.126  59.970  1.00  0.00    -0.064 N 
HETATM   15  H   UNL     1       6.740  30.387  60.158  1.00  0.00     0.280 HD
HETATM   16  C   UNL     1       8.744  30.513  60.497  1.00  0.00     0.266 C 
HETATM   17  C   UNL     1       8.677  30.150  61.988  1.00  0.00     0.144 C 
HETATM   18  C   UNL     1       8.203  31.334  62.821  1.00  0.00     0.035 C 
HETATM   19  C   UNL     1       6.886  31.873  62.291  1.00  0.00     0.030 C 
HETATM   20  C   UNL     1       6.988  32.286  60.829  1.00  0.00     0.235 C 
BRANCH  17  21
HETATM   21  O   UNL     1       9.986  29.789  62.402  1.00  0.00    -0.394 OA
HETATM   22  H   UNL     1      10.013  29.735  63.378  1.00  0.00     0.210 HD
ENDBRANCH  17  21
ENDBRANCH  11  14
ENDBRANCH   6   7
ENDBRANCH   4   6
BRANCH   3  23
HETATM   23  C   UNL     1       5.034  28.128  53.633  1.00  0.00    -0.005 A 
HETATM   24  C   UNL     1       5.653  28.497  52.430  1.00  0.00     0.017 A 
HETATM   25  C   UNL     1       5.153  29.565  51.682  1.00  0.00     0.043 A 
HETATM   26  C   UNL     1       4.044  30.265  52.143  1.00  0.00     0.116 A 
HETATM   27  F   UNL     1       3.560  31.283  51.422  1.00  0.00    -0.206 F 
HETATM   28  C   UNL     1       3.433  29.929  53.345  1.00  0.00     0.043 A 
HETATM   29  C   UNL     1       3.932  28.863  54.097  1.00  0.00     0.017 A 
ENDBRANCH   3  23
BRANCH   1  30
HETATM   30  C   UNL     1       7.041  23.827  54.459  1.00  0.00     0.058 A 
HETATM   31  C   UNL     1       7.306  22.925  55.497  1.00  0.00     0.032 A 
HETATM   32  C   UNL     1       7.876  21.678  55.222  1.00  0.00     0.009 A 
HETATM   33  C   UNL     1       8.196  21.318  53.910  1.00  0.00    -0.062 A 
HETATM   34  C   UNL     1       8.790  19.973  53.601  1.00  0.00     0.048 C 
HETATM   35  C   UNL     1       7.922  22.215  52.873  1.00  0.00     0.009 A 
HETATM   36  C   UNL     1       7.349  23.464  53.139  1.00  0.00     0.032 A 
ENDBRANCH   1  30
TORSDOF 6
ENDMDL
MODEL 6
REMARK VINA RESULT:      -9.6      4.801      7.269
REMARK  6 active torsions:
REMARK  status: ('A' for Active; 'I' for Inactive)
REMARK    1  A    between atoms: C_5  and  N_6 
REMARK    2  A    between atoms: C_8  and  C_9 
REMARK    3  A    between atoms: C_16  and  C_17 
REMARK    4  A    between atoms: C_17  and  N_18 
REMARK    5  A    between atoms: C_22  and  N_23 
REMARK    6  A    between atoms: C_26  and  O_27 
ROOT
HETATM    1  N   UNL     1       6.611  31.707  59.609  1.00  0.00    -0.244 N 
HETATM    2  N   UNL     1       5.688  32.244  58.782  1.00  0.00    -0.167 NA
HETATM    3  C   UNL     1       5.708  31.515  57.664  1.00  0.00     0.097 A 
HETATM    4  C   UNL     1       6.764  30.563  57.697  1.00  0.00     0.016 A 
HETATM    5  C   UNL     1       7.283  30.680  58.974  1.00  0.00     0.130 A 
ENDROOT
BRANCH   4   6
HETATM    6  C   UNL     1       7.212  29.642  56.628  1.00  0.00     0.277 C 
BRANCH   6   7
HETATM    7  N   UNL     1       6.188  28.547  56.250  1.00  0.00    -0.067 N 
HETATM    8  H   UNL     1       5.281  28.958  56.531  1.00  0.00     0.280 HD
HETATM    9  C   UNL     1       6.135  28.308  54.765  1.00  0.00     0.237 C 
HETATM   10  C   UNL     1       5.171  27.189  54.437  1.00  0.00     0.061 C 
HETATM   11  C   UNL     1       5.482  25.875  55.153  1.00  0.00     0.191 C 
HETATM   12  C   UNL     1       5.583  26.122  56.662  1.00  0.00     0.061 C 
HETATM   13  C   UNL     1       6.436  27.319  57.085  1.00  0.00     0.237 C 
BRANCH  11  14
HETATM   14  N   UNL     1       6.645  25.049  54.557  1.00  0.00    -0.064 N 
HETATM   15  H   UNL     1       7.415  25.736  54.475  1.00  0.00     0.280 HD
HETATM   16  C   UNL     1       7.205  24.012  55.538  1.00  0.00     0.266 C 
HETATM   17  C   UNL     1       8.507  23.362  55.047  1.00  0.00     0.144 C 
HETATM   18  C   UNL     1       8.347  22.812  53.636  1.00  0.00     0.035 C 
HETATM   19  C   UNL     1       7.840  23.888  52.692  1.00  0.00     0.030 C 
HETATM   20  C   UNL     1       6.517  24.478  53.162  1.00  0.00     0.235 C 
BRANCH  17  21
HETATM   21  O   UNL     1       8.812  22.291  55.927  1.00  0.00    -0.394 OA
HETATM   22  H   UNL     1       9.469  21.702  55.506  1.00  0.00     0.210 HD
ENDBRANCH  17  21
ENDBRANCH  11  14
ENDBRANCH   6   7
ENDBRANCH   4   6
BRANCH   3  23
HETATM   23  C   UNL     1       4.757  31.777  56.590  1.00  0.00    -0.005 A 
HETATM   24  C   UNL     1       3.595  31.001  56.475  1.00  0.00     0.017 A 
HETATM   25  C   UNL     1       2.678  31.257  55.453  1.00  0.00     0.043 A 
HETATM   26  C   UNL     1       2.930  32.280  54.546  1.00  0.00     0.116 A 
HETATM   27  F   UNL     1       2.048  32.531  53.572  1.00  0.00    -0.206 F 
HETATM   28  C   UNL     1       4.089  33.043  54.631  1.00  0.00     0.043 A 
HETATM   29  C   UNL     1       5.009  32.788  55.650  1.00  0.00     0.017 A 
ENDBRANCH   3  23
BRANCH   1  30
HETATM   30  C   UNL     1       6.836  32.225  60.912  1.00  0.00     0.058 A 
HETATM   31  C   UNL     1       7.932  31.767  61.655  1.00  0.00     0.032 A 
HETATM   32  C   UNL     1       8.166  32.255  62.944  1.00  0.00     0.009 A 
HETATM   33  C   UNL     1       7.306  33.199  63.514  1.00  0.00    -0.062 A 
HETATM   34  C   UNL     1       7.559  33.743  64.890  1.00  0.00     0.048 C 
HETATM   35  C   UNL     1       6.217  33.663  62.767  1.00  0.00     0.009 A 
HETATM   36  C   UNL     1       5.979  33.182  61.475  1.00  0.00     0.032 A 
ENDBRANCH   1  30
TORSDOF 6
ENDMDL
MODEL 7
REMARK VINA RESULT:      -9.5      2.784      8.056
REMARK  6 active torsions:
REMARK  status: ('A' for Active; 'I' for Inactive)
REMARK    1  A    between atoms: C_5  and  N_6 
REMARK    2  A    between atoms: C_8  and  C_9 
REMARK    3  A    between atoms: C_16  and  C_17 
REMARK    4  A    between atoms: C_17  and  N_18 
REMARK    5  A    between atoms: C_22  and  N_23 
REMARK    6  A    between atoms: C_26  and  O_27 
ROOT
HETATM    1  N   UNL     1       5.192  26.815  51.151  1.00  0.00    -0.244 N 
HETATM    2  N   UNL     1       5.614  25.585  51.516  1.00  0.00    -0.167 NA
HETATM    3  C   UNL     1       6.418  25.754  52.567  1.00  0.00     0.097 A 
HETATM    4  C   UNL     1       6.646  27.135  52.815  1.00  0.00     0.016 A 
HETATM    5  C   UNL     1       5.806  27.780  51.926  1.00  0.00     0.130 A 
ENDROOT
BRANCH   4   6
HETATM    6  C   UNL     1       7.558  27.759  53.802  1.00  0.00     0.277 C 
BRANCH   6   7
HETATM    7  N   UNL     1       6.991  27.848  55.237  1.00  0.00    -0.067 N 
HETATM    8  H   UNL     1       7.287  26.955  55.668  1.00  0.00     0.280 HD
HETATM    9  C   UNL     1       7.620  28.963  56.028  1.00  0.00     0.237 C 
HETATM   10  C   UNL     1       6.997  29.060  57.404  1.00  0.00     0.061 C 
HETATM   11  C   UNL     1       5.480  29.243  57.384  1.00  0.00     0.191 C 
HETATM   12  C   UNL     1       4.838  28.137  56.541  1.00  0.00     0.061 C 
HETATM   13  C   UNL     1       5.486  27.876  55.181  1.00  0.00     0.237 C 
BRANCH  11  14
HETATM   14  N   UNL     1       4.985  30.671  57.058  1.00  0.00    -0.064 N 
HETATM   15  H   UNL     1       5.534  30.934  56.221  1.00  0.00     0.280 HD
HETATM   16  C   UNL     1       3.538  30.699  56.549  1.00  0.00     0.266 C 
HETATM   17  C   UNL     1       3.122  32.070  55.995  1.00  0.00     0.144 C 
HETATM   18  C   UNL     1       3.415  33.178  56.997  1.00  0.00     0.035 C 
HETATM   19  C   UNL     1       4.870  33.141  57.432  1.00  0.00     0.030 C 
HETATM   20  C   UNL     1       5.248  31.795  58.036  1.00  0.00     0.235 C 
BRANCH  17  21
HETATM   21  O   UNL     1       1.725  32.028  55.749  1.00  0.00    -0.394 OA
HETATM   22  H   UNL     1       1.291  32.767  56.220  1.00  0.00     0.210 HD
ENDBRANCH  17  21
ENDBRANCH  11  14
ENDBRANCH   6   7
ENDBRANCH   4   6
BRANCH   3  23
HETATM   23  C   UNL     1       6.976  24.603  53.267  1.00  0.00    -0.005 A 
HETATM   24  C   UNL     1       7.854  23.733  52.605  1.00  0.00     0.017 A 
HETATM   25  C   UNL     1       8.396  22.637  53.278  1.00  0.00     0.043 A 
HETATM   26  C   UNL     1       8.053  22.408  54.606  1.00  0.00     0.116 A 
HETATM   27  F   UNL     1       8.579  21.362  55.253  1.00  0.00    -0.206 F 
HETATM   28  C   UNL     1       7.165  23.245  55.271  1.00  0.00     0.043 A 
HETATM   29  C   UNL     1       6.618  24.342  54.600  1.00  0.00     0.017 A 
ENDBRANCH   3  23
BRANCH   1  30
HETATM   30  C   UNL     1       4.289  27.005  50.070  1.00  0.00     0.058 A 
HETATM   31  C   UNL     1       3.549  28.191  49.993  1.00  0.00     0.032 A 
HETATM   32  C   UNL     1       2.645  28.393  48.945  1.00  0.00     0.009 A 
HETATM   33  C   UNL     1       2.463  27.413  47.965  1.00  0.00    -0.062 A 
HETATM   34  C   UNL     1       1.510  27.628  46.824  1.00  0.00     0.048 C 
HETATM   35  C   UNL     1       3.211  26.232  48.038  1.00  0.00     0.009 A 
HETATM   36  C   UNL     1       4.119  26.024  49.082  1.00  0.00     0.032 A 
ENDBRANCH   1  30
TORSDOF 6
ENDMDL
MODEL 8
REMARK VINA RESULT:      -9.4      5.441      8.768
REMARK  6 active torsions:
REMARK  status: ('A' for Active; 'I' for Inactive)
REMARK    1  A    between atoms: C_5  and  N_6 
REMARK    2  A    between atoms: C_8  and  C_9 
REMARK    3  A    between atoms: C_16  and  C_17 
REMARK    4  A    between atoms: C_17  and  N_18 
REMARK    5  A    between atoms: C_22  and  N_23 
REMARK    6  A    between atoms: C_26  and  O_27 
ROOT
HETATM    1  N   UNL     1       7.693  25.806  55.933  1.00  0.00    -0.244 N 
HETATM    2  N   UNL     1       8.434  26.581  56.755  1.00  0.00    -0.167 NA
HETATM    3  C   UNL     1       8.059  27.842  56.531  1.00  0.00     0.097 A 
HETATM    4  C   UNL     1       7.153  27.916  55.438  1.00  0.00     0.016 A 
HETATM    5  C   UNL     1       6.903  26.594  55.117  1.00  0.00     0.130 A 
ENDROOT
BRANCH   4   6
HETATM    6  C   UNL     1       6.585  29.119  54.787  1.00  0.00     0.277 C 
BRANCH   6   7
HETATM    7  N   UNL     1       5.137  29.457  55.209  1.00  0.00    -0.067 N 
HETATM    8  H   UNL     1       4.559  28.930  54.531  1.00  0.00     0.280 HD
HETATM    9  C   UNL     1       4.810  28.937  56.583  1.00  0.00     0.237 C 
HETATM   10  C   UNL     1       3.409  29.340  56.988  1.00  0.00     0.061 C 
HETATM   11  C   UNL     1       3.162  30.847  56.943  1.00  0.00     0.191 C 
HETATM   12  C   UNL     1       3.538  31.390  55.560  1.00  0.00     0.061 C 
HETATM   13  C   UNL     1       4.887  30.929  55.009  1.00  0.00     0.237 C 
BRANCH  11  14
HETATM   14  N   UNL     1       3.738  31.654  58.130  1.00  0.00    -0.064 N 
HETATM   15  H   UNL     1       3.255  32.566  58.062  1.00  0.00     0.280 HD
HETATM   16  C   UNL     1       3.283  31.117  59.493  1.00  0.00     0.266 C 
HETATM   17  C   UNL     1       3.647  32.050  60.658  1.00  0.00     0.144 C 
HETATM   18  C   UNL     1       5.127  32.409  60.631  1.00  0.00     0.035 C 
HETATM   19  C   UNL     1       5.518  32.983  59.280  1.00  0.00     0.030 C 
HETATM   20  C   UNL     1       5.206  32.019  58.142  1.00  0.00     0.235 C 
BRANCH  17  21
HETATM   21  O   UNL     1       3.361  31.362  61.866  1.00  0.00    -0.394 OA
HETATM   22  H   UNL     1       3.613  30.422  61.770  1.00  0.00     0.210 HD
ENDBRANCH  17  21
ENDBRANCH  11  14
ENDBRANCH   6   7
ENDBRANCH   4   6
BRANCH   3  23
HETATM   23  C   UNL     1       8.606  28.932  57.330  1.00  0.00    -0.005 A 
HETATM   24  C   UNL     1       9.832  29.516  56.979  1.00  0.00     0.017 A 
HETATM   25  C   UNL     1      10.352  30.566  57.738  1.00  0.00     0.043 A 
HETATM   26  C   UNL     1       9.651  31.024  58.848  1.00  0.00     0.116 A 
HETATM   27  F   UNL     1      10.146  32.036  59.570  1.00  0.00    -0.206 F 
HETATM   28  C   UNL     1       8.447  30.441  59.225  1.00  0.00     0.043 A 
HETATM   29  C   UNL     1       7.925  29.388  58.470  1.00  0.00     0.017 A 
ENDBRANCH   3  23
BRANCH   1  30
HETATM   30  C   UNL     1       7.816  24.391  55.929  1.00  0.00     0.058 A 
HETATM   31  C   UNL     1       7.493  23.676  54.769  1.00  0.00     0.032 A 
HETATM   32  C   UNL     1       7.595  22.281  54.747  1.00  0.00     0.009 A 
HETATM   33  C   UNL     1       8.012  21.582  55.883  1.00  0.00    -0.062 A 
HETATM   34  C   UNL     1       8.144  20.086  55.865  1.00  0.00     0.048 C 
HETATM   35  C   UNL     1       8.344  22.298  57.038  1.00  0.00     0.009 A 
HETATM   36  C   UNL     1       8.248  23.694  57.067  1.00  0.00     0.032 A 
ENDBRANCH   1  30
TORSDOF 6
ENDMDL
MODEL 9
REMARK VINA RESULT:      -9.3      2.641      6.905
REMARK  6 active torsions:
REMARK  status: ('A' for Active; 'I' for Inactive)
REMARK    1  A    between atoms: C_5  and  N_6 
REMARK    2  A    between atoms: C_8  and  C_9 
REMARK    3  A    between atoms: C_16  and  C_17 
REMARK    4  A    between atoms: C_17  and  N_18 
REMARK    5  A    between atoms: C_22  and  N_23 
REMARK    6  A    between atoms: C_26  and  O_27 
ROOT
HETATM    1  N   UNL     1       5.586  26.045  52.183  1.00  0.00    -0.244 N 
HETATM    2  N   UNL     1       6.373  24.948  52.217  1.00  0.00    -0.167 NA
HETATM    3  C   UNL     1       6.470  24.589  53.499  1.00  0.00     0.097 A 
HETATM    4  C   UNL     1       5.851  25.550  54.344  1.00  0.00     0.016 A 
HETATM    5  C   UNL     1       5.253  26.436  53.466  1.00  0.00     0.130 A 
ENDROOT
BRANCH   4   6
HETATM    6  C   UNL     1       5.829  25.603  55.824  1.00  0.00     0.277 C 
BRANCH   6   7
HETATM    7  N   UNL     1       6.261  26.958  56.427  1.00  0.00    -0.067 N 
HETATM    8  H   UNL     1       6.863  26.687  57.224  1.00  0.00     0.280 HD
HETATM    9  C   UNL     1       7.107  27.760  55.475  1.00  0.00     0.237 C 
HETATM   10  C   UNL     1       7.458  29.105  56.072  1.00  0.00     0.061 C 
HETATM   11  C   UNL     1       6.243  29.931  56.492  1.00  0.00     0.191 C 
HETATM   12  C   UNL     1       5.355  29.103  57.426  1.00  0.00     0.061 C 
HETATM   13  C   UNL     1       5.052  27.677  56.964  1.00  0.00     0.237 C 
BRANCH  11  14
HETATM   14  N   UNL     1       5.488  30.638  55.343  1.00  0.00    -0.064 N 
HETATM   15  H   UNL     1       6.223  30.803  54.634  1.00  0.00     0.280 HD
HETATM   16  C   UNL     1       4.504  29.711  54.616  1.00  0.00     0.266 C 
HETATM   17  C   UNL     1       3.935  30.329  53.331  1.00  0.00     0.144 C 
HETATM   18  C   UNL     1       3.355  31.712  53.596  1.00  0.00     0.035 C 
HETATM   19  C   UNL     1       4.381  32.607  54.269  1.00  0.00     0.030 C 
HETATM   20  C   UNL     1       4.889  32.007  55.574  1.00  0.00     0.235 C 
BRANCH  17  21
HETATM   21  O   UNL     1       2.901  29.476  52.865  1.00  0.00    -0.394 OA
HETATM   22  H   UNL     1       3.066  29.247  51.930  1.00  0.00     0.210 HD
ENDBRANCH  17  21
ENDBRANCH  11  14
ENDBRANCH   6   7
ENDBRANCH   4   6
BRANCH   3  23
HETATM   23  C   UNL     1       7.183  23.375  53.877  1.00  0.00    -0.005 A 
HETATM   24  C   UNL     1       7.310  23.025  55.229  1.00  0.00     0.017 A 
HETATM   25  C   UNL     1       7.984  21.857  55.592  1.00  0.00     0.043 A 
HETATM   26  C   UNL     1       8.535  21.049  54.605  1.00  0.00     0.116 A 
HETATM   27  F   UNL     1       9.175  19.925  54.952  1.00  0.00    -0.206 F 
HETATM   28  C   UNL     1       8.441  21.392  53.262  1.00  0.00     0.043 A 
HETATM   29  C   UNL     1       7.770  22.561  52.895  1.00  0.00     0.017 A 
ENDBRANCH   3  23
BRANCH   1  30
HETATM   30  C   UNL     1       5.246  26.682  50.959  1.00  0.00     0.058 A 
HETATM   31  C   UNL     1       5.464  28.058  50.816  1.00  0.00     0.032 A 
HETATM   32  C   UNL     1       5.126  28.708  49.625  1.00  0.00     0.009 A 
HETATM   33  C   UNL     1       4.558  27.995  48.564  1.00  0.00    -0.062 A 
HETATM   34  C   UNL     1       4.209  28.679  47.273  1.00  0.00     0.048 C 
HETATM   35  C   UNL     1       4.350  26.619  48.704  1.00  0.00     0.009 A 
HETATM   36  C   UNL     1       4.689  25.961  49.892  1.00  0.00     0.032 A 
ENDBRANCH   1  30
TORSDOF 6
ENDMDL
MODEL 10
REMARK VINA RESULT:      -9.2      4.613      9.432
REMARK  6 active torsions:
REMARK  status: ('A' for Active; 'I' for Inactive)
REMARK    1  A    between atoms: C_5  and  N_6 
REMARK    2  A    between atoms: C_8  and  C_9 
REMARK    3  A    between atoms: C_16  and  C_17 
REMARK    4  A    between atoms: C_17  and  N_18 
REMARK    5  A    between atoms: C_22  and  N_23 
REMARK    6  A    between atoms: C_26  and  O_27 
ROOT
HETATM    1  N   UNL     1       6.166  25.377  54.465  1.00  0.00    -0.244 N 
HETATM    2  N   UNL     1       5.754  26.060  53.376  1.00  0.00    -0.167 NA
HETATM    3  C   UNL     1       5.210  27.194  53.821  1.00  0.00     0.097 A 
HETATM    4  C   UNL     1       5.133  27.199  55.240  1.00  0.00     0.016 A 
HETATM    5  C   UNL     1       5.801  26.047  55.617  1.00  0.00     0.130 A 
ENDROOT
BRANCH   4   6
HETATM    6  C   UNL     1       4.502  28.201  56.130  1.00  0.00     0.277 C 
BRANCH   6   7
HETATM    7  N   UNL     1       5.372  29.445  56.419  1.00  0.00    -0.067 N 
HETATM    8  H   UNL     1       5.884  29.593  55.532  1.00  0.00     0.280 HD
HETATM    9  C   UNL     1       4.540  30.674  56.670  1.00  0.00     0.237 C 
HETATM   10  C   UNL     1       5.421  31.856  57.012  1.00  0.00     0.061 C 
HETATM   11  C   UNL     1       6.345  31.614  58.205  1.00  0.00     0.191 C 
HETATM   12  C   UNL     1       7.161  30.338  57.975  1.00  0.00     0.061 C 
HETATM   13  C   UNL     1       6.370  29.119  57.499  1.00  0.00     0.237 C 
BRANCH  11  14
HETATM   14  N   UNL     1       5.676  31.708  59.597  1.00  0.00    -0.064 N 
HETATM   15  H   UNL     1       5.500  30.721  59.850  1.00  0.00     0.280 HD
HETATM   16  C   UNL     1       6.641  32.183  60.691  1.00  0.00     0.266 C 
HETATM   17  C   UNL     1       6.059  32.046  62.106  1.00  0.00     0.144 C 
HETATM   18  C   UNL     1       4.689  32.705  62.201  1.00  0.00     0.035 C 
HETATM   19  C   UNL     1       3.756  32.167  61.132  1.00  0.00     0.030 C 
HETATM   20  C   UNL     1       4.321  32.367  59.731  1.00  0.00     0.235 C 
BRANCH  17  21
HETATM   21  O   UNL     1       6.947  32.696  63.001  1.00  0.00    -0.394 OA
HETATM   22  H   UNL     1       6.517  32.790  63.873  1.00  0.00     0.210 HD
ENDBRANCH  17  21
ENDBRANCH  11  14
ENDBRANCH   6   7
ENDBRANCH   4   6
BRANCH   3  23
HETATM   23  C   UNL     1       4.743  28.211  52.885  1.00  0.00    -0.005 A 
HETATM   24  C   UNL     1       3.371  28.465  52.749  1.00  0.00     0.017 A 
HETATM   25  C   UNL     1       2.923  29.445  51.860  1.00  0.00     0.043 A 
HETATM   26  C   UNL     1       3.846  30.160  51.106  1.00  0.00     0.116 A 
HETATM   27  F   UNL     1       3.418  31.104  50.260  1.00  0.00    -0.206 F 
HETATM   28  C   UNL     1       5.208  29.905  51.210  1.00  0.00     0.043 A 
HETATM   29  C   UNL     1       5.660  28.923  52.096  1.00  0.00     0.017 A 
ENDBRANCH   3  23
BRANCH   1  30
HETATM   30  C   UNL     1       6.823  24.122  54.355  1.00  0.00     0.058 A 
HETATM   31  C   UNL     1       7.157  23.630  53.088  1.00  0.00     0.032 A 
HETATM   32  C   UNL     1       7.793  22.391  52.955  1.00  0.00     0.009 A 
HETATM   33  C   UNL     1       8.096  21.624  54.084  1.00  0.00    -0.062 A 
HETATM   34  C   UNL     1       8.797  20.302  53.954  1.00  0.00     0.048 C 
HETATM   35  C   UNL     1       7.771  22.122  55.351  1.00  0.00     0.009 A 
HETATM   36  C   UNL     1       7.138  23.362  55.491  1.00  0.00     0.032 A 
ENDBRANCH   1  30
TORSDOF 6
ENDMDL
