MODEL 1
REMARK VINA RESULT:      -9.5      0.000      0.000
REMARK  11 active torsions:
REMARK  status: ('A' for Active; 'I' for Inactive)
REMARK    1  A    between atoms: C_4  and  C_5 
REMARK       I    between atoms: C_5  and  N_6 
REMARK    2  A    between atoms: N_6  and  C_7 
REMARK    3  A    between atoms: C_7  and  C_8 
REMARK    4  A    between atoms: C_8  and  C_9 
REMARK    5  A    between atoms: C_9  and  C_10 
REMARK    6  A    between atoms: C_10  and  C_11 
REMARK    7  A    between atoms: C_11  and  C_12 
REMARK       I    between atoms: C_12  and  N_13 
REMARK    8  A    between atoms: N_13  and  N_14 
REMARK    9  A    between atoms: C_15  and  C_16 
REMARK   10  A    between atoms: C_17  and  O_18 
REMARK   11  A    between atoms: C_20  and  O_21 
ROOT
HETATM    1  C   UNL     1       8.653  31.178  59.243  1.00  0.00     0.237 C 
HETATM    2  N   UNL     1       7.715  30.727  60.163  1.00  0.00    -0.247 N 
HETATM    3  O   UNL     1       9.061  32.334  59.181  1.00  0.00    -0.272 OA
HETATM    4  H   UNL     1       7.408  29.760  60.167  1.00  0.00     0.192 HD
ENDROOT
BRANCH   1   5
HETATM    5  C   UNL     1       9.133  30.076  58.316  1.00  0.00     0.105 C 
BRANCH   5   6
HETATM    6  C   UNL     1       8.018  29.079  58.004  1.00  0.00     0.009 C 
BRANCH   6   7
HETATM    7  C   UNL     1       8.483  27.971  57.062  1.00  0.00     0.002 C 
BRANCH   7   8
HETATM    8  C   UNL     1       7.453  26.842  57.003  1.00  0.00     0.020 C 
BRANCH   8   9
HETATM    9  C   UNL     1       7.253  26.330  55.578  1.00  0.00     0.123 C 
BRANCH   9  10
HETATM   10  N   UNL     1       7.637  24.936  55.469  1.00  0.00    -0.357 N 
HETATM   11  C   UNL     1       7.020  24.086  54.571  1.00  0.00     0.251 C 
HETATM   12  O   UNL     1       6.086  24.439  53.858  1.00  0.00    -0.268 OA
HETATM   13  H   UNL     1       8.508  24.664  55.897  1.00  0.00     0.162 HD
BRANCH  11  14
HETATM   14  C   UNL     1       7.553  22.693  54.470  1.00  0.00     0.032 A 
HETATM   15  C   UNL     1       7.773  21.876  55.588  1.00  0.00     0.017 A 
HETATM   16  C   UNL     1       8.271  20.579  55.425  1.00  0.00     0.001 A 
HETATM   17  C   UNL     1       8.538  20.086  54.150  1.00  0.00     0.000 A 
HETATM   18  C   UNL     1       8.307  20.884  53.032  1.00  0.00     0.001 A 
HETATM   19  C   UNL     1       7.817  22.182  53.191  1.00  0.00     0.017 A 
ENDBRANCH  11  14
ENDBRANCH   9  10
ENDBRANCH   8   9
ENDBRANCH   7   8
ENDBRANCH   6   7
ENDBRANCH   5   6
ENDBRANCH   1   5
BRANCH   2  20
HETATM   20  N   UNL     1       7.199  31.610  61.056  1.00  0.00    -0.184 NA
HETATM   21  C   UNL     1       7.475  31.409  62.304  1.00  0.00     0.153 C 
BRANCH  21  22
HETATM   22  C   UNL     1       6.949  32.322  63.339  1.00  0.00     0.016 A 
HETATM   23  C   UNL     1       5.576  32.440  63.598  1.00  0.00     0.080 A 
HETATM   24  C   UNL     1       5.115  33.310  64.584  1.00  0.00     0.074 A 
HETATM   25  C   UNL     1       6.034  34.063  65.308  1.00  0.00     0.068 A 
HETATM   26  C   UNL     1       7.400  33.958  65.061  1.00  0.00     0.037 A 
HETATM   27  C   UNL     1       7.863  33.085  64.074  1.00  0.00     0.018 A 
BRANCH  23  28
HETATM   28  O   UNL     1       4.617  31.731  62.925  1.00  0.00    -0.360 OA
HETATM   29  H   UNL     1       3.997  32.367  62.497  1.00  0.00     0.217 HD
ENDBRANCH  23  28
BRANCH  25  30
HETATM   30  O   UNL     1       5.630  34.927  66.283  1.00  0.00    -0.361 OA
HETATM   31  H   UNL     1       5.122  35.644  65.867  1.00  0.00     0.217 HD
ENDBRANCH  25  30
ENDBRANCH  21  22
ENDBRANCH   2  20
TORSDOF 11
ENDMDL
MODEL 2
REMARK VINA RESULT:      -8.8      2.943     11.394
REMARK  11 active torsions:
REMARK  status: ('A' for Active; 'I' for Inactive)
REMARK    1  A    between atoms: C_4  and  C_5 
REMARK       I    between atoms: C_5  and  N_6 
REMARK    2  A    between atoms: N_6  and  C_7 
REMARK    3  A    between atoms: C_7  and  C_8 
REMARK    4  A    between atoms: C_8  and  C_9 
REMARK    5  A    between atoms: C_9  and  C_10 
REMARK    6  A    between atoms: C_10  and  C_11 
REMARK    7  A    between atoms: C_11  and  C_12 
REMARK       I    between atoms: C_12  and  N_13 
REMARK    8  A    between atoms: N_13  and  N_14 
REMARK    9  A    between atoms: C_15  and  C_16 
REMARK   10  A    between atoms: C_17  and  O_18 
REMARK   11  A    between atoms: C_20  and  O_21 
ROOT
HETATM    1  C   UNL     1       5.328  26.711  56.155  1.00  0.00     0.237 C 
HETATM    2  N   UNL     1       6.055  26.352  55.028  1.00  0.00    -0.247 N 
HETATM    3  O   UNL     1       4.949  25.921  57.015  1.00  0.00    -0.272 OA
HETATM    4  H   UNL     1       6.340  27.046  54.345  1.00  0.00     0.192 HD
ENDROOT
BRANCH   1   5
HETATM    5  C   UNL     1       5.056  28.203  56.219  1.00  0.00     0.105 C 
BRANCH   5   6
HETATM    6  C   UNL     1       6.217  29.011  55.643  1.00  0.00     0.009 C 
BRANCH   6   7
HETATM    7  C   UNL     1       7.215  29.434  56.720  1.00  0.00     0.002 C 
BRANCH   7   8
HETATM    8  C   UNL     1       8.645  29.087  56.301  1.00  0.00     0.020 C 
BRANCH   8   9
HETATM    9  C   UNL     1       9.678  29.771  57.191  1.00  0.00     0.123 C 
BRANCH   9  10
HETATM   10  N   UNL     1       9.076  30.229  58.428  1.00  0.00    -0.357 N 
HETATM   11  C   UNL     1       9.375  31.468  58.961  1.00  0.00     0.251 C 
HETATM   12  O   UNL     1      10.197  32.226  58.456  1.00  0.00    -0.268 OA
HETATM   13  H   UNL     1       8.273  29.721  58.764  1.00  0.00     0.162 HD
BRANCH  11  14
HETATM   14  C   UNL     1       8.629  31.883  60.188  1.00  0.00     0.032 A 
HETATM   15  C   UNL     1       7.311  32.358  60.158  1.00  0.00     0.017 A 
HETATM   16  C   UNL     1       6.668  32.727  61.344  1.00  0.00     0.001 A 
HETATM   17  C   UNL     1       7.329  32.611  62.565  1.00  0.00     0.000 A 
HETATM   18  C   UNL     1       8.633  32.124  62.608  1.00  0.00     0.001 A 
HETATM   19  C   UNL     1       9.281  31.762  61.425  1.00  0.00     0.017 A 
ENDBRANCH  11  14
ENDBRANCH   9  10
ENDBRANCH   8   9
ENDBRANCH   7   8
ENDBRANCH   6   7
ENDBRANCH   5   6
ENDBRANCH   1   5
BRANCH   2  20
HETATM   20  N   UNL     1       6.370  25.044  54.843  1.00  0.00    -0.184 NA
HETATM   21  C   UNL     1       7.467  24.625  55.385  1.00  0.00     0.153 C 
BRANCH  21  22
HETATM   22  C   UNL     1       7.884  23.217  55.228  1.00  0.00     0.016 A 
HETATM   23  C   UNL     1       8.281  22.432  56.320  1.00  0.00     0.080 A 
HETATM   24  C   UNL     1       8.665  21.106  56.134  1.00  0.00     0.074 A 
HETATM   25  C   UNL     1       8.652  20.568  54.851  1.00  0.00     0.068 A 
HETATM   26  C   UNL     1       8.261  21.335  53.757  1.00  0.00     0.037 A 
HETATM   27  C   UNL     1       7.875  22.664  53.943  1.00  0.00     0.018 A 
BRANCH  23  28
HETATM   28  O   UNL     1       8.319  22.895  57.608  1.00  0.00    -0.360 OA
HETATM   29  H   UNL     1       7.536  23.475  57.758  1.00  0.00     0.217 HD
ENDBRANCH  23  28
BRANCH  25  30
HETATM   30  O   UNL     1       9.019  19.275  54.622  1.00  0.00    -0.361 OA
HETATM   31  H   UNL     1       9.984  19.245  54.502  1.00  0.00     0.217 HD
ENDBRANCH  25  30
ENDBRANCH  21  22
ENDBRANCH   2  20
TORSDOF 11
ENDMDL
MODEL 3
REMARK VINA RESULT:      -8.8      2.190     12.259
REMARK  11 active torsions:
REMARK  status: ('A' for Active; 'I' for Inactive)
REMARK    1  A    between atoms: C_4  and  C_5 
REMARK       I    between atoms: C_5  and  N_6 
REMARK    2  A    between atoms: N_6  and  C_7 
REMARK    3  A    between atoms: C_7  and  C_8 
REMARK    4  A    between atoms: C_8  and  C_9 
REMARK    5  A    between atoms: C_9  and  C_10 
REMARK    6  A    between atoms: C_10  and  C_11 
REMARK    7  A    between atoms: C_11  and  C_12 
REMARK       I    between atoms: C_12  and  N_13 
REMARK    8  A    between atoms: N_13  and  N_14 
REMARK    9  A    between atoms: C_15  and  C_16 
REMARK   10  A    between atoms: C_17  and  O_18 
REMARK   11  A    between atoms: C_20  and  O_21 
ROOT
HETATM    1  C   UNL     1       6.870  27.021  57.344  1.00  0.00     0.237 C 
HETATM    2  N   UNL     1       6.268  26.201  56.398  1.00  0.00    -0.247 N 
HETATM    3  O   UNL     1       7.742  26.652  58.125  1.00  0.00    -0.272 OA
HETATM    4  H   UNL     1       5.548  26.557  55.778  1.00  0.00     0.192 HD
ENDROOT
BRANCH   1   5
HETATM    5  C   UNL     1       6.337  28.442  57.302  1.00  0.00     0.105 C 
BRANCH   5   6
HETATM    6  C   UNL     1       7.471  29.466  57.271  1.00  0.00     0.009 C 
BRANCH   6   7
HETATM    7  C   UNL     1       7.704  30.110  58.637  1.00  0.00     0.002 C 
BRANCH   7   8
HETATM    8  C   UNL     1       8.795  31.179  58.552  1.00  0.00     0.020 C 
BRANCH   8   9
HETATM    9  C   UNL     1       9.468  31.410  59.903  1.00  0.00     0.123 C 
BRANCH   9  10
HETATM   10  N   UNL     1       8.671  32.292  60.735  1.00  0.00    -0.357 N 
HETATM   11  C   UNL     1       8.247  31.908  61.992  1.00  0.00     0.251 C 
HETATM   12  O   UNL     1       8.467  30.794  62.456  1.00  0.00    -0.268 OA
HETATM   13  H   UNL     1       8.631  33.262  60.468  1.00  0.00     0.162 HD
BRANCH  11  14
HETATM   14  C   UNL     1       7.512  32.925  62.806  1.00  0.00     0.032 A 
HETATM   15  C   UNL     1       6.603  33.837  62.251  1.00  0.00     0.017 A 
HETATM   16  C   UNL     1       5.945  34.761  63.068  1.00  0.00     0.001 A 
HETATM   17  C   UNL     1       6.178  34.774  64.442  1.00  0.00     0.000 A 
HETATM   18  C   UNL     1       7.067  33.861  65.005  1.00  0.00     0.001 A 
HETATM   19  C   UNL     1       7.731  32.941  64.191  1.00  0.00     0.017 A 
ENDBRANCH  11  14
ENDBRANCH   9  10
ENDBRANCH   8   9
ENDBRANCH   7   8
ENDBRANCH   6   7
ENDBRANCH   5   6
ENDBRANCH   1   5
BRANCH   2  20
HETATM   20  N   UNL     1       6.651  24.900  56.324  1.00  0.00    -0.184 NA
HETATM   21  C   UNL     1       7.312  24.546  55.271  1.00  0.00     0.153 C 
BRANCH  21  22
HETATM   22  C   UNL     1       7.762  23.147  55.111  1.00  0.00     0.016 A 
HETATM   23  C   UNL     1       8.229  22.388  56.193  1.00  0.00     0.080 A 
HETATM   24  C   UNL     1       8.642  21.071  56.006  1.00  0.00     0.074 A 
HETATM   25  C   UNL     1       8.587  20.516  54.731  1.00  0.00     0.068 A 
HETATM   26  C   UNL     1       8.127  21.258  53.646  1.00  0.00     0.037 A 
HETATM   27  C   UNL     1       7.711  22.578  53.834  1.00  0.00     0.018 A 
BRANCH  23  28
HETATM   28  O   UNL     1       8.310  22.867  57.473  1.00  0.00    -0.360 OA
HETATM   29  H   UNL     1       7.716  22.332  58.049  1.00  0.00     0.217 HD
ENDBRANCH  23  28
BRANCH  25  30
HETATM   30  O   UNL     1       8.981  19.231  54.500  1.00  0.00    -0.361 OA
HETATM   31  H   UNL     1       8.352  18.823  53.881  1.00  0.00     0.217 HD
ENDBRANCH  25  30
ENDBRANCH  21  22
ENDBRANCH   2  20
TORSDOF 11
ENDMDL
MODEL 4
REMARK VINA RESULT:      -8.8      2.312     11.895
REMARK  11 active torsions:
REMARK  status: ('A' for Active; 'I' for Inactive)
REMARK    1  A    between atoms: C_4  and  C_5 
REMARK       I    between atoms: C_5  and  N_6 
REMARK    2  A    between atoms: N_6  and  C_7 
REMARK    3  A    between atoms: C_7  and  C_8 
REMARK    4  A    between atoms: C_8  and  C_9 
REMARK    5  A    between atoms: C_9  and  C_10 
REMARK    6  A    between atoms: C_10  and  C_11 
REMARK    7  A    between atoms: C_11  and  C_12 
REMARK       I    between atoms: C_12  and  N_13 
REMARK    8  A    between atoms: N_13  and  N_14 
REMARK    9  A    between atoms: C_15  and  C_16 
REMARK   10  A    between atoms: C_17  and  O_18 
REMARK   11  A    between atoms: C_20  and  O_21 
ROOT
HETATM    1  C   UNL     1       5.311  27.510  54.952  1.00  0.00     0.237 C 
HETATM    2  N   UNL     1       5.253  26.289  55.612  1.00  0.00    -0.247 N 
HETATM    3  O   UNL     1       5.729  27.658  53.807  1.00  0.00    -0.272 OA
HETATM    4  H   UNL     1       4.902  26.223  56.561  1.00  0.00     0.192 HD
ENDROOT
BRANCH   1   5
HETATM    5  C   UNL     1       4.789  28.654  55.802  1.00  0.00     0.105 C 
BRANCH   5   6
HETATM    6  C   UNL     1       5.864  29.712  56.041  1.00  0.00     0.009 C 
BRANCH   6   7
HETATM    7  C   UNL     1       6.204  29.863  57.523  1.00  0.00     0.002 C 
BRANCH   7   8
HETATM    8  C   UNL     1       7.378  28.959  57.904  1.00  0.00     0.020 C 
BRANCH   8   9
HETATM    9  C   UNL     1       8.517  29.749  58.545  1.00  0.00     0.123 C 
BRANCH   9  10
HETATM   10  N   UNL     1       8.077  30.397  59.765  1.00  0.00    -0.357 N 
HETATM   11  C   UNL     1       8.352  31.728  60.015  1.00  0.00     0.251 C 
HETATM   12  O   UNL     1       9.022  32.420  59.256  1.00  0.00    -0.268 OA
HETATM   13  H   UNL     1       7.379  29.919  60.313  1.00  0.00     0.162 HD
BRANCH  11  14
HETATM   14  C   UNL     1       7.773  32.324  61.258  1.00  0.00     0.032 A 
HETATM   15  C   UNL     1       6.586  33.068  61.268  1.00  0.00     0.017 A 
HETATM   16  C   UNL     1       6.095  33.596  62.466  1.00  0.00     0.001 A 
HETATM   17  C   UNL     1       6.776  33.374  63.662  1.00  0.00     0.000 A 
HETATM   18  C   UNL     1       7.948  32.621  63.665  1.00  0.00     0.001 A 
HETATM   19  C   UNL     1       8.445  32.098  62.469  1.00  0.00     0.017 A 
ENDBRANCH  11  14
ENDBRANCH   9  10
ENDBRANCH   8   9
ENDBRANCH   7   8
ENDBRANCH   6   7
ENDBRANCH   5   6
ENDBRANCH   1   5
BRANCH   2  20
HETATM   20  N   UNL     1       5.690  25.176  54.967  1.00  0.00    -0.184 NA
HETATM   21  C   UNL     1       6.650  24.516  55.528  1.00  0.00     0.153 C 
BRANCH  21  22
HETATM   22  C   UNL     1       7.185  23.296  54.888  1.00  0.00     0.016 A 
HETATM   23  C   UNL     1       7.382  23.208  53.502  1.00  0.00     0.080 A 
HETATM   24  C   UNL     1       7.892  22.043  52.934  1.00  0.00     0.074 A 
HETATM   25  C   UNL     1       8.202  20.965  53.758  1.00  0.00     0.068 A 
HETATM   26  C   UNL     1       8.010  21.037  55.135  1.00  0.00     0.037 A 
HETATM   27  C   UNL     1       7.501  22.205  55.705  1.00  0.00     0.018 A 
BRANCH  23  28
HETATM   28  O   UNL     1       7.100  24.227  52.633  1.00  0.00    -0.360 OA
HETATM   29  H   UNL     1       7.612  24.085  51.803  1.00  0.00     0.217 HD
ENDBRANCH  23  28
BRANCH  25  30
HETATM   30  O   UNL     1       8.703  19.804  53.246  1.00  0.00    -0.361 OA
HETATM   31  H   UNL     1       8.536  19.792  52.288  1.00  0.00     0.217 HD
ENDBRANCH  25  30
ENDBRANCH  21  22
ENDBRANCH   2  20
TORSDOF 11
ENDMDL
MODEL 5
REMARK VINA RESULT:      -8.2      6.012      9.777
REMARK  11 active torsions:
REMARK  status: ('A' for Active; 'I' for Inactive)
REMARK    1  A    between atoms: C_4  and  C_5 
REMARK       I    between atoms: C_5  and  N_6 
REMARK    2  A    between atoms: N_6  and  C_7 
REMARK    3  A    between atoms: C_7  and  C_8 
REMARK    4  A    between atoms: C_8  and  C_9 
REMARK    5  A    between atoms: C_9  and  C_10 
REMARK    6  A    between atoms: C_10  and  C_11 
REMARK    7  A    between atoms: C_11  and  C_12 
REMARK       I    between atoms: C_12  and  N_13 
REMARK    8  A    between atoms: N_13  and  N_14 
REMARK    9  A    between atoms: C_15  and  C_16 
REMARK   10  A    between atoms: C_17  and  O_18 
REMARK   11  A    between atoms: C_20  and  O_21 
ROOT
HETATM    1  C   UNL     1       5.061  27.300  55.489  1.00  0.00     0.237 C 
HETATM    2  N   UNL     1       4.430  28.137  54.577  1.00  0.00    -0.247 N 
HETATM    3  O   UNL     1       5.487  26.180  55.221  1.00  0.00    -0.272 OA
HETATM    4  H   UNL     1       4.093  29.053  54.853  1.00  0.00     0.192 HD
ENDROOT
BRANCH   1   5
HETATM    5  C   UNL     1       5.180  27.928  56.866  1.00  0.00     0.105 C 
BRANCH   5   6
HETATM    6  C   UNL     1       6.520  28.639  57.045  1.00  0.00     0.009 C 
BRANCH   6   7
HETATM    7  C   UNL     1       7.489  27.834  57.911  1.00  0.00     0.002 C 
BRANCH   7   8
HETATM    8  C   UNL     1       8.378  26.942  57.043  1.00  0.00     0.020 C 
BRANCH   8   9
HETATM    9  C   UNL     1       8.335  25.485  57.496  1.00  0.00     0.123 C 
BRANCH   9  10
HETATM   10  N   UNL     1       8.338  24.587  56.357  1.00  0.00    -0.357 N 
HETATM   11  C   UNL     1       8.342  23.215  56.520  1.00  0.00     0.251 C 
HETATM   12  O   UNL     1       8.395  22.678  57.621  1.00  0.00    -0.268 OA
HETATM   13  H   UNL     1       8.111  24.983  55.459  1.00  0.00     0.162 HD
BRANCH  11  14
HETATM   14  C   UNL     1       8.249  22.379  55.284  1.00  0.00     0.032 A 
HETATM   15  C   UNL     1       8.478  20.996  55.277  1.00  0.00     0.017 A 
HETATM   16  C   UNL     1       8.371  20.271  54.086  1.00  0.00     0.001 A 
HETATM   17  C   UNL     1       8.023  20.915  52.901  1.00  0.00     0.000 A 
HETATM   18  C   UNL     1       7.778  22.287  52.900  1.00  0.00     0.001 A 
HETATM   19  C   UNL     1       7.890  23.016  54.086  1.00  0.00     0.017 A 
ENDBRANCH  11  14
ENDBRANCH   9  10
ENDBRANCH   8   9
ENDBRANCH   7   8
ENDBRANCH   6   7
ENDBRANCH   5   6
ENDBRANCH   1   5
BRANCH   2  20
HETATM   20  N   UNL     1       4.256  27.701  53.303  1.00  0.00    -0.184 NA
HETATM   21  C   UNL     1       5.103  28.122  52.421  1.00  0.00     0.153 C 
BRANCH  21  22
HETATM   22  C   UNL     1       4.981  27.698  51.011  1.00  0.00     0.016 A 
HETATM   23  C   UNL     1       4.730  26.365  50.654  1.00  0.00     0.080 A 
HETATM   24  C   UNL     1       4.618  26.002  49.314  1.00  0.00     0.074 A 
HETATM   25  C   UNL     1       4.760  26.977  48.332  1.00  0.00     0.068 A 
HETATM   26  C   UNL     1       5.011  28.304  48.670  1.00  0.00     0.037 A 
HETATM   27  C   UNL     1       5.121  28.669  50.014  1.00  0.00     0.018 A 
BRANCH  23  28
HETATM   28  O   UNL     1       4.580  25.355  51.566  1.00  0.00    -0.360 OA
HETATM   29  H   UNL     1       5.393  24.797  51.555  1.00  0.00     0.217 HD
ENDBRANCH  23  28
BRANCH  25  30
HETATM   30  O   UNL     1       4.658  26.669  47.007  1.00  0.00    -0.361 OA
HETATM   31  H   UNL     1       5.500  26.889  46.574  1.00  0.00     0.217 HD
ENDBRANCH  25  30
ENDBRANCH  21  22
ENDBRANCH   2  20
TORSDOF 11
ENDMDL
MODEL 6
REMARK VINA RESULT:      -8.2      2.145     12.221
REMARK  11 active torsions:
REMARK  status: ('A' for Active; 'I' for Inactive)
REMARK    1  A    between atoms: C_4  and  C_5 
REMARK       I    between atoms: C_5  and  N_6 
REMARK    2  A    between atoms: N_6  and  C_7 
REMARK    3  A    between atoms: C_7  and  C_8 
REMARK    4  A    between atoms: C_8  and  C_9 
REMARK    5  A    between atoms: C_9  and  C_10 
REMARK    6  A    between atoms: C_10  and  C_11 
REMARK    7  A    between atoms: C_11  and  C_12 
REMARK       I    between atoms: C_12  and  N_13 
REMARK    8  A    between atoms: N_13  and  N_14 
REMARK    9  A    between atoms: C_15  and  C_16 
REMARK   10  A    between atoms: C_17  and  O_18 
REMARK   11  A    between atoms: C_20  and  O_21 
ROOT
HETATM    1  C   UNL     1       7.655  27.445  57.005  1.00  0.00     0.237 C 
HETATM    2  N   UNL     1       6.922  26.824  56.002  1.00  0.00    -0.247 N 
HETATM    3  O   UNL     1       8.753  27.063  57.398  1.00  0.00    -0.272 OA
HETATM    4  H   UNL     1       6.015  27.179  55.719  1.00  0.00     0.192 HD
ENDROOT
BRANCH   1   5
HETATM    5  C   UNL     1       6.951  28.668  57.566  1.00  0.00     0.105 C 
BRANCH   5   6
HETATM    6  C   UNL     1       7.925  29.821  57.797  1.00  0.00     0.009 C 
BRANCH   6   7
HETATM    7  C   UNL     1       7.298  30.951  58.611  1.00  0.00     0.002 C 
BRANCH   7   8
HETATM    8  C   UNL     1       5.971  31.394  57.990  1.00  0.00     0.020 C 
BRANCH   8   9
HETATM    9  C   UNL     1       4.927  31.718  59.055  1.00  0.00     0.123 C 
BRANCH   9  10
HETATM   10  N   UNL     1       5.555  31.964  60.339  1.00  0.00    -0.357 N 
HETATM   11  C   UNL     1       5.466  33.194  60.962  1.00  0.00     0.251 C 
HETATM   12  O   UNL     1       4.905  34.158  60.450  1.00  0.00    -0.268 OA
HETATM   13  H   UNL     1       5.859  31.159  60.864  1.00  0.00     0.162 HD
BRANCH  11  14
HETATM   14  C   UNL     1       6.068  33.315  62.325  1.00  0.00     0.032 A 
HETATM   15  C   UNL     1       5.412  33.935  63.398  1.00  0.00     0.017 A 
HETATM   16  C   UNL     1       6.028  34.012  64.650  1.00  0.00     0.001 A 
HETATM   17  C   UNL     1       7.293  33.461  64.845  1.00  0.00     0.000 A 
HETATM   18  C   UNL     1       7.946  32.828  63.789  1.00  0.00     0.001 A 
HETATM   19  C   UNL     1       7.337  32.755  62.535  1.00  0.00     0.017 A 
ENDBRANCH  11  14
ENDBRANCH   9  10
ENDBRANCH   8   9
ENDBRANCH   7   8
ENDBRANCH   6   7
ENDBRANCH   5   6
ENDBRANCH   1   5
BRANCH   2  20
HETATM   20  N   UNL     1       7.435  25.714  55.410  1.00  0.00    -0.184 NA
HETATM   21  C   UNL     1       6.735  24.631  55.495  1.00  0.00     0.153 C 
BRANCH  21  22
HETATM   22  C   UNL     1       7.225  23.379  54.882  1.00  0.00     0.016 A 
HETATM   23  C   UNL     1       7.414  23.252  53.498  1.00  0.00     0.080 A 
HETATM   24  C   UNL     1       7.880  22.057  52.955  1.00  0.00     0.074 A 
HETATM   25  C   UNL     1       8.155  20.988  53.802  1.00  0.00     0.068 A 
HETATM   26  C   UNL     1       7.970  21.098  55.178  1.00  0.00     0.037 A 
HETATM   27  C   UNL     1       7.504  22.296  55.723  1.00  0.00     0.018 A 
BRANCH  23  28
HETATM   28  O   UNL     1       7.164  24.261  52.607  1.00  0.00    -0.360 OA
HETATM   29  H   UNL     1       6.201  24.265  52.396  1.00  0.00     0.217 HD
ENDBRANCH  23  28
BRANCH  25  30
HETATM   30  O   UNL     1       8.613  19.799  53.316  1.00  0.00    -0.361 OA
HETATM   31  H   UNL     1       8.954  19.273  54.058  1.00  0.00     0.217 HD
ENDBRANCH  25  30
ENDBRANCH  21  22
ENDBRANCH   2  20
TORSDOF 11
ENDMDL
MODEL 7
REMARK VINA RESULT:      -8.1      2.531      3.565
REMARK  11 active torsions:
REMARK  status: ('A' for Active; 'I' for Inactive)
REMARK    1  A    between atoms: C_4  and  C_5 
REMARK       I    between atoms: C_5  and  N_6 
REMARK    2  A    between atoms: N_6  and  C_7 
REMARK    3  A    between atoms: C_7  and  C_8 
REMARK    4  A    between atoms: C_8  and  C_9 
REMARK    5  A    between atoms: C_9  and  C_10 
REMARK    6  A    between atoms: C_10  and  C_11 
REMARK    7  A    between atoms: C_11  and  C_12 
REMARK       I    between atoms: C_12  and  N_13 
REMARK    8  A    between atoms: N_13  and  N_14 
REMARK    9  A    between atoms: C_15  and  C_16 
REMARK   10  A    between atoms: C_17  and  O_18 
REMARK   11  A    between atoms: C_20  and  O_21 
ROOT
HETATM    1  C   UNL     1       6.989  29.064  56.295  1.00  0.00     0.237 C 
HETATM    2  N   UNL     1       7.983  28.921  57.255  1.00  0.00    -0.247 N 
HETATM    3  O   UNL     1       5.927  29.652  56.481  1.00  0.00    -0.272 OA
HETATM    4  H   UNL     1       8.841  28.421  57.050  1.00  0.00     0.192 HD
ENDROOT
BRANCH   1   5
HETATM    5  C   UNL     1       7.362  28.418  54.973  1.00  0.00     0.105 C 
BRANCH   5   6
HETATM    6  C   UNL     1       6.138  27.839  54.266  1.00  0.00     0.009 C 
BRANCH   6   7
HETATM    7  C   UNL     1       6.145  28.135  52.767  1.00  0.00     0.002 C 
BRANCH   7   8
HETATM    8  C   UNL     1       5.075  27.311  52.048  1.00  0.00     0.020 C 
BRANCH   8   9
HETATM    9  C   UNL     1       5.685  26.162  51.251  1.00  0.00     0.123 C 
BRANCH   9  10
HETATM   10  N   UNL     1       5.994  25.038  52.114  1.00  0.00    -0.357 N 
HETATM   11  C   UNL     1       7.297  24.721  52.448  1.00  0.00     0.251 C 
HETATM   12  O   UNL     1       8.263  25.329  51.999  1.00  0.00    -0.268 OA
HETATM   13  H   UNL     1       5.232  24.639  52.639  1.00  0.00     0.162 HD
BRANCH  11  14
HETATM   14  C   UNL     1       7.502  23.603  53.418  1.00  0.00     0.032 A 
HETATM   15  C   UNL     1       7.216  23.715  54.786  1.00  0.00     0.017 A 
HETATM   16  C   UNL     1       7.426  22.629  55.641  1.00  0.00     0.001 A 
HETATM   17  C   UNL     1       7.908  21.422  55.137  1.00  0.00     0.000 A 
HETATM   18  C   UNL     1       8.178  21.295  53.776  1.00  0.00     0.001 A 
HETATM   19  C   UNL     1       7.976  22.380  52.920  1.00  0.00     0.017 A 
ENDBRANCH  11  14
ENDBRANCH   9  10
ENDBRANCH   8   9
ENDBRANCH   7   8
ENDBRANCH   6   7
ENDBRANCH   5   6
ENDBRANCH   1   5
BRANCH   2  20
HETATM   20  N   UNL     1       7.781  29.452  58.488  1.00  0.00    -0.184 NA
HETATM   21  C   UNL     1       8.410  30.549  58.761  1.00  0.00     0.153 C 
BRANCH  21  22
HETATM   22  C   UNL     1       8.248  31.189  60.083  1.00  0.00     0.016 A 
HETATM   23  C   UNL     1       7.016  31.701  60.516  1.00  0.00     0.080 A 
HETATM   24  C   UNL     1       6.900  32.296  61.770  1.00  0.00     0.074 A 
HETATM   25  C   UNL     1       8.022  32.379  62.589  1.00  0.00     0.068 A 
HETATM   26  C   UNL     1       9.252  31.877  62.172  1.00  0.00     0.037 A 
HETATM   27  C   UNL     1       9.369  31.279  60.915  1.00  0.00     0.018 A 
BRANCH  23  28
HETATM   28  O   UNL     1       5.873  31.654  59.765  1.00  0.00    -0.360 OA
HETATM   29  H   UNL     1       5.874  32.417  59.141  1.00  0.00     0.217 HD
ENDBRANCH  23  28
BRANCH  25  30
HETATM   30  O   UNL     1       7.956  32.952  63.825  1.00  0.00    -0.361 OA
HETATM   31  H   UNL     1       8.756  32.708  64.321  1.00  0.00     0.217 HD
ENDBRANCH  25  30
ENDBRANCH  21  22
ENDBRANCH   2  20
TORSDOF 11
ENDMDL
MODEL 8
REMARK VINA RESULT:      -8.1      6.743     10.813
REMARK  11 active torsions:
REMARK  status: ('A' for Active; 'I' for Inactive)
REMARK    1  A    between atoms: C_4  and  C_5 
REMARK       I    between atoms: C_5  and  N_6 
REMARK    2  A    between atoms: N_6  and  C_7 
REMARK    3  A    between atoms: C_7  and  C_8 
REMARK    4  A    between atoms: C_8  and  C_9 
REMARK    5  A    between atoms: C_9  and  C_10 
REMARK    6  A    between atoms: C_10  and  C_11 
REMARK    7  A    between atoms: C_11  and  C_12 
REMARK       I    between atoms: C_12  and  N_13 
REMARK    8  A    between atoms: N_13  and  N_14 
REMARK    9  A    between atoms: C_15  and  C_16 
REMARK   10  A    between atoms: C_17  and  O_18 
REMARK   11  A    between atoms: C_20  and  O_21 
ROOT
HETATM    1  C   UNL     1       5.469  27.721  53.442  1.00  0.00     0.237 C 
HETATM    2  N   UNL     1       5.616  28.310  52.193  1.00  0.00    -0.247 N 
HETATM    3  O   UNL     1       4.784  26.727  53.662  1.00  0.00    -0.272 OA
HETATM    4  H   UNL     1       6.192  29.136  52.068  1.00  0.00     0.192 HD
ENDROOT
BRANCH   1   5
HETATM    5  C   UNL     1       6.263  28.439  54.519  1.00  0.00     0.105 C 
BRANCH   5   6
HETATM    6  C   UNL     1       7.617  27.773  54.756  1.00  0.00     0.009 C 
BRANCH   6   7
HETATM    7  C   UNL     1       7.795  27.329  56.207  1.00  0.00     0.002 C 
BRANCH   7   8
HETATM    8  C   UNL     1       6.449  26.953  56.827  1.00  0.00     0.020 C 
BRANCH   8   9
HETATM    9  C   UNL     1       6.457  25.531  57.381  1.00  0.00     0.123 C 
BRANCH   9  10
HETATM   10  N   UNL     1       6.687  24.564  56.325  1.00  0.00    -0.357 N 
HETATM   11  C   UNL     1       7.749  23.681  56.374  1.00  0.00     0.251 C 
HETATM   12  O   UNL     1       8.582  23.695  57.273  1.00  0.00    -0.268 OA
HETATM   13  H   UNL     1       5.932  24.403  55.677  1.00  0.00     0.162 HD
BRANCH  11  14
HETATM   14  C   UNL     1       7.842  22.663  55.283  1.00  0.00     0.032 A 
HETATM   15  C   UNL     1       7.878  21.283  55.526  1.00  0.00     0.017 A 
HETATM   16  C   UNL     1       7.962  20.382  54.459  1.00  0.00     0.001 A 
HETATM   17  C   UNL     1       7.997  20.850  53.147  1.00  0.00     0.000 A 
HETATM   18  C   UNL     1       7.944  22.219  52.894  1.00  0.00     0.001 A 
HETATM   19  C   UNL     1       7.867  23.122  53.957  1.00  0.00     0.017 A 
ENDBRANCH  11  14
ENDBRANCH   9  10
ENDBRANCH   8   9
ENDBRANCH   7   8
ENDBRANCH   6   7
ENDBRANCH   5   6
ENDBRANCH   1   5
BRANCH   2  20
HETATM   20  N   UNL     1       4.959  27.769  51.135  1.00  0.00    -0.184 NA
HETATM   21  C   UNL     1       4.121  28.535  50.514  1.00  0.00     0.153 C 
BRANCH  21  22
HETATM   22  C   UNL     1       3.363  28.022  49.355  1.00  0.00     0.016 A 
HETATM   23  C   UNL     1       3.964  27.237  48.361  1.00  0.00     0.080 A 
HETATM   24  C   UNL     1       3.217  26.768  47.283  1.00  0.00     0.074 A 
HETATM   25  C   UNL     1       1.865  27.088  47.203  1.00  0.00     0.068 A 
HETATM   26  C   UNL     1       1.254  27.868  48.181  1.00  0.00     0.037 A 
HETATM   27  C   UNL     1       2.003  28.338  49.263  1.00  0.00     0.018 A 
BRANCH  23  28
HETATM   28  O   UNL     1       5.286  26.883  48.375  1.00  0.00    -0.360 OA
HETATM   29  H   UNL     1       5.370  25.962  48.034  1.00  0.00     0.217 HD
ENDBRANCH  23  28
BRANCH  25  30
HETATM   30  O   UNL     1       1.094  26.651  46.166  1.00  0.00    -0.361 OA
HETATM   31  H   UNL     1       1.657  26.151  45.553  1.00  0.00     0.217 HD
ENDBRANCH  25  30
ENDBRANCH  21  22
ENDBRANCH   2  20
TORSDOF 11
ENDMDL
MODEL 9
REMARK VINA RESULT:      -8.1      1.821      2.164
REMARK  11 active torsions:
REMARK  status: ('A' for Active; 'I' for Inactive)
REMARK    1  A    between atoms: C_4  and  C_5 
REMARK       I    between atoms: C_5  and  N_6 
REMARK    2  A    between atoms: N_6  and  C_7 
REMARK    3  A    between atoms: C_7  and  C_8 
REMARK    4  A    between atoms: C_8  and  C_9 
REMARK    5  A    between atoms: C_9  and  C_10 
REMARK    6  A    between atoms: C_10  and  C_11 
REMARK    7  A    between atoms: C_11  and  C_12 
REMARK       I    between atoms: C_12  and  N_13 
REMARK    8  A    between atoms: N_13  and  N_14 
REMARK    9  A    between atoms: C_15  and  C_16 
REMARK   10  A    between atoms: C_17  and  O_18 
REMARK   11  A    between atoms: C_20  and  O_21 
ROOT
HETATM    1  C   UNL     1       4.877  31.800  58.907  1.00  0.00     0.237 C 
HETATM    2  N   UNL     1       5.842  31.659  59.897  1.00  0.00    -0.247 N 
HETATM    3  O   UNL     1       3.892  32.527  59.000  1.00  0.00    -0.272 OA
HETATM    4  H   UNL     1       6.635  31.040  59.770  1.00  0.00     0.192 HD
ENDROOT
BRANCH   1   5
HETATM    5  C   UNL     1       5.176  30.958  57.680  1.00  0.00     0.105 C 
BRANCH   5   6
HETATM    6  C   UNL     1       6.643  30.534  57.635  1.00  0.00     0.009 C 
BRANCH   6   7
HETATM    7  C   UNL     1       6.807  29.071  57.226  1.00  0.00     0.002 C 
BRANCH   7   8
HETATM    8  C   UNL     1       7.626  28.957  55.938  1.00  0.00     0.020 C 
BRANCH   8   9
HETATM    9  C   UNL     1       6.849  28.246  54.834  1.00  0.00     0.123 C 
BRANCH   9  10
HETATM   10  N   UNL     1       7.018  26.809  54.922  1.00  0.00    -0.357 N 
HETATM   11  C   UNL     1       7.079  26.018  53.791  1.00  0.00     0.251 C 
HETATM   12  O   UNL     1       6.943  26.469  52.658  1.00  0.00    -0.268 OA
HETATM   13  H   UNL     1       7.315  26.435  55.810  1.00  0.00     0.162 HD
BRANCH  11  14
HETATM   14  C   UNL     1       7.350  24.561  53.988  1.00  0.00     0.032 A 
HETATM   15  C   UNL     1       7.262  23.929  55.237  1.00  0.00     0.017 A 
HETATM   16  C   UNL     1       7.524  22.561  55.353  1.00  0.00     0.001 A 
HETATM   17  C   UNL     1       7.860  21.812  54.227  1.00  0.00     0.000 A 
HETATM   18  C   UNL     1       7.934  22.428  52.979  1.00  0.00     0.001 A 
HETATM   19  C   UNL     1       7.679  23.796  52.860  1.00  0.00     0.017 A 
ENDBRANCH  11  14
ENDBRANCH   9  10
ENDBRANCH   8   9
ENDBRANCH   7   8
ENDBRANCH   6   7
ENDBRANCH   5   6
ENDBRANCH   1   5
BRANCH   2  20
HETATM   20  N   UNL     1       5.699  32.357  61.053  1.00  0.00    -0.184 NA
HETATM   21  C   UNL     1       6.445  31.999  62.047  1.00  0.00     0.153 C 
BRANCH  21  22
HETATM   22  C   UNL     1       6.347  32.705  63.341  1.00  0.00     0.016 A 
HETATM   23  C   UNL     1       5.112  33.025  63.923  1.00  0.00     0.080 A 
HETATM   24  C   UNL     1       5.058  33.689  65.146  1.00  0.00     0.074 A 
HETATM   25  C   UNL     1       6.245  34.034  65.784  1.00  0.00     0.068 A 
HETATM   26  C   UNL     1       7.479  33.725  65.218  1.00  0.00     0.037 A 
HETATM   27  C   UNL     1       7.534  33.058  63.993  1.00  0.00     0.018 A 
BRANCH  23  28
HETATM   28  O   UNL     1       3.906  32.717  63.352  1.00  0.00    -0.360 OA
HETATM   29  H   UNL     1       3.420  32.104  63.952  1.00  0.00     0.217 HD
ENDBRANCH  23  28
BRANCH  25  30
HETATM   30  O   UNL     1       6.242  34.685  66.983  1.00  0.00    -0.361 OA
HETATM   31  H   UNL     1       5.392  35.147  67.080  1.00  0.00     0.217 HD
ENDBRANCH  25  30
ENDBRANCH  21  22
ENDBRANCH   2  20
TORSDOF 11
ENDMDL
MODEL 10
REMARK VINA RESULT:      -7.9      6.201     10.513
REMARK  11 active torsions:
REMARK  status: ('A' for Active; 'I' for Inactive)
REMARK    1  A    between atoms: C_4  and  C_5 
REMARK       I    between atoms: C_5  and  N_6 
REMARK    2  A    between atoms: N_6  and  C_7 
REMARK    3  A    between atoms: C_7  and  C_8 
REMARK    4  A    between atoms: C_8  and  C_9 
REMARK    5  A    between atoms: C_9  and  C_10 
REMARK    6  A    between atoms: C_10  and  C_11 
REMARK    7  A    between atoms: C_11  and  C_12 
REMARK       I    between atoms: C_12  and  N_13 
REMARK    8  A    between atoms: N_13  and  N_14 
REMARK    9  A    between atoms: C_15  and  C_16 
REMARK   10  A    between atoms: C_17  and  O_18 
REMARK   11  A    between atoms: C_20  and  O_21 
ROOT
HETATM    1  C   UNL     1       5.546  26.781  56.737  1.00  0.00     0.237 C 
HETATM    2  N   UNL     1       6.801  26.476  56.227  1.00  0.00    -0.247 N 
HETATM    3  O   UNL     1       4.767  25.953  57.199  1.00  0.00    -0.272 OA
HETATM    4  H   UNL     1       7.404  27.200  55.851  1.00  0.00     0.192 HD
ENDROOT
BRANCH   1   5
HETATM    5  C   UNL     1       5.237  28.266  56.669  1.00  0.00     0.105 C 
BRANCH   5   6
HETATM    6  C   UNL     1       4.142  28.566  55.648  1.00  0.00     0.009 C 
BRANCH   6   7
HETATM    7  C   UNL     1       4.492  29.758  54.760  1.00  0.00     0.002 C 
BRANCH   7   8
HETATM    8  C   UNL     1       4.014  29.525  53.325  1.00  0.00     0.020 C 
BRANCH   8   9
HETATM    9  C   UNL     1       4.595  28.242  52.736  1.00  0.00     0.123 C 
BRANCH   9  10
HETATM   10  N   UNL     1       3.846  27.822  51.567  1.00  0.00    -0.357 N 
HETATM   11  C   UNL     1       4.389  27.891  50.299  1.00  0.00     0.251 C 
HETATM   12  O   UNL     1       5.503  28.355  50.078  1.00  0.00    -0.268 OA
HETATM   13  H   UNL     1       3.016  27.273  51.727  1.00  0.00     0.162 HD
BRANCH  11  14
HETATM   14  C   UNL     1       3.570  27.345  49.173  1.00  0.00     0.032 A 
HETATM   15  C   UNL     1       2.348  27.905  48.776  1.00  0.00     0.017 A 
HETATM   16  C   UNL     1       1.631  27.349  47.712  1.00  0.00     0.001 A 
HETATM   17  C   UNL     1       2.134  26.243  47.030  1.00  0.00     0.000 A 
HETATM   18  C   UNL     1       3.357  25.690  47.406  1.00  0.00     0.001 A 
HETATM   19  C   UNL     1       4.072  26.238  48.473  1.00  0.00     0.017 A 
ENDBRANCH  11  14
ENDBRANCH   9  10
ENDBRANCH   8   9
ENDBRANCH   7   8
ENDBRANCH   6   7
ENDBRANCH   5   6
ENDBRANCH   1   5
BRANCH   2  20
HETATM   20  N   UNL     1       7.208  25.180  56.225  1.00  0.00    -0.184 NA
HETATM   21  C   UNL     1       7.379  24.623  55.070  1.00  0.00     0.153 C 
BRANCH  21  22
HETATM   22  C   UNL     1       7.816  23.214  54.982  1.00  0.00     0.016 A 
HETATM   23  C   UNL     1       8.225  22.490  56.110  1.00  0.00     0.080 A 
HETATM   24  C   UNL     1       8.629  21.163  55.989  1.00  0.00     0.074 A 
HETATM   25  C   UNL     1       8.622  20.562  54.734  1.00  0.00     0.068 A 
HETATM   26  C   UNL     1       8.220  21.269  53.604  1.00  0.00     0.037 A 
HETATM   27  C   UNL     1       7.814  22.600  53.725  1.00  0.00     0.018 A 
BRANCH  23  28
HETATM   28  O   UNL     1       8.257  23.016  57.374  1.00  0.00    -0.360 OA
HETATM   29  H   UNL     1       8.099  23.987  57.316  1.00  0.00     0.217 HD
ENDBRANCH  23  28
BRANCH  25  30
HETATM   30  O   UNL     1       9.008  19.265  54.567  1.00  0.00    -0.361 OA
HETATM   31  H   UNL     1       9.699  19.234  53.884  1.00  0.00     0.217 HD
ENDBRANCH  25  30
ENDBRANCH  21  22
ENDBRANCH   2  20
TORSDOF 11
ENDMDL
