MODEL 1
REMARK VINA RESULT:     -11.2      0.000      0.000
REMARK  6 active torsions:
REMARK  status: ('A' for Active; 'I' for Inactive)
REMARK    1  A    between atoms: C_4  and  C_5 
REMARK    2  A    between atoms: C_9  and  C_10 
REMARK       I    between atoms: C_10  and  N_11 
REMARK    3  A    between atoms: N_11  and  N_12 
REMARK       I    between atoms: N_12  and  C_13 
REMARK    4  A    between atoms: C_13  and  C_14 
REMARK    5  A    between atoms: C_14  and  O_15 
REMARK    6  A    between atoms: O_15  and  C_16 
ROOT
HETATM    1  C   UNL     1       8.274  29.828  58.080  1.00  0.00     0.288 C 
HETATM    2  N   UNL     1       7.215  28.947  58.238  1.00  0.00    -0.262 N 
HETATM    3  O   UNL     1       9.039  29.747  57.120  1.00  0.00    -0.264 OA
HETATM    4  H   UNL     1       6.377  29.269  58.722  1.00  0.00     0.190 HD
ENDROOT
BRANCH   2   5
HETATM    5  N   UNL     1       6.940  28.079  57.158  1.00  0.00    -0.265 N 
HETATM    6  C   UNL     1       7.203  26.737  57.356  1.00  0.00     0.260 C 
HETATM    7  O   UNL     1       7.850  26.333  58.323  1.00  0.00    -0.269 OA
HETATM    8  H   UNL     1       6.172  28.351  56.542  1.00  0.00     0.190 HD
BRANCH   6   9
HETATM    9  C   UNL     1       6.591  25.803  56.318  1.00  0.00     0.280 C 
BRANCH   9  10
HETATM   10  O   UNL     1       7.061  24.463  56.499  1.00  0.00    -0.341 OA
BRANCH  10  11
HETATM   11  C   UNL     1       7.312  23.883  55.278  1.00  0.00     0.080 A 
HETATM   12  C   UNL     1       7.808  22.565  55.192  1.00  0.00     0.007 A 
HETATM   13  C   UNL     1       8.068  22.032  53.907  1.00  0.00    -0.023 A 
HETATM   14  C   UNL     1       8.057  21.756  56.322  1.00  0.00     0.015 A 
HETATM   15  C   UNL     1       8.583  20.730  53.789  1.00  0.00     0.012 A 
HETATM   16  C   UNL     1       7.803  22.808  52.766  1.00  0.00     0.012 A 
HETATM   17  C   UNL     1       8.832  19.952  54.920  1.00  0.00     0.001 A 
HETATM   18  C   UNL     1       8.565  20.463  56.185  1.00  0.00     0.001 A 
HETATM   19  C   UNL     1       7.276  24.095  52.878  1.00  0.00     0.004 A 
HETATM   20  C   UNL     1       7.023  24.632  54.134  1.00  0.00     0.037 A 
ENDBRANCH  10  11
ENDBRANCH   9  10
ENDBRANCH   6   9
ENDBRANCH   2   5
BRANCH   1  21
HETATM   21  C   UNL     1       8.387  30.836  59.101  1.00  0.00     0.121 A 
HETATM   22  N   UNL     1       9.333  31.819  59.168  1.00  0.00    -0.272 N 
HETATM   23  N   UNL     1       9.192  32.652  60.206  1.00  0.00    -0.174 NA
HETATM   24  H   UNL     1      10.091  31.999  58.519  1.00  0.00     0.189 HD
HETATM   25  C   UNL     1       8.098  32.212  60.850  1.00  0.00     0.089 A 
HETATM   26  C   UNL     1       7.559  31.081  60.180  1.00  0.00     0.071 A 
BRANCH  25  27
HETATM   27  C   UNL     1       7.592  32.875  62.053  1.00  0.00    -0.006 A 
HETATM   28  C   UNL     1       8.103  32.540  63.316  1.00  0.00     0.014 A 
HETATM   29  C   UNL     1       7.637  33.179  64.467  1.00  0.00     0.001 A 
HETATM   30  C   UNL     1       6.649  34.156  64.370  1.00  0.00     0.000 A 
HETATM   31  C   UNL     1       6.125  34.492  63.123  1.00  0.00     0.001 A 
HETATM   32  C   UNL     1       6.594  33.857  61.969  1.00  0.00     0.014 A 
ENDBRANCH  25  27
ENDBRANCH   1  21
TORSDOF 6
ENDMDL
MODEL 2
REMARK VINA RESULT:     -10.6      1.783     11.003
REMARK  6 active torsions:
REMARK  status: ('A' for Active; 'I' for Inactive)
REMARK    1  A    between atoms: C_4  and  C_5 
REMARK    2  A    between atoms: C_9  and  C_10 
REMARK       I    between atoms: C_10  and  N_11 
REMARK    3  A    between atoms: N_11  and  N_12 
REMARK       I    between atoms: N_12  and  C_13 
REMARK    4  A    between atoms: C_13  and  C_14 
REMARK    5  A    between atoms: C_14  and  O_15 
REMARK    6  A    between atoms: O_15  and  C_16 
ROOT
HETATM    1  C   UNL     1       7.385  27.498  57.028  1.00  0.00     0.288 C 
HETATM    2  N   UNL     1       6.382  28.451  56.951  1.00  0.00    -0.262 N 
HETATM    3  O   UNL     1       8.293  27.587  57.853  1.00  0.00    -0.264 OA
HETATM    4  H   UNL     1       5.457  28.166  56.627  1.00  0.00     0.190 HD
ENDROOT
BRANCH   2   5
HETATM    5  N   UNL     1       6.340  29.420  57.979  1.00  0.00    -0.265 N 
HETATM    6  C   UNL     1       5.906  30.684  57.626  1.00  0.00     0.260 C 
HETATM    7  O   UNL     1       5.776  31.026  56.450  1.00  0.00    -0.269 OA
HETATM    8  H   UNL     1       6.152  29.073  58.921  1.00  0.00     0.190 HD
BRANCH   6   9
HETATM    9  C   UNL     1       5.557  31.593  58.799  1.00  0.00     0.280 C 
BRANCH   9  10
HETATM   10  O   UNL     1       6.508  32.655  58.920  1.00  0.00    -0.341 OA
BRANCH  10  11
HETATM   11  C   UNL     1       7.435  32.350  59.888  1.00  0.00     0.080 A 
HETATM   12  C   UNL     1       7.199  32.666  61.242  1.00  0.00     0.007 A 
HETATM   13  C   UNL     1       8.202  32.347  62.188  1.00  0.00    -0.023 A 
HETATM   14  C   UNL     1       6.014  33.285  61.697  1.00  0.00     0.015 A 
HETATM   15  C   UNL     1       8.006  32.670  63.541  1.00  0.00     0.012 A 
HETATM   16  C   UNL     1       9.380  31.708  61.763  1.00  0.00     0.012 A 
HETATM   17  C   UNL     1       6.831  33.291  63.967  1.00  0.00     0.001 A 
HETATM   18  C   UNL     1       5.834  33.593  63.047  1.00  0.00     0.001 A 
HETATM   19  C   UNL     1       9.571  31.371  60.422  1.00  0.00     0.004 A 
HETATM   20  C   UNL     1       8.596  31.685  59.484  1.00  0.00     0.037 A 
ENDBRANCH  10  11
ENDBRANCH   9  10
ENDBRANCH   6   9
ENDBRANCH   2   5
BRANCH   1  21
HETATM   21  C   UNL     1       7.265  26.409  56.094  1.00  0.00     0.121 A 
HETATM   22  N   UNL     1       6.729  26.474  54.840  1.00  0.00    -0.272 N 
HETATM   23  N   UNL     1       6.770  25.321  54.161  1.00  0.00    -0.174 NA
HETATM   24  H   UNL     1       6.341  27.284  54.369  1.00  0.00     0.189 HD
HETATM   25  C   UNL     1       7.370  24.456  54.996  1.00  0.00     0.089 A 
HETATM   26  C   UNL     1       7.705  25.105  56.214  1.00  0.00     0.071 A 
BRANCH  25  27
HETATM   27  C   UNL     1       7.621  23.065  54.616  1.00  0.00    -0.006 A 
HETATM   28  C   UNL     1       7.661  22.058  55.593  1.00  0.00     0.014 A 
HETATM   29  C   UNL     1       7.883  20.726  55.236  1.00  0.00     0.001 A 
HETATM   30  C   UNL     1       8.076  20.386  53.900  1.00  0.00     0.000 A 
HETATM   31  C   UNL     1       8.048  21.375  52.919  1.00  0.00     0.001 A 
HETATM   32  C   UNL     1       7.820  22.708  53.274  1.00  0.00     0.014 A 
ENDBRANCH  25  27
ENDBRANCH   1  21
TORSDOF 6
ENDMDL
MODEL 3
REMARK VINA RESULT:     -10.4      1.520      1.763
REMARK  6 active torsions:
REMARK  status: ('A' for Active; 'I' for Inactive)
REMARK    1  A    between atoms: C_4  and  C_5 
REMARK    2  A    between atoms: C_9  and  C_10 
REMARK       I    between atoms: C_10  and  N_11 
REMARK    3  A    between atoms: N_11  and  N_12 
REMARK       I    between atoms: N_12  and  C_13 
REMARK    4  A    between atoms: C_13  and  C_14 
REMARK    5  A    between atoms: C_14  and  O_15 
REMARK    6  A    between atoms: O_15  and  C_16 
ROOT
HETATM    1  C   UNL     1       6.172  30.667  57.605  1.00  0.00     0.288 C 
HETATM    2  N   UNL     1       6.672  29.418  57.936  1.00  0.00    -0.262 N 
HETATM    3  O   UNL     1       5.837  30.940  56.453  1.00  0.00    -0.264 OA
HETATM    4  H   UNL     1       6.518  29.061  58.879  1.00  0.00     0.190 HD
ENDROOT
BRANCH   2   5
HETATM    5  N   UNL     1       6.602  28.417  56.941  1.00  0.00    -0.265 N 
HETATM    6  C   UNL     1       7.186  27.200  57.239  1.00  0.00     0.260 C 
HETATM    7  O   UNL     1       7.924  27.050  58.214  1.00  0.00    -0.269 OA
HETATM    8  H   UNL     1       5.783  28.440  56.331  1.00  0.00     0.190 HD
BRANCH   6   9
HETATM    9  C   UNL     1       6.806  26.059  56.303  1.00  0.00     0.280 C 
BRANCH   9  10
HETATM   10  O   UNL     1       7.714  24.962  56.442  1.00  0.00    -0.341 OA
BRANCH  10  11
HETATM   11  C   UNL     1       7.780  24.252  55.267  1.00  0.00     0.080 A 
HETATM   12  C   UNL     1       8.027  22.863  55.274  1.00  0.00     0.007 A 
HETATM   13  C   UNL     1       8.107  22.192  54.031  1.00  0.00    -0.023 A 
HETATM   14  C   UNL     1       8.200  22.113  56.458  1.00  0.00     0.015 A 
HETATM   15  C   UNL     1       8.375  20.813  54.003  1.00  0.00     0.012 A 
HETATM   16  C   UNL     1       7.913  22.912  52.839  1.00  0.00     0.012 A 
HETATM   17  C   UNL     1       8.552  20.094  55.186  1.00  0.00     0.001 A 
HETATM   18  C   UNL     1       8.460  20.742  56.412  1.00  0.00     0.001 A 
HETATM   19  C   UNL     1       7.631  24.279  52.863  1.00  0.00     0.004 A 
HETATM   20  C   UNL     1       7.557  24.949  54.077  1.00  0.00     0.037 A 
ENDBRANCH  10  11
ENDBRANCH   9  10
ENDBRANCH   6   9
ENDBRANCH   2   5
BRANCH   1  21
HETATM   21  C   UNL     1       6.061  31.591  58.704  1.00  0.00     0.121 A 
HETATM   22  N   UNL     1       5.223  32.667  58.775  1.00  0.00    -0.272 N 
HETATM   23  N   UNL     1       5.293  33.346  59.926  1.00  0.00    -0.174 NA
HETATM   24  H   UNL     1       4.552  32.982  58.083  1.00  0.00     0.189 HD
HETATM   25  C   UNL     1       6.207  32.686  60.656  1.00  0.00     0.089 A 
HETATM   26  C   UNL     1       6.703  31.573  59.927  1.00  0.00     0.071 A 
BRANCH  25  27
HETATM   27  C   UNL     1       6.568  33.111  62.010  1.00  0.00    -0.006 A 
HETATM   28  C   UNL     1       5.866  34.152  62.637  1.00  0.00     0.014 A 
HETATM   29  C   UNL     1       6.193  34.552  63.934  1.00  0.00     0.001 A 
HETATM   30  C   UNL     1       7.231  33.922  64.617  1.00  0.00     0.000 A 
HETATM   31  C   UNL     1       7.943  32.894  64.004  1.00  0.00     0.001 A 
HETATM   32  C   UNL     1       7.613  32.488  62.707  1.00  0.00     0.014 A 
ENDBRANCH  25  27
ENDBRANCH   1  21
TORSDOF 6
ENDMDL
MODEL 4
REMARK VINA RESULT:     -10.4      1.932     11.225
REMARK  6 active torsions:
REMARK  status: ('A' for Active; 'I' for Inactive)
REMARK    1  A    between atoms: C_4  and  C_5 
REMARK    2  A    between atoms: C_9  and  C_10 
REMARK       I    between atoms: C_10  and  N_11 
REMARK    3  A    between atoms: N_11  and  N_12 
REMARK       I    between atoms: N_12  and  C_13 
REMARK    4  A    between atoms: C_13  and  C_14 
REMARK    5  A    between atoms: C_14  and  O_15 
REMARK    6  A    between atoms: O_15  and  C_16 
ROOT
HETATM    1  C   UNL     1       5.952  27.347  55.858  1.00  0.00     0.288 C 
HETATM    2  N   UNL     1       6.436  27.404  57.156  1.00  0.00    -0.262 N 
HETATM    3  O   UNL     1       5.386  28.309  55.341  1.00  0.00    -0.264 OA
HETATM    4  H   UNL     1       7.247  26.837  57.402  1.00  0.00     0.190 HD
ENDROOT
BRANCH   2   5
HETATM    5  N   UNL     1       6.422  28.667  57.789  1.00  0.00    -0.265 N 
HETATM    6  C   UNL     1       7.649  29.252  58.039  1.00  0.00     0.260 C 
HETATM    7  O   UNL     1       8.705  28.627  57.933  1.00  0.00    -0.269 OA
HETATM    8  H   UNL     1       5.616  29.264  57.592  1.00  0.00     0.190 HD
BRANCH   6   9
HETATM    9  C   UNL     1       7.592  30.730  58.406  1.00  0.00     0.280 C 
BRANCH   9  10
HETATM   10  O   UNL     1       7.706  30.908  59.821  1.00  0.00    -0.341 OA
BRANCH  10  11
HETATM   11  C   UNL     1       6.846  31.895  60.243  1.00  0.00     0.080 A 
HETATM   12  C   UNL     1       6.966  32.457  61.531  1.00  0.00     0.007 A 
HETATM   13  C   UNL     1       6.035  33.452  61.915  1.00  0.00    -0.023 A 
HETATM   14  C   UNL     1       7.965  32.075  62.452  1.00  0.00     0.015 A 
HETATM   15  C   UNL     1       6.115  34.016  63.199  1.00  0.00     0.012 A 
HETATM   16  C   UNL     1       5.047  33.867  61.005  1.00  0.00     0.012 A 
HETATM   17  C   UNL     1       7.105  33.616  64.098  1.00  0.00     0.001 A 
HETATM   18  C   UNL     1       8.032  32.650  63.723  1.00  0.00     0.001 A 
HETATM   19  C   UNL     1       4.975  33.322  59.723  1.00  0.00     0.004 A 
HETATM   20  C   UNL     1       5.879  32.339  59.337  1.00  0.00     0.037 A 
ENDBRANCH  10  11
ENDBRANCH   9  10
ENDBRANCH   6   9
ENDBRANCH   2   5
BRANCH   1  21
HETATM   21  C   UNL     1       6.182  26.101  55.175  1.00  0.00     0.121 A 
HETATM   22  N   UNL     1       5.793  25.792  53.903  1.00  0.00    -0.272 N 
HETATM   23  N   UNL     1       6.163  24.572  53.493  1.00  0.00    -0.174 NA
HETATM   24  H   UNL     1       5.294  26.378  53.243  1.00  0.00     0.189 HD
HETATM   25  C   UNL     1       6.837  24.054  54.533  1.00  0.00     0.089 A 
HETATM   26  C   UNL     1       6.880  24.988  55.602  1.00  0.00     0.071 A 
BRANCH  25  27
HETATM   27  C   UNL     1       7.429  22.716  54.480  1.00  0.00    -0.006 A 
HETATM   28  C   UNL     1       7.661  21.995  55.661  1.00  0.00     0.014 A 
HETATM   29  C   UNL     1       8.209  20.711  55.617  1.00  0.00     0.001 A 
HETATM   30  C   UNL     1       8.539  20.136  54.393  1.00  0.00     0.000 A 
HETATM   31  C   UNL     1       8.323  20.843  53.212  1.00  0.00     0.001 A 
HETATM   32  C   UNL     1       7.769  22.126  53.254  1.00  0.00     0.014 A 
ENDBRANCH  25  27
ENDBRANCH   1  21
TORSDOF 6
ENDMDL
MODEL 5
REMARK VINA RESULT:     -10.3      1.671      3.098
REMARK  6 active torsions:
REMARK  status: ('A' for Active; 'I' for Inactive)
REMARK    1  A    between atoms: C_4  and  C_5 
REMARK    2  A    between atoms: C_9  and  C_10 
REMARK       I    between atoms: C_10  and  N_11 
REMARK    3  A    between atoms: N_11  and  N_12 
REMARK       I    between atoms: N_12  and  C_13 
REMARK    4  A    between atoms: C_13  and  C_14 
REMARK    5  A    between atoms: C_14  and  O_15 
REMARK    6  A    between atoms: O_15  and  C_16 
ROOT
HETATM    1  C   UNL     1       7.306  31.359  59.353  1.00  0.00     0.288 C 
HETATM    2  N   UNL     1       7.583  30.026  59.092  1.00  0.00    -0.262 N 
HETATM    3  O   UNL     1       6.966  32.132  58.458  1.00  0.00    -0.264 OA
HETATM    4  H   UNL     1       7.416  29.337  59.825  1.00  0.00     0.190 HD
ENDROOT
BRANCH   2   5
HETATM    5  N   UNL     1       7.277  29.551  57.797  1.00  0.00    -0.265 N 
HETATM    6  C   UNL     1       8.319  29.010  57.069  1.00  0.00     0.260 C 
HETATM    7  O   UNL     1       9.494  29.132  57.420  1.00  0.00    -0.269 OA
HETATM    8  H   UNL     1       6.332  29.189  57.659  1.00  0.00     0.190 HD
BRANCH   6   9
HETATM    9  C   UNL     1       7.899  28.216  55.837  1.00  0.00     0.280 C 
BRANCH   9  10
HETATM   10  O   UNL     1       6.968  27.188  56.188  1.00  0.00    -0.341 OA
BRANCH  10  11
HETATM   11  C   UNL     1       7.593  25.963  56.183  1.00  0.00     0.080 A 
HETATM   12  C   UNL     1       7.585  25.152  55.029  1.00  0.00     0.007 A 
HETATM   13  C   UNL     1       8.226  23.892  55.093  1.00  0.00    -0.023 A 
HETATM   14  C   UNL     1       6.968  25.535  53.818  1.00  0.00     0.015 A 
HETATM   15  C   UNL     1       8.216  23.051  53.968  1.00  0.00     0.012 A 
HETATM   16  C   UNL     1       8.869  23.500  56.280  1.00  0.00     0.012 A 
HETATM   17  C   UNL     1       7.591  23.446  52.784  1.00  0.00     0.001 A 
HETATM   18  C   UNL     1       6.972  24.688  52.707  1.00  0.00     0.001 A 
HETATM   19  C   UNL     1       8.896  24.339  57.394  1.00  0.00     0.004 A 
HETATM   20  C   UNL     1       8.264  25.575  57.345  1.00  0.00     0.037 A 
ENDBRANCH  10  11
ENDBRANCH   9  10
ENDBRANCH   6   9
ENDBRANCH   2   5
BRANCH   1  21
HETATM   21  C   UNL     1       7.426  31.747  60.734  1.00  0.00     0.121 A 
HETATM   22  N   UNL     1       8.566  31.722  61.485  1.00  0.00    -0.272 N 
HETATM   23  N   UNL     1       8.412  32.170  62.738  1.00  0.00    -0.174 NA
HETATM   24  H   UNL     1       9.496  31.437  61.199  1.00  0.00     0.189 HD
HETATM   25  C   UNL     1       7.118  32.520  62.817  1.00  0.00     0.089 A 
HETATM   26  C   UNL     1       6.470  32.280  61.577  1.00  0.00     0.071 A 
BRANCH  25  27
HETATM   27  C   UNL     1       6.544  33.079  64.043  1.00  0.00    -0.006 A 
HETATM   28  C   UNL     1       5.152  33.180  64.192  1.00  0.00     0.014 A 
HETATM   29  C   UNL     1       4.597  33.697  65.365  1.00  0.00     0.001 A 
HETATM   30  C   UNL     1       5.425  34.127  66.398  1.00  0.00     0.000 A 
HETATM   31  C   UNL     1       6.809  34.042  66.260  1.00  0.00     0.001 A 
HETATM   32  C   UNL     1       7.367  33.519  65.089  1.00  0.00     0.014 A 
ENDBRANCH  25  27
ENDBRANCH   1  21
TORSDOF 6
ENDMDL
MODEL 6
REMARK VINA RESULT:     -10.2      2.215     10.822
REMARK  6 active torsions:
REMARK  status: ('A' for Active; 'I' for Inactive)
REMARK    1  A    between atoms: C_4  and  C_5 
REMARK    2  A    between atoms: C_9  and  C_10 
REMARK       I    between atoms: C_10  and  N_11 
REMARK    3  A    between atoms: N_11  and  N_12 
REMARK       I    between atoms: N_12  and  C_13 
REMARK    4  A    between atoms: C_13  and  C_14 
REMARK    5  A    between atoms: C_14  and  O_15 
REMARK    6  A    between atoms: O_15  and  C_16 
ROOT
HETATM    1  C   UNL     1       6.386  27.349  56.898  1.00  0.00     0.288 C 
HETATM    2  N   UNL     1       5.249  28.122  56.720  1.00  0.00    -0.262 N 
HETATM    3  O   UNL     1       7.186  27.583  57.803  1.00  0.00    -0.264 OA
HETATM    4  H   UNL     1       4.419  27.688  56.314  1.00  0.00     0.190 HD
ENDROOT
BRANCH   2   5
HETATM    5  N   UNL     1       4.952  29.064  57.729  1.00  0.00    -0.265 N 
HETATM    6  C   UNL     1       5.170  30.394  57.424  1.00  0.00     0.260 C 
HETATM    7  O   UNL     1       5.799  30.740  56.422  1.00  0.00    -0.269 OA
HETATM    8  H   UNL     1       4.195  28.818  58.371  1.00  0.00     0.190 HD
BRANCH   6   9
HETATM    9  C   UNL     1       4.534  31.388  58.389  1.00  0.00     0.280 C 
BRANCH   9  10
HETATM   10  O   UNL     1       5.461  32.419  58.741  1.00  0.00    -0.341 OA
BRANCH  10  11
HETATM   11  C   UNL     1       5.739  32.365  60.087  1.00  0.00     0.080 A 
HETATM   12  C   UNL     1       7.063  32.205  60.546  1.00  0.00     0.007 A 
HETATM   13  C   UNL     1       7.281  32.132  61.942  1.00  0.00    -0.023 A 
HETATM   14  C   UNL     1       8.176  32.113  59.682  1.00  0.00     0.015 A 
HETATM   15  C   UNL     1       8.586  31.951  62.430  1.00  0.00     0.012 A 
HETATM   16  C   UNL     1       6.192  32.247  62.823  1.00  0.00     0.012 A 
HETATM   17  C   UNL     1       9.671  31.853  61.558  1.00  0.00     0.001 A 
HETATM   18  C   UNL     1       9.467  31.939  60.186  1.00  0.00     0.001 A 
HETATM   19  C   UNL     1       4.897  32.444  62.342  1.00  0.00     0.004 A 
HETATM   20  C   UNL     1       4.669  32.510  60.974  1.00  0.00     0.037 A 
ENDBRANCH  10  11
ENDBRANCH   9  10
ENDBRANCH   6   9
ENDBRANCH   2   5
BRANCH   1  21
HETATM   21  C   UNL     1       6.536  26.260  55.969  1.00  0.00     0.121 A 
HETATM   22  N   UNL     1       6.242  26.288  54.635  1.00  0.00    -0.272 N 
HETATM   23  N   UNL     1       6.507  25.147  53.987  1.00  0.00    -0.174 NA
HETATM   24  H   UNL     1       5.882  27.066  54.092  1.00  0.00     0.189 HD
HETATM   25  C   UNL     1       7.010  24.331  54.927  1.00  0.00     0.089 A 
HETATM   26  C   UNL     1       7.054  24.997  56.180  1.00  0.00     0.071 A 
BRANCH  25  27
HETATM   27  C   UNL     1       7.444  22.968  54.614  1.00  0.00    -0.006 A 
HETATM   28  C   UNL     1       7.598  22.020  55.636  1.00  0.00     0.014 A 
HETATM   29  C   UNL     1       7.996  20.713  55.343  1.00  0.00     0.001 A 
HETATM   30  C   UNL     1       8.253  20.342  54.026  1.00  0.00     0.000 A 
HETATM   31  C   UNL     1       8.113  21.275  53.001  1.00  0.00     0.001 A 
HETATM   32  C   UNL     1       7.709  22.582  53.292  1.00  0.00     0.014 A 
ENDBRANCH  25  27
ENDBRANCH   1  21
TORSDOF 6
ENDMDL
MODEL 7
REMARK VINA RESULT:      -9.9      2.615     11.197
REMARK  6 active torsions:
REMARK  status: ('A' for Active; 'I' for Inactive)
REMARK    1  A    between atoms: C_4  and  C_5 
REMARK    2  A    between atoms: C_9  and  C_10 
REMARK       I    between atoms: C_10  and  N_11 
REMARK    3  A    between atoms: N_11  and  N_12 
REMARK       I    between atoms: N_12  and  C_13 
REMARK    4  A    between atoms: C_13  and  C_14 
REMARK    5  A    between atoms: C_14  and  O_15 
REMARK    6  A    between atoms: O_15  and  C_16 
ROOT
HETATM    1  C   UNL     1       5.787  28.812  56.400  1.00  0.00     0.288 C 
HETATM    2  N   UNL     1       4.927  28.886  57.485  1.00  0.00    -0.262 N 
HETATM    3  O   UNL     1       6.419  29.795  56.013  1.00  0.00    -0.264 OA
HETATM    4  H   UNL     1       4.780  28.051  58.052  1.00  0.00     0.190 HD
ENDROOT
BRANCH   2   5
HETATM    5  N   UNL     1       4.952  30.079  58.241  1.00  0.00    -0.265 N 
HETATM    6  C   UNL     1       3.825  30.876  58.184  1.00  0.00     0.260 C 
HETATM    7  O   UNL     1       2.934  30.690  57.355  1.00  0.00    -0.269 OA
HETATM    8  H   UNL     1       5.507  30.061  59.098  1.00  0.00     0.190 HD
BRANCH   6   9
HETATM    9  C   UNL     1       3.751  31.961  59.253  1.00  0.00     0.280 C 
BRANCH   9  10
HETATM   10  O   UNL     1       4.998  32.080  59.944  1.00  0.00    -0.341 OA
BRANCH  10  11
HETATM   11  C   UNL     1       4.800  32.647  61.181  1.00  0.00     0.080 A 
HETATM   12  C   UNL     1       5.854  32.734  62.114  1.00  0.00     0.007 A 
HETATM   13  C   UNL     1       5.581  33.306  63.379  1.00  0.00    -0.023 A 
HETATM   14  C   UNL     1       7.163  32.278  61.848  1.00  0.00     0.015 A 
HETATM   15  C   UNL     1       6.604  33.387  64.339  1.00  0.00     0.012 A 
HETATM   16  C   UNL     1       4.291  33.791  63.659  1.00  0.00     0.012 A 
HETATM   17  C   UNL     1       7.889  32.921  64.057  1.00  0.00     0.001 A 
HETATM   18  C   UNL     1       8.170  32.371  62.812  1.00  0.00     0.001 A 
HETATM   19  C   UNL     1       3.277  33.727  62.703  1.00  0.00     0.004 A 
HETATM   20  C   UNL     1       3.531  33.161  61.460  1.00  0.00     0.037 A 
ENDBRANCH  10  11
ENDBRANCH   9  10
ENDBRANCH   6   9
ENDBRANCH   2   5
BRANCH   1  21
HETATM   21  C   UNL     1       5.890  27.512  55.790  1.00  0.00     0.121 A 
HETATM   22  N   UNL     1       4.908  26.863  55.098  1.00  0.00    -0.272 N 
HETATM   23  N   UNL     1       5.275  25.675  54.602  1.00  0.00    -0.174 NA
HETATM   24  H   UNL     1       3.968  27.185  54.899  1.00  0.00     0.189 HD
HETATM   25  C   UNL     1       6.560  25.535  54.970  1.00  0.00     0.089 A 
HETATM   26  C   UNL     1       6.983  26.672  55.707  1.00  0.00     0.071 A 
BRANCH  25  27
HETATM   27  C   UNL     1       7.343  24.353  54.603  1.00  0.00    -0.006 A 
HETATM   28  C   UNL     1       8.315  23.847  55.480  1.00  0.00     0.014 A 
HETATM   29  C   UNL     1       9.054  22.710  55.145  1.00  0.00     0.001 A 
HETATM   30  C   UNL     1       8.837  22.072  53.927  1.00  0.00     0.000 A 
HETATM   31  C   UNL     1       7.882  22.568  53.042  1.00  0.00     0.001 A 
HETATM   32  C   UNL     1       7.136  23.703  53.378  1.00  0.00     0.014 A 
ENDBRANCH  25  27
ENDBRANCH   1  21
TORSDOF 6
ENDMDL
MODEL 8
REMARK VINA RESULT:      -9.7      2.207     11.454
REMARK  6 active torsions:
REMARK  status: ('A' for Active; 'I' for Inactive)
REMARK    1  A    between atoms: C_4  and  C_5 
REMARK    2  A    between atoms: C_9  and  C_10 
REMARK       I    between atoms: C_10  and  N_11 
REMARK    3  A    between atoms: N_11  and  N_12 
REMARK       I    between atoms: N_12  and  C_13 
REMARK    4  A    between atoms: C_13  and  C_14 
REMARK    5  A    between atoms: C_14  and  O_15 
REMARK    6  A    between atoms: O_15  and  C_16 
ROOT
HETATM    1  C   UNL     1       6.524  29.375  57.286  1.00  0.00     0.288 C 
HETATM    2  N   UNL     1       7.554  29.939  58.023  1.00  0.00    -0.262 N 
HETATM    3  O   UNL     1       5.345  29.582  57.569  1.00  0.00    -0.264 OA
HETATM    4  H   UNL     1       8.438  30.143  57.556  1.00  0.00     0.190 HD
ENDROOT
BRANCH   2   5
HETATM    5  N   UNL     1       7.195  30.907  58.987  1.00  0.00    -0.265 N 
HETATM    6  C   UNL     1       8.018  31.022  60.091  1.00  0.00     0.260 C 
HETATM    7  O   UNL     1       8.887  30.188  60.349  1.00  0.00    -0.269 OA
HETATM    8  H   UNL     1       6.710  31.736  58.639  1.00  0.00     0.190 HD
BRANCH   6   9
HETATM    9  C   UNL     1       7.800  32.278  60.927  1.00  0.00     0.280 C 
BRANCH   9  10
HETATM   10  O   UNL     1       7.522  31.940  62.290  1.00  0.00    -0.341 OA
BRANCH  10  11
HETATM   11  C   UNL     1       6.307  32.462  62.666  1.00  0.00     0.080 A 
HETATM   12  C   UNL     1       6.147  33.094  63.918  1.00  0.00     0.007 A 
HETATM   13  C   UNL     1       4.867  33.590  64.257  1.00  0.00    -0.023 A 
HETATM   14  C   UNL     1       7.200  33.252  64.845  1.00  0.00     0.015 A 
HETATM   15  C   UNL     1       4.670  34.204  65.505  1.00  0.00     0.012 A 
HETATM   16  C   UNL     1       3.808  33.468  63.340  1.00  0.00     0.012 A 
HETATM   17  C   UNL     1       5.724  34.341  66.411  1.00  0.00     0.001 A 
HETATM   18  C   UNL     1       6.988  33.870  66.079  1.00  0.00     0.001 A 
HETATM   19  C   UNL     1       4.003  32.873  62.093  1.00  0.00     0.004 A 
HETATM   20  C   UNL     1       5.254  32.376  61.751  1.00  0.00     0.037 A 
ENDBRANCH  10  11
ENDBRANCH   9  10
ENDBRANCH   6   9
ENDBRANCH   2   5
BRANCH   1  21
HETATM   21  C   UNL     1       6.943  28.562  56.174  1.00  0.00     0.121 A 
HETATM   22  N   UNL     1       7.591  28.997  55.053  1.00  0.00    -0.272 N 
HETATM   23  N   UNL     1       7.899  28.027  54.183  1.00  0.00    -0.174 NA
HETATM   24  H   UNL     1       7.881  29.942  54.827  1.00  0.00     0.189 HD
HETATM   25  C   UNL     1       7.448  26.899  54.756  1.00  0.00     0.089 A 
HETATM   26  C   UNL     1       6.853  27.194  56.011  1.00  0.00     0.071 A 
BRANCH  25  27
HETATM   27  C   UNL     1       7.607  25.592  54.117  1.00  0.00    -0.006 A 
HETATM   28  C   UNL     1       7.828  24.445  54.893  1.00  0.00     0.014 A 
HETATM   29  C   UNL     1       7.964  23.191  54.292  1.00  0.00     0.001 A 
HETATM   30  C   UNL     1       7.888  23.071  52.906  1.00  0.00     0.000 A 
HETATM   31  C   UNL     1       7.678  24.203  52.121  1.00  0.00     0.001 A 
HETATM   32  C   UNL     1       7.536  25.458  52.722  1.00  0.00     0.014 A 
ENDBRANCH  25  27
ENDBRANCH   1  21
TORSDOF 6
ENDMDL
MODEL 9
REMARK VINA RESULT:      -9.5      2.124      2.864
REMARK  6 active torsions:
REMARK  status: ('A' for Active; 'I' for Inactive)
REMARK    1  A    between atoms: C_4  and  C_5 
REMARK    2  A    between atoms: C_9  and  C_10 
REMARK       I    between atoms: C_10  and  N_11 
REMARK    3  A    between atoms: N_11  and  N_12 
REMARK       I    between atoms: N_12  and  C_13 
REMARK    4  A    between atoms: C_13  and  C_14 
REMARK    5  A    between atoms: C_14  and  O_15 
REMARK    6  A    between atoms: O_15  and  C_16 
ROOT
HETATM    1  C   UNL     1       7.009  31.205  58.790  1.00  0.00     0.288 C 
HETATM    2  N   UNL     1       7.378  29.955  58.316  1.00  0.00    -0.262 N 
HETATM    3  O   UNL     1       6.611  32.088  58.031  1.00  0.00    -0.264 OA
HETATM    4  H   UNL     1       7.264  29.146  58.926  1.00  0.00     0.190 HD
ENDROOT
BRANCH   2   5
HETATM    5  N   UNL     1       7.098  29.678  56.959  1.00  0.00    -0.265 N 
HETATM    6  C   UNL     1       6.152  28.703  56.704  1.00  0.00     0.260 C 
HETATM    7  O   UNL     1       5.734  27.952  57.587  1.00  0.00    -0.269 OA
HETATM    8  H   UNL     1       7.198  30.458  56.307  1.00  0.00     0.190 HD
BRANCH   6   9
HETATM    9  C   UNL     1       5.638  28.667  55.270  1.00  0.00     0.280 C 
BRANCH   9  10
HETATM   10  O   UNL     1       6.681  28.292  54.365  1.00  0.00    -0.341 OA
BRANCH  10  11
HETATM   11  C   UNL     1       6.327  27.150  53.685  1.00  0.00     0.080 A 
HETATM   12  C   UNL     1       6.785  25.885  54.109  1.00  0.00     0.007 A 
HETATM   13  C   UNL     1       6.406  24.750  53.354  1.00  0.00    -0.023 A 
HETATM   14  C   UNL     1       7.601  25.698  55.246  1.00  0.00     0.015 A 
HETATM   15  C   UNL     1       6.863  23.478  53.737  1.00  0.00     0.012 A 
HETATM   16  C   UNL     1       5.573  24.908  52.233  1.00  0.00     0.012 A 
HETATM   17  C   UNL     1       7.678  23.318  54.859  1.00  0.00     0.001 A 
HETATM   18  C   UNL     1       8.042  24.426  55.615  1.00  0.00     0.001 A 
HETATM   19  C   UNL     1       5.103  26.167  51.858  1.00  0.00     0.004 A 
HETATM   20  C   UNL     1       5.473  27.290  52.588  1.00  0.00     0.037 A 
ENDBRANCH  10  11
ENDBRANCH   9  10
ENDBRANCH   6   9
ENDBRANCH   2   5
BRANCH   1  21
HETATM   21  C   UNL     1       7.110  31.371  60.216  1.00  0.00     0.121 A 
HETATM   22  N   UNL     1       7.942  30.685  61.054  1.00  0.00    -0.272 N 
HETATM   23  N   UNL     1       7.863  31.057  62.337  1.00  0.00    -0.174 NA
HETATM   24  H   UNL     1       8.615  29.966  60.813  1.00  0.00     0.189 HD
HETATM   25  C   UNL     1       6.947  32.040  62.351  1.00  0.00     0.089 A 
HETATM   26  C   UNL     1       6.461  32.272  61.037  1.00  0.00     0.071 A 
BRANCH  25  27
HETATM   27  C   UNL     1       6.577  32.733  63.587  1.00  0.00    -0.006 A 
HETATM   28  C   UNL     1       7.568  33.276  64.419  1.00  0.00     0.014 A 
HETATM   29  C   UNL     1       7.222  33.953  65.590  1.00  0.00     0.001 A 
HETATM   30  C   UNL     1       5.883  34.087  65.948  1.00  0.00     0.000 A 
HETATM   31  C   UNL     1       4.889  33.544  65.137  1.00  0.00     0.001 A 
HETATM   32  C   UNL     1       5.233  32.871  63.960  1.00  0.00     0.014 A 
ENDBRANCH  25  27
ENDBRANCH   1  21
TORSDOF 6
ENDMDL
MODEL 10
REMARK VINA RESULT:      -9.4      2.835      3.492
REMARK  6 active torsions:
REMARK  status: ('A' for Active; 'I' for Inactive)
REMARK    1  A    between atoms: C_4  and  C_5 
REMARK    2  A    between atoms: C_9  and  C_10 
REMARK       I    between atoms: C_10  and  N_11 
REMARK    3  A    between atoms: N_11  and  N_12 
REMARK       I    between atoms: N_12  and  C_13 
REMARK    4  A    between atoms: C_13  and  C_14 
REMARK    5  A    between atoms: C_14  and  O_15 
REMARK    6  A    between atoms: O_15  and  C_16 
ROOT
HETATM    1  C   UNL     1       4.128  31.559  58.699  1.00  0.00     0.288 C 
HETATM    2  N   UNL     1       5.208  30.795  58.283  1.00  0.00    -0.262 N 
HETATM    3  O   UNL     1       3.200  31.827  57.937  1.00  0.00    -0.264 OA
HETATM    4  H   UNL     1       5.698  30.223  58.971  1.00  0.00     0.190 HD
ENDROOT
BRANCH   2   5
HETATM    5  N   UNL     1       5.105  30.180  57.016  1.00  0.00    -0.265 N 
HETATM    6  C   UNL     1       6.220  29.503  56.560  1.00  0.00     0.260 C 
HETATM    7  O   UNL     1       7.319  29.609  57.107  1.00  0.00    -0.269 OA
HETATM    8  H   UNL     1       4.177  29.850  56.745  1.00  0.00     0.190 HD
BRANCH   6   9
HETATM    9  C   UNL     1       5.972  28.585  55.368  1.00  0.00     0.280 C 
BRANCH   9  10
HETATM   10  O   UNL     1       5.376  27.354  55.790  1.00  0.00    -0.341 OA
BRANCH  10  11
HETATM   11  C   UNL     1       5.546  26.392  54.823  1.00  0.00     0.080 A 
HETATM   12  C   UNL     1       6.320  25.240  55.077  1.00  0.00     0.007 A 
HETATM   13  C   UNL     1       6.477  24.298  54.033  1.00  0.00    -0.023 A 
HETATM   14  C   UNL     1       6.944  24.984  56.317  1.00  0.00     0.015 A 
HETATM   15  C   UNL     1       7.259  23.151  54.247  1.00  0.00     0.012 A 
HETATM   16  C   UNL     1       5.844  24.517  52.797  1.00  0.00     0.012 A 
HETATM   17  C   UNL     1       7.876  22.924  55.478  1.00  0.00     0.001 A 
HETATM   18  C   UNL     1       7.714  23.837  56.514  1.00  0.00     0.001 A 
HETATM   19  C   UNL     1       5.052  25.646  52.586  1.00  0.00     0.004 A 
HETATM   20  C   UNL     1       4.896  26.582  53.600  1.00  0.00     0.037 A 
ENDBRANCH  10  11
ENDBRANCH   9  10
ENDBRANCH   6   9
ENDBRANCH   2   5
BRANCH   1  21
HETATM   21  C   UNL     1       4.176  31.987  60.072  1.00  0.00     0.121 A 
HETATM   22  N   UNL     1       3.109  32.127  60.913  1.00  0.00    -0.272 N 
HETATM   23  N   UNL     1       3.432  32.508  62.156  1.00  0.00    -0.174 NA
HETATM   24  H   UNL     1       2.131  31.952  60.714  1.00  0.00     0.189 HD
HETATM   25  C   UNL     1       4.771  32.612  62.143  1.00  0.00     0.089 A 
HETATM   26  C   UNL     1       5.274  32.282  60.857  1.00  0.00     0.071 A 
BRANCH  25  27
HETATM   27  C   UNL     1       5.527  32.999  63.336  1.00  0.00    -0.006 A 
HETATM   28  C   UNL     1       6.929  32.986  63.322  1.00  0.00     0.014 A 
HETATM   29  C   UNL     1       7.658  33.370  64.451  1.00  0.00     0.001 A 
HETATM   30  C   UNL     1       6.992  33.762  65.609  1.00  0.00     0.000 A 
HETATM   31  C   UNL     1       5.599  33.771  65.641  1.00  0.00     0.001 A 
HETATM   32  C   UNL     1       4.868  33.392  64.510  1.00  0.00     0.014 A 
ENDBRANCH  25  27
ENDBRANCH   1  21
TORSDOF 6
ENDMDL
