MODEL 1
REMARK VINA RESULT:      -9.3      0.000      0.000
REMARK  8 active torsions:
REMARK  status: ('A' for Active; 'I' for Inactive)
REMARK    1  A    between atoms: C_2  and  O_3 
REMARK    2  A    between atoms: O_3  and  C_4 
REMARK    3  A    between atoms: C_4  and  C_5 
REMARK    4  A    between atoms: C_6  and  O_7 
REMARK    5  A    between atoms: C_6  and  C_8 
REMARK    6  A    between atoms: C_16  and  C_17 
REMARK    7  A    between atoms: C_18  and  C_19 
REMARK    8  A    between atoms: N_26  and  C_27 
ROOT
HETATM    1  C   UNL     1       5.547  28.062  55.300  1.00  0.00     0.177 C 
HETATM    2  C   UNL     1       5.740  29.503  55.778  1.00  0.00     0.250 C 
HETATM    3  N   UNL     1       7.124  29.805  56.096  1.00  0.00    -0.303 N 
HETATM    4  C   UNL     1       8.201  29.169  55.584  1.00  0.00     0.319 C 
HETATM    5  O   UNL     1       9.338  29.551  55.829  1.00  0.00    -0.247 OA
HETATM    6  N   UNL     1       7.961  28.085  54.813  1.00  0.00    -0.333 N 
HETATM    7  C   UNL     1       6.653  27.745  54.296  1.00  0.00     0.142 C 
HETATM    8  H   UNL     1       7.353  30.593  56.691  1.00  0.00     0.167 HD
HETATM    9  H   UNL     1       8.787  27.699  54.372  1.00  0.00     0.165 HD
ENDROOT
BRANCH   7  10
HETATM   10  C   UNL     1       6.676  26.325  53.813  1.00  0.00     0.015 A 
HETATM   11  C   UNL     1       6.113  25.772  52.622  1.00  0.00     0.097 A 
HETATM   12  N   UNL     1       6.376  24.462  52.530  1.00  0.00    -0.167 NA
HETATM   13  N   UNL     1       7.089  24.142  53.631  1.00  0.00    -0.244 N 
HETATM   14  C   UNL     1       7.300  25.247  54.418  1.00  0.00     0.130 A 
BRANCH  11  15
HETATM   15  C   UNL     1       5.373  26.438  51.549  1.00  0.00    -0.005 A 
HETATM   16  C   UNL     1       4.986  25.705  50.418  1.00  0.00     0.014 A 
HETATM   17  C   UNL     1       4.286  26.318  49.376  1.00  0.00     0.001 A 
HETATM   18  C   UNL     1       3.964  27.671  49.455  1.00  0.00     0.000 A 
HETATM   19  C   UNL     1       4.330  28.407  50.580  1.00  0.00     0.001 A 
HETATM   20  C   UNL     1       5.025  27.793  51.627  1.00  0.00     0.014 A 
ENDBRANCH  11  15
BRANCH  13  21
HETATM   21  C   UNL     1       7.528  22.807  53.857  1.00  0.00     0.058 A 
HETATM   22  C   UNL     1       7.562  22.306  55.169  1.00  0.00     0.031 A 
HETATM   23  C   UNL     1       7.986  20.999  55.414  1.00  0.00     0.002 A 
HETATM   24  C   UNL     1       8.382  20.184  54.355  1.00  0.00     0.000 A 
HETATM   25  C   UNL     1       8.355  20.675  53.050  1.00  0.00     0.002 A 
HETATM   26  C   UNL     1       7.930  21.982  52.797  1.00  0.00     0.031 A 
ENDBRANCH  13  21
ENDBRANCH   7  10
BRANCH   1  27
HETATM   27  C   UNL     1       5.518  27.093  56.460  1.00  0.00     0.270 C 
HETATM   28  O   UNL     1       4.590  26.351  56.736  1.00  0.00    -0.265 OA
BRANCH  27  29
HETATM   29  O   UNL     1       6.699  27.151  57.137  1.00  0.00    -0.321 OA
BRANCH  29  30
HETATM   30  C   UNL     1       7.103  25.946  57.808  1.00  0.00     0.174 C 
HETATM   31  C   UNL     1       8.543  25.600  57.476  1.00  0.00     0.034 C 
ENDBRANCH  29  30
ENDBRANCH  27  29
ENDBRANCH   1  27
BRANCH   2  32
HETATM   32  O   UNL     1       5.460  30.351  54.642  1.00  0.00    -0.363 OA
HETATM   33  H   UNL     1       6.207  30.226  54.028  1.00  0.00     0.213 HD
ENDBRANCH   2  32
BRANCH   2  34
HETATM   34  C   UNL     1       4.749  29.868  56.935  1.00  0.00     0.439 C 
HETATM   35  F   UNL     1       3.515  29.367  56.704  1.00  0.00    -0.166 F 
HETATM   36  F   UNL     1       5.151  29.427  58.143  1.00  0.00    -0.166 F 
HETATM   37  F   UNL     1       4.631  31.219  57.025  1.00  0.00    -0.166 F 
ENDBRANCH   2  34
TORSDOF 8
ENDMDL
MODEL 2
REMARK VINA RESULT:      -8.7      1.644      2.590
REMARK  8 active torsions:
REMARK  status: ('A' for Active; 'I' for Inactive)
REMARK    1  A    between atoms: C_2  and  O_3 
REMARK    2  A    between atoms: O_3  and  C_4 
REMARK    3  A    between atoms: C_4  and  C_5 
REMARK    4  A    between atoms: C_6  and  O_7 
REMARK    5  A    between atoms: C_6  and  C_8 
REMARK    6  A    between atoms: C_16  and  C_17 
REMARK    7  A    between atoms: C_18  and  C_19 
REMARK    8  A    between atoms: N_26  and  C_27 
ROOT
HETATM    1  C   UNL     1       5.444  27.724  55.464  1.00  0.00     0.177 C 
HETATM    2  C   UNL     1       4.559  28.918  55.830  1.00  0.00     0.250 C 
HETATM    3  N   UNL     1       3.909  29.506  54.672  1.00  0.00    -0.303 N 
HETATM    4  C   UNL     1       3.638  28.862  53.515  1.00  0.00     0.319 C 
HETATM    5  O   UNL     1       2.997  29.404  52.624  1.00  0.00    -0.247 OA
HETATM    6  N   UNL     1       4.128  27.609  53.385  1.00  0.00    -0.333 N 
HETATM    7  C   UNL     1       4.668  26.843  54.487  1.00  0.00     0.142 C 
HETATM    8  H   UNL     1       3.547  30.453  54.713  1.00  0.00     0.167 HD
HETATM    9  H   UNL     1       3.820  27.130  52.548  1.00  0.00     0.165 HD
ENDROOT
BRANCH   7  10
HETATM   10  C   UNL     1       5.442  25.681  53.937  1.00  0.00     0.015 A 
HETATM   11  C   UNL     1       5.753  25.374  52.577  1.00  0.00     0.097 A 
HETATM   12  N   UNL     1       6.495  24.261  52.494  1.00  0.00    -0.167 NA
HETATM   13  N   UNL     1       6.671  23.830  53.762  1.00  0.00    -0.244 N 
HETATM   14  C   UNL     1       6.060  24.674  54.656  1.00  0.00     0.130 A 
BRANCH  11  15
HETATM   15  C   UNL     1       5.414  26.109  51.357  1.00  0.00    -0.005 A 
HETATM   16  C   UNL     1       4.546  25.529  50.419  1.00  0.00     0.014 A 
HETATM   17  C   UNL     1       4.213  26.206  49.243  1.00  0.00     0.001 A 
HETATM   18  C   UNL     1       4.740  27.470  48.995  1.00  0.00     0.000 A 
HETATM   19  C   UNL     1       5.591  28.064  49.925  1.00  0.00     0.001 A 
HETATM   20  C   UNL     1       5.921  27.390  51.106  1.00  0.00     0.014 A 
ENDBRANCH  11  15
BRANCH  13  21
HETATM   21  C   UNL     1       7.415  22.649  54.036  1.00  0.00     0.058 A 
HETATM   22  C   UNL     1       7.887  21.868  52.968  1.00  0.00     0.031 A 
HETATM   23  C   UNL     1       8.622  20.707  53.213  1.00  0.00     0.002 A 
HETATM   24  C   UNL     1       8.888  20.314  54.524  1.00  0.00     0.000 A 
HETATM   25  C   UNL     1       8.421  21.081  55.589  1.00  0.00     0.002 A 
HETATM   26  C   UNL     1       7.685  22.246  55.351  1.00  0.00     0.031 A 
ENDBRANCH  13  21
ENDBRANCH   7  10
BRANCH   1  27
HETATM   27  C   UNL     1       6.777  28.172  54.910  1.00  0.00     0.270 C 
HETATM   28  O   UNL     1       6.945  28.721  53.834  1.00  0.00    -0.265 OA
BRANCH  27  29
HETATM   29  O   UNL     1       7.764  27.896  55.807  1.00  0.00    -0.321 OA
BRANCH  29  30
HETATM   30  C   UNL     1       8.849  28.837  55.864  1.00  0.00     0.174 C 
HETATM   31  C   UNL     1       9.292  29.065  57.298  1.00  0.00     0.034 C 
ENDBRANCH  29  30
ENDBRANCH  27  29
ENDBRANCH   1  27
BRANCH   2  32
HETATM   32  O   UNL     1       3.460  28.390  56.604  1.00  0.00    -0.363 OA
HETATM   33  H   UNL     1       2.919  29.160  56.857  1.00  0.00     0.213 HD
ENDBRANCH   2  32
BRANCH   2  34
HETATM   34  C   UNL     1       5.330  29.967  56.701  1.00  0.00     0.439 C 
HETATM   35  F   UNL     1       6.018  29.368  57.699  1.00  0.00    -0.166 F 
HETATM   36  F   UNL     1       6.202  30.713  55.994  1.00  0.00    -0.166 F 
HETATM   37  F   UNL     1       4.446  30.824  57.273  1.00  0.00    -0.166 F 
ENDBRANCH   2  34
TORSDOF 8
ENDMDL
MODEL 3
REMARK VINA RESULT:      -8.5      1.521      5.277
REMARK  8 active torsions:
REMARK  status: ('A' for Active; 'I' for Inactive)
REMARK    1  A    between atoms: C_2  and  O_3 
REMARK    2  A    between atoms: O_3  and  C_4 
REMARK    3  A    between atoms: C_4  and  C_5 
REMARK    4  A    between atoms: C_6  and  O_7 
REMARK    5  A    between atoms: C_6  and  C_8 
REMARK    6  A    between atoms: C_16  and  C_17 
REMARK    7  A    between atoms: C_18  and  C_19 
REMARK    8  A    between atoms: N_26  and  C_27 
ROOT
HETATM    1  C   UNL     1       6.840  28.643  55.364  1.00  0.00     0.177 C 
HETATM    2  C   UNL     1       7.625  28.996  56.629  1.00  0.00     0.250 C 
HETATM    3  N   UNL     1       7.943  27.829  57.433  1.00  0.00    -0.303 N 
HETATM    4  C   UNL     1       8.046  26.564  56.968  1.00  0.00     0.319 C 
HETATM    5  O   UNL     1       8.416  25.650  57.694  1.00  0.00    -0.247 OA
HETATM    6  N   UNL     1       7.701  26.358  55.677  1.00  0.00    -0.333 N 
HETATM    7  C   UNL     1       7.501  27.425  54.722  1.00  0.00     0.142 C 
HETATM    8  H   UNL     1       8.184  27.930  58.412  1.00  0.00     0.167 HD
HETATM    9  H   UNL     1       7.886  25.419  55.345  1.00  0.00     0.165 HD
ENDROOT
BRANCH   7  10
HETATM   10  C   UNL     1       6.781  26.877  53.525  1.00  0.00     0.015 A 
HETATM   11  C   UNL     1       6.673  25.522  53.086  1.00  0.00     0.097 A 
HETATM   12  N   UNL     1       5.915  25.433  51.985  1.00  0.00    -0.167 NA
HETATM   13  N   UNL     1       5.531  26.693  51.690  1.00  0.00    -0.244 N 
HETATM   14  C   UNL     1       6.025  27.586  52.609  1.00  0.00     0.130 A 
BRANCH  11  15
HETATM   15  C   UNL     1       7.222  24.304  53.686  1.00  0.00    -0.005 A 
HETATM   16  C   UNL     1       8.222  23.589  53.010  1.00  0.00     0.014 A 
HETATM   17  C   UNL     1       8.756  22.421  53.557  1.00  0.00     0.001 A 
HETATM   18  C   UNL     1       8.299  21.956  54.787  1.00  0.00     0.000 A 
HETATM   19  C   UNL     1       7.317  22.665  55.477  1.00  0.00     0.001 A 
HETATM   20  C   UNL     1       6.786  23.838  54.934  1.00  0.00     0.014 A 
ENDBRANCH  11  15
BRANCH  13  21
HETATM   21  C   UNL     1       4.713  26.962  50.557  1.00  0.00     0.058 A 
HETATM   22  C   UNL     1       4.106  28.223  50.429  1.00  0.00     0.031 A 
HETATM   23  C   UNL     1       3.302  28.511  49.325  1.00  0.00     0.002 A 
HETATM   24  C   UNL     1       3.096  27.544  48.342  1.00  0.00     0.000 A 
HETATM   25  C   UNL     1       3.692  26.290  48.462  1.00  0.00     0.002 A 
HETATM   26  C   UNL     1       4.499  25.995  49.565  1.00  0.00     0.031 A 
ENDBRANCH  13  21
ENDBRANCH   7  10
BRANCH   1  27
HETATM   27  C   UNL     1       5.376  28.420  55.665  1.00  0.00     0.270 C 
HETATM   28  O   UNL     1       4.928  27.522  56.358  1.00  0.00    -0.265 OA
BRANCH  27  29
HETATM   29  O   UNL     1       4.630  29.391  55.068  1.00  0.00    -0.321 OA
BRANCH  29  30
HETATM   30  C   UNL     1       3.543  29.922  55.845  1.00  0.00     0.174 C 
HETATM   31  C   UNL     1       3.074  31.251  55.281  1.00  0.00     0.034 C 
ENDBRANCH  29  30
ENDBRANCH  27  29
ENDBRANCH   1  27
BRANCH   2  32
HETATM   32  O   UNL     1       8.918  29.467  56.190  1.00  0.00    -0.363 OA
HETATM   33  H   UNL     1       9.446  28.667  56.013  1.00  0.00     0.213 HD
ENDBRANCH   2  32
BRANCH   2  34
HETATM   34  C   UNL     1       6.926  30.134  57.448  1.00  0.00     0.439 C 
HETATM   35  F   UNL     1       6.468  31.115  56.638  1.00  0.00    -0.166 F 
HETATM   36  F   UNL     1       5.889  29.699  58.191  1.00  0.00    -0.166 F 
HETATM   37  F   UNL     1       7.820  30.696  58.303  1.00  0.00    -0.166 F 
ENDBRANCH   2  34
TORSDOF 8
ENDMDL
MODEL 4
REMARK VINA RESULT:      -8.4      3.256      6.919
REMARK  8 active torsions:
REMARK  status: ('A' for Active; 'I' for Inactive)
REMARK    1  A    between atoms: C_2  and  O_3 
REMARK    2  A    between atoms: O_3  and  C_4 
REMARK    3  A    between atoms: C_4  and  C_5 
REMARK    4  A    between atoms: C_6  and  O_7 
REMARK    5  A    between atoms: C_6  and  C_8 
REMARK    6  A    between atoms: C_16  and  C_17 
REMARK    7  A    between atoms: C_18  and  C_19 
REMARK    8  A    between atoms: N_26  and  C_27 
ROOT
HETATM    1  C   UNL     1       6.152  26.842  53.888  1.00  0.00     0.177 C 
HETATM    2  C   UNL     1       6.205  25.323  54.067  1.00  0.00     0.250 C 
HETATM    3  N   UNL     1       5.925  24.912  55.432  1.00  0.00    -0.303 N 
HETATM    4  C   UNL     1       5.205  25.620  56.330  1.00  0.00     0.319 C 
HETATM    5  O   UNL     1       4.932  25.156  57.429  1.00  0.00    -0.247 OA
HETATM    6  N   UNL     1       4.826  26.865  55.964  1.00  0.00    -0.333 N 
HETATM    7  C   UNL     1       4.907  27.359  54.606  1.00  0.00     0.142 C 
HETATM    8  H   UNL     1       6.212  23.996  55.760  1.00  0.00     0.167 HD
HETATM    9  H   UNL     1       4.209  27.320  56.624  1.00  0.00     0.165 HD
ENDROOT
BRANCH   7  10
HETATM   10  C   UNL     1       4.765  28.852  54.624  1.00  0.00     0.015 A 
HETATM   11  C   UNL     1       4.485  29.740  53.541  1.00  0.00     0.097 A 
HETATM   12  N   UNL     1       4.404  31.008  53.968  1.00  0.00    -0.167 NA
HETATM   13  N   UNL     1       4.630  30.972  55.299  1.00  0.00    -0.244 N 
HETATM   14  C   UNL     1       4.837  29.684  55.728  1.00  0.00     0.130 A 
BRANCH  11  15
HETATM   15  C   UNL     1       4.250  29.437  52.128  1.00  0.00    -0.005 A 
HETATM   16  C   UNL     1       5.335  29.392  51.241  1.00  0.00     0.014 A 
HETATM   17  C   UNL     1       5.138  29.113  49.886  1.00  0.00     0.001 A 
HETATM   18  C   UNL     1       3.853  28.872  49.406  1.00  0.00     0.000 A 
HETATM   19  C   UNL     1       2.768  28.899  50.280  1.00  0.00     0.001 A 
HETATM   20  C   UNL     1       2.965  29.172  51.637  1.00  0.00     0.014 A 
ENDBRANCH  11  15
BRANCH  13  21
HETATM   21  C   UNL     1       4.627  32.165  56.074  1.00  0.00     0.058 A 
HETATM   22  C   UNL     1       4.538  32.078  57.473  1.00  0.00     0.031 A 
HETATM   23  C   UNL     1       4.537  33.235  58.254  1.00  0.00     0.002 A 
HETATM   24  C   UNL     1       4.622  34.486  57.647  1.00  0.00     0.000 A 
HETATM   25  C   UNL     1       4.708  34.582  56.258  1.00  0.00     0.002 A 
HETATM   26  C   UNL     1       4.711  33.428  55.470  1.00  0.00     0.031 A 
ENDBRANCH  13  21
ENDBRANCH   7  10
BRANCH   1  27
HETATM   27  C   UNL     1       7.420  27.502  54.375  1.00  0.00     0.270 C 
HETATM   28  O   UNL     1       8.132  28.238  53.711  1.00  0.00    -0.265 OA
BRANCH  27  29
HETATM   29  O   UNL     1       7.639  27.175  55.679  1.00  0.00    -0.321 OA
BRANCH  29  30
HETATM   30  C   UNL     1       8.266  28.184  56.488  1.00  0.00     0.174 C 
HETATM   31  C   UNL     1       7.587  28.292  57.841  1.00  0.00     0.034 C 
ENDBRANCH  29  30
ENDBRANCH  27  29
ENDBRANCH   1  27
BRANCH   2  32
HETATM   32  O   UNL     1       5.096  24.783  53.316  1.00  0.00    -0.363 OA
HETATM   33  H   UNL     1       4.303  24.945  53.860  1.00  0.00     0.213 HD
ENDBRANCH   2  32
BRANCH   2  34
HETATM   34  C   UNL     1       7.536  24.719  53.504  1.00  0.00     0.439 C 
HETATM   35  F   UNL     1       8.057  25.496  52.528  1.00  0.00    -0.166 F 
HETATM   36  F   UNL     1       8.488  24.551  54.444  1.00  0.00    -0.166 F 
HETATM   37  F   UNL     1       7.291  23.497  52.964  1.00  0.00    -0.166 F 
ENDBRANCH   2  34
TORSDOF 8
ENDMDL
MODEL 5
REMARK VINA RESULT:      -8.3      2.677      5.515
REMARK  8 active torsions:
REMARK  status: ('A' for Active; 'I' for Inactive)
REMARK    1  A    between atoms: C_2  and  O_3 
REMARK    2  A    between atoms: O_3  and  C_4 
REMARK    3  A    between atoms: C_4  and  C_5 
REMARK    4  A    between atoms: C_6  and  O_7 
REMARK    5  A    between atoms: C_6  and  C_8 
REMARK    6  A    between atoms: C_16  and  C_17 
REMARK    7  A    between atoms: C_18  and  C_19 
REMARK    8  A    between atoms: N_26  and  C_27 
ROOT
HETATM    1  C   UNL     1       5.360  29.701  54.269  1.00  0.00     0.177 C 
HETATM    2  C   UNL     1       4.378  30.872  54.199  1.00  0.00     0.250 C 
HETATM    3  N   UNL     1       3.342  30.792  55.214  1.00  0.00    -0.303 N 
HETATM    4  C   UNL     1       3.450  30.139  56.393  1.00  0.00     0.319 C 
HETATM    5  O   UNL     1       2.565  30.204  57.236  1.00  0.00    -0.247 OA
HETATM    6  N   UNL     1       4.565  29.397  56.580  1.00  0.00    -0.333 N 
HETATM    7  C   UNL     1       5.735  29.484  55.734  1.00  0.00     0.142 C 
HETATM    8  H   UNL     1       2.477  31.311  55.107  1.00  0.00     0.167 HD
HETATM    9  H   UNL     1       4.650  29.006  57.510  1.00  0.00     0.165 HD
ENDROOT
BRANCH   7  10
HETATM   10  C   UNL     1       6.609  28.292  55.990  1.00  0.00     0.015 A 
HETATM   11  C   UNL     1       7.862  28.229  56.674  1.00  0.00     0.097 A 
HETATM   12  N   UNL     1       8.318  26.970  56.725  1.00  0.00    -0.167 NA
HETATM   13  N   UNL     1       7.400  26.212  56.088  1.00  0.00    -0.244 N 
HETATM   14  C   UNL     1       6.350  26.978  55.646  1.00  0.00     0.130 A 
BRANCH  11  15
HETATM   15  C   UNL     1       8.625  29.301  57.315  1.00  0.00    -0.005 A 
HETATM   16  C   UNL     1       9.884  29.655  56.805  1.00  0.00     0.014 A 
HETATM   17  C   UNL     1      10.636  30.668  57.403  1.00  0.00     0.001 A 
HETATM   18  C   UNL     1      10.137  31.341  58.516  1.00  0.00     0.000 A 
HETATM   19  C   UNL     1       8.882  31.009  59.023  1.00  0.00     0.001 A 
HETATM   20  C   UNL     1       8.125  29.999  58.422  1.00  0.00     0.014 A 
ENDBRANCH  11  15
BRANCH  13  21
HETATM   21  C   UNL     1       7.581  24.807  55.949  1.00  0.00     0.058 A 
HETATM   22  C   UNL     1       8.185  24.084  56.991  1.00  0.00     0.031 A 
HETATM   23  C   UNL     1       8.370  22.705  56.879  1.00  0.00     0.002 A 
HETATM   24  C   UNL     1       7.957  22.037  55.727  1.00  0.00     0.000 A 
HETATM   25  C   UNL     1       7.360  22.748  54.687  1.00  0.00     0.002 A 
HETATM   26  C   UNL     1       7.170  24.128  54.793  1.00  0.00     0.031 A 
ENDBRANCH  13  21
ENDBRANCH   7  10
BRANCH   1  27
HETATM   27  C   UNL     1       4.789  28.459  53.625  1.00  0.00     0.270 C 
HETATM   28  O   UNL     1       3.752  27.907  53.956  1.00  0.00    -0.265 OA
BRANCH  27  29
HETATM   29  O   UNL     1       5.591  28.061  52.598  1.00  0.00    -0.321 OA
BRANCH  29  30
HETATM   30  C   UNL     1       4.972  27.245  51.590  1.00  0.00     0.174 C 
HETATM   31  C   UNL     1       5.486  25.819  51.657  1.00  0.00     0.034 C 
ENDBRANCH  29  30
ENDBRANCH  27  29
ENDBRANCH   1  27
BRANCH   2  32
HETATM   32  O   UNL     1       5.123  32.053  54.567  1.00  0.00    -0.363 OA
HETATM   33  H   UNL     1       4.503  32.611  55.073  1.00  0.00     0.213 HD
ENDBRANCH   2  32
BRANCH   2  34
HETATM   34  C   UNL     1       3.807  31.065  52.753  1.00  0.00     0.439 C 
HETATM   35  F   UNL     1       4.770  30.904  51.817  1.00  0.00    -0.166 F 
HETATM   36  F   UNL     1       2.802  30.219  52.456  1.00  0.00    -0.166 F 
HETATM   37  F   UNL     1       3.318  32.326  52.621  1.00  0.00    -0.166 F 
ENDBRANCH   2  34
TORSDOF 8
ENDMDL
MODEL 6
REMARK VINA RESULT:      -8.3      3.691      7.492
REMARK  8 active torsions:
REMARK  status: ('A' for Active; 'I' for Inactive)
REMARK    1  A    between atoms: C_2  and  O_3 
REMARK    2  A    between atoms: O_3  and  C_4 
REMARK    3  A    between atoms: C_4  and  C_5 
REMARK    4  A    between atoms: C_6  and  O_7 
REMARK    5  A    between atoms: C_6  and  C_8 
REMARK    6  A    between atoms: C_16  and  C_17 
REMARK    7  A    between atoms: C_18  and  C_19 
REMARK    8  A    between atoms: N_26  and  C_27 
ROOT
HETATM    1  C   UNL     1       6.514  28.099  55.288  1.00  0.00     0.177 C 
HETATM    2  C   UNL     1       6.025  26.817  54.610  1.00  0.00     0.250 C 
HETATM    3  N   UNL     1       5.503  25.849  55.558  1.00  0.00    -0.303 N 
HETATM    4  C   UNL     1       4.996  26.142  56.776  1.00  0.00     0.319 C 
HETATM    5  O   UNL     1       4.486  25.276  57.474  1.00  0.00    -0.247 OA
HETATM    6  N   UNL     1       5.103  27.424  57.190  1.00  0.00    -0.333 N 
HETATM    7  C   UNL     1       5.466  28.519  56.317  1.00  0.00     0.142 C 
HETATM    8  H   UNL     1       5.427  24.871  55.302  1.00  0.00     0.167 HD
HETATM    9  H   UNL     1       4.626  27.619  58.061  1.00  0.00     0.165 HD
ENDROOT
BRANCH   7  10
HETATM   10  C   UNL     1       5.847  29.703  57.155  1.00  0.00     0.015 A 
HETATM   11  C   UNL     1       5.383  31.052  57.068  1.00  0.00     0.097 A 
HETATM   12  N   UNL     1       5.938  31.813  58.020  1.00  0.00    -0.167 NA
HETATM   13  N   UNL     1       6.756  31.000  58.723  1.00  0.00    -0.244 N 
HETATM   14  C   UNL     1       6.712  29.718  58.235  1.00  0.00     0.130 A 
BRANCH  11  15
HETATM   15  C   UNL     1       4.408  31.640  56.149  1.00  0.00    -0.005 A 
HETATM   16  C   UNL     1       4.832  32.586  55.203  1.00  0.00     0.014 A 
HETATM   17  C   UNL     1       3.920  33.169  54.320  1.00  0.00     0.001 A 
HETATM   18  C   UNL     1       2.575  32.810  54.370  1.00  0.00     0.000 A 
HETATM   19  C   UNL     1       2.144  31.861  55.294  1.00  0.00     0.001 A 
HETATM   20  C   UNL     1       3.056  31.272  56.175  1.00  0.00     0.014 A 
ENDBRANCH  11  15
BRANCH  13  21
HETATM   21  C   UNL     1       7.519  31.498  59.817  1.00  0.00     0.058 A 
HETATM   22  C   UNL     1       8.922  31.453  59.755  1.00  0.00     0.031 A 
HETATM   23  C   UNL     1       9.691  31.938  60.813  1.00  0.00     0.002 A 
HETATM   24  C   UNL     1       9.068  32.469  61.942  1.00  0.00     0.000 A 
HETATM   25  C   UNL     1       7.677  32.515  62.013  1.00  0.00     0.002 A 
HETATM   26  C   UNL     1       6.900  32.031  60.956  1.00  0.00     0.031 A 
ENDBRANCH  13  21
ENDBRANCH   7  10
BRANCH   1  27
HETATM   27  C   UNL     1       7.885  27.917  55.895  1.00  0.00     0.270 C 
HETATM   28  O   UNL     1       8.181  27.077  56.729  1.00  0.00    -0.265 OA
BRANCH  27  29
HETATM   29  O   UNL     1       8.754  28.814  55.350  1.00  0.00    -0.321 OA
BRANCH  29  30
HETATM   30  C   UNL     1       9.337  29.763  56.259  1.00  0.00     0.174 C 
HETATM   31  C   UNL     1      10.756  29.364  56.619  1.00  0.00     0.034 C 
ENDBRANCH  29  30
ENDBRANCH  27  29
ENDBRANCH   1  27
BRANCH   2  32
HETATM   32  O   UNL     1       4.867  27.184  53.828  1.00  0.00    -0.363 OA
HETATM   33  H   UNL     1       4.847  26.563  53.077  1.00  0.00     0.213 HD
ENDBRANCH   2  32
BRANCH   2  34
HETATM   34  C   UNL     1       7.110  26.217  53.653  1.00  0.00     0.439 C 
HETATM   35  F   UNL     1       6.543  25.581  52.602  1.00  0.00    -0.166 F 
HETATM   36  F   UNL     1       7.960  27.140  53.162  1.00  0.00    -0.166 F 
HETATM   37  F   UNL     1       7.859  25.305  54.326  1.00  0.00    -0.166 F 
ENDBRANCH   2  34
TORSDOF 8
ENDMDL
MODEL 7
REMARK VINA RESULT:      -8.2      3.251      5.687
REMARK  8 active torsions:
REMARK  status: ('A' for Active; 'I' for Inactive)
REMARK    1  A    between atoms: C_2  and  O_3 
REMARK    2  A    between atoms: O_3  and  C_4 
REMARK    3  A    between atoms: C_4  and  C_5 
REMARK    4  A    between atoms: C_6  and  O_7 
REMARK    5  A    between atoms: C_6  and  C_8 
REMARK    6  A    between atoms: C_16  and  C_17 
REMARK    7  A    between atoms: C_18  and  C_19 
REMARK    8  A    between atoms: N_26  and  C_27 
ROOT
HETATM    1  C   UNL     1       5.763  28.564  51.516  1.00  0.00     0.177 C 
HETATM    2  C   UNL     1       5.146  29.870  51.012  1.00  0.00     0.250 C 
HETATM    3  N   UNL     1       4.210  30.448  51.960  1.00  0.00    -0.303 N 
HETATM    4  C   UNL     1       4.221  30.239  53.296  1.00  0.00     0.319 C 
HETATM    5  O   UNL     1       3.457  30.843  54.037  1.00  0.00    -0.247 OA
HETATM    6  N   UNL     1       5.094  29.319  53.763  1.00  0.00    -0.333 N 
HETATM    7  C   UNL     1       6.173  28.766  52.974  1.00  0.00     0.142 C 
HETATM    8  H   UNL     1       3.520  31.124  51.653  1.00  0.00     0.167 HD
HETATM    9  H   UNL     1       5.136  29.265  54.773  1.00  0.00     0.165 HD
ENDROOT
BRANCH   7  10
HETATM   10  C   UNL     1       6.695  27.538  53.658  1.00  0.00     0.015 A 
HETATM   11  C   UNL     1       7.248  27.407  54.968  1.00  0.00     0.097 A 
HETATM   12  N   UNL     1       7.571  26.133  55.228  1.00  0.00    -0.167 NA
HETATM   13  N   UNL     1       7.251  25.430  54.120  1.00  0.00    -0.244 N 
HETATM   14  C   UNL     1       6.706  26.246  53.160  1.00  0.00     0.130 A 
BRANCH  11  15
HETATM   15  C   UNL     1       7.446  28.427  55.999  1.00  0.00    -0.005 A 
HETATM   16  C   UNL     1       6.352  28.854  56.768  1.00  0.00     0.014 A 
HETATM   17  C   UNL     1       6.512  29.831  57.753  1.00  0.00     0.001 A 
HETATM   18  C   UNL     1       7.767  30.390  57.982  1.00  0.00     0.000 A 
HETATM   19  C   UNL     1       8.864  29.964  57.236  1.00  0.00     0.001 A 
HETATM   20  C   UNL     1       8.707  28.981  56.254  1.00  0.00     0.014 A 
ENDBRANCH  11  15
BRANCH  13  21
HETATM   21  C   UNL     1       7.478  24.026  54.053  1.00  0.00     0.058 A 
HETATM   22  C   UNL     1       7.423  23.263  55.230  1.00  0.00     0.031 A 
HETATM   23  C   UNL     1       7.638  21.884  55.188  1.00  0.00     0.002 A 
HETATM   24  C   UNL     1       7.913  21.258  53.974  1.00  0.00     0.000 A 
HETATM   25  C   UNL     1       7.973  22.009  52.801  1.00  0.00     0.002 A 
HETATM   26  C   UNL     1       7.756  23.390  52.836  1.00  0.00     0.031 A 
ENDBRANCH  13  21
ENDBRANCH   7  10
BRANCH   1  27
HETATM   27  C   UNL     1       4.819  27.398  51.335  1.00  0.00     0.270 C 
HETATM   28  O   UNL     1       3.796  27.213  51.974  1.00  0.00    -0.265 OA
BRANCH  27  29
HETATM   29  O   UNL     1       5.266  26.596  50.328  1.00  0.00    -0.321 OA
BRANCH  29  30
HETATM   30  C   UNL     1       4.255  25.945  49.541  1.00  0.00     0.174 C 
HETATM   31  C   UNL     1       4.474  26.202  48.061  1.00  0.00     0.034 C 
ENDBRANCH  29  30
ENDBRANCH  27  29
ENDBRANCH   1  27
BRANCH   2  32
HETATM   32  O   UNL     1       6.218  30.836  50.962  1.00  0.00    -0.363 OA
HETATM   33  H   UNL     1       6.372  31.012  50.015  1.00  0.00     0.213 HD
ENDBRANCH   2  32
BRANCH   2  34
HETATM   34  C   UNL     1       4.543  29.710  49.575  1.00  0.00     0.439 C 
HETATM   35  F   UNL     1       5.407  29.081  48.745  1.00  0.00    -0.166 F 
HETATM   36  F   UNL     1       3.383  29.025  49.553  1.00  0.00    -0.166 F 
HETATM   37  F   UNL     1       4.291  30.936  49.047  1.00  0.00    -0.166 F 
ENDBRANCH   2  34
TORSDOF 8
ENDMDL
MODEL 8
REMARK VINA RESULT:      -8.1      8.289     11.412
REMARK  8 active torsions:
REMARK  status: ('A' for Active; 'I' for Inactive)
REMARK    1  A    between atoms: C_2  and  O_3 
REMARK    2  A    between atoms: O_3  and  C_4 
REMARK    3  A    between atoms: C_4  and  C_5 
REMARK    4  A    between atoms: C_6  and  O_7 
REMARK    5  A    between atoms: C_6  and  C_8 
REMARK    6  A    between atoms: C_16  and  C_17 
REMARK    7  A    between atoms: C_18  and  C_19 
REMARK    8  A    between atoms: N_26  and  C_27 
ROOT
HETATM    1  C   UNL     1       4.820  34.727  62.702  1.00  0.00     0.177 C 
HETATM    2  C   UNL     1       4.412  34.999  64.151  1.00  0.00     0.250 C 
HETATM    3  N   UNL     1       3.005  34.734  64.394  1.00  0.00    -0.303 N 
HETATM    4  C   UNL     1       2.235  33.884  63.679  1.00  0.00     0.319 C 
HETATM    5  O   UNL     1       1.081  33.642  64.011  1.00  0.00    -0.247 OA
HETATM    6  N   UNL     1       2.791  33.338  62.574  1.00  0.00    -0.333 N 
HETATM    7  C   UNL     1       4.206  33.394  62.280  1.00  0.00     0.142 C 
HETATM    8  H   UNL     1       2.537  35.141  65.196  1.00  0.00     0.167 HD
HETATM    9  H   UNL     1       2.216  32.635  62.126  1.00  0.00     0.165 HD
ENDROOT
BRANCH   7  10
HETATM   10  C   UNL     1       4.417  33.031  60.840  1.00  0.00     0.015 A 
HETATM   11  C   UNL     1       5.596  32.537  60.202  1.00  0.00     0.097 A 
HETATM   12  N   UNL     1       5.375  32.299  58.902  1.00  0.00    -0.167 NA
HETATM   13  N   UNL     1       4.087  32.631  58.673  1.00  0.00    -0.244 N 
HETATM   14  C   UNL     1       3.477  33.062  59.825  1.00  0.00     0.130 A 
BRANCH  11  15
HETATM   15  C   UNL     1       6.909  32.241  60.778  1.00  0.00    -0.005 A 
HETATM   16  C   UNL     1       6.993  31.730  62.082  1.00  0.00     0.014 A 
HETATM   17  C   UNL     1       8.234  31.447  62.658  1.00  0.00     0.001 A 
HETATM   18  C   UNL     1       9.404  31.668  61.935  1.00  0.00     0.000 A 
HETATM   19  C   UNL     1       9.333  32.161  60.634  1.00  0.00     0.001 A 
HETATM   20  C   UNL     1       8.092  32.439  60.053  1.00  0.00     0.014 A 
ENDBRANCH  11  15
BRANCH  13  21
HETATM   21  C   UNL     1       3.520  32.509  57.373  1.00  0.00     0.058 A 
HETATM   22  C   UNL     1       3.141  33.668  56.675  1.00  0.00     0.031 A 
HETATM   23  C   UNL     1       2.587  33.573  55.398  1.00  0.00     0.002 A 
HETATM   24  C   UNL     1       2.403  32.323  54.808  1.00  0.00     0.000 A 
HETATM   25  C   UNL     1       2.774  31.168  55.495  1.00  0.00     0.002 A 
HETATM   26  C   UNL     1       3.331  31.256  56.774  1.00  0.00     0.031 A 
ENDBRANCH  13  21
ENDBRANCH   7  10
BRANCH   1  27
HETATM   27  C   UNL     1       4.422  35.865  61.791  1.00  0.00     0.270 C 
HETATM   28  O   UNL     1       3.275  36.185  61.522  1.00  0.00    -0.265 OA
BRANCH  27  29
HETATM   29  O   UNL     1       5.537  36.500  61.333  1.00  0.00    -0.321 OA
BRANCH  29  30
HETATM   30  C   UNL     1       5.382  37.891  61.005  1.00  0.00     0.174 C 
HETATM   31  C   UNL     1       6.423  38.734  61.719  1.00  0.00     0.034 C 
ENDBRANCH  29  30
ENDBRANCH  27  29
ENDBRANCH   1  27
BRANCH   2  32
HETATM   32  O   UNL     1       5.088  34.011  64.959  1.00  0.00    -0.363 OA
HETATM   33  H   UNL     1       6.026  34.051  64.697  1.00  0.00     0.213 HD
ENDBRANCH   2  32
BRANCH   2  34
HETATM   34  C   UNL     1       4.858  36.425  64.622  1.00  0.00     0.439 C 
HETATM   35  F   UNL     1       6.155  36.661  64.319  1.00  0.00    -0.166 F 
HETATM   36  F   UNL     1       4.125  37.420  64.084  1.00  0.00    -0.166 F 
HETATM   37  F   UNL     1       4.730  36.522  65.971  1.00  0.00    -0.166 F 
ENDBRANCH   2  34
TORSDOF 8
ENDMDL
MODEL 9
REMARK VINA RESULT:      -8.0      3.107      6.622
REMARK  8 active torsions:
REMARK  status: ('A' for Active; 'I' for Inactive)
REMARK    1  A    between atoms: C_2  and  O_3 
REMARK    2  A    between atoms: O_3  and  C_4 
REMARK    3  A    between atoms: C_4  and  C_5 
REMARK    4  A    between atoms: C_6  and  O_7 
REMARK    5  A    between atoms: C_6  and  C_8 
REMARK    6  A    between atoms: C_16  and  C_17 
REMARK    7  A    between atoms: C_18  and  C_19 
REMARK    8  A    between atoms: N_26  and  C_27 
ROOT
HETATM    1  C   UNL     1       6.019  25.948  55.486  1.00  0.00     0.177 C 
HETATM    2  C   UNL     1       6.768  25.357  56.682  1.00  0.00     0.250 C 
HETATM    3  N   UNL     1       7.570  26.344  57.382  1.00  0.00    -0.303 N 
HETATM    4  C   UNL     1       7.342  27.676  57.387  1.00  0.00     0.319 C 
HETATM    5  O   UNL     1       8.009  28.430  58.084  1.00  0.00    -0.247 OA
HETATM    6  N   UNL     1       6.365  28.131  56.572  1.00  0.00    -0.333 N 
HETATM    7  C   UNL     1       5.397  27.272  55.926  1.00  0.00     0.142 C 
HETATM    8  H   UNL     1       8.331  26.052  57.986  1.00  0.00     0.167 HD
HETATM    9  H   UNL     1       6.162  29.118  56.679  1.00  0.00     0.165 HD
ENDROOT
BRANCH   7  10
HETATM   10  C   UNL     1       4.717  28.042  54.832  1.00  0.00     0.015 A 
HETATM   11  C   UNL     1       4.226  29.384  54.851  1.00  0.00     0.097 A 
HETATM   12  N   UNL     1       3.710  29.723  53.662  1.00  0.00    -0.167 NA
HETATM   13  N   UNL     1       3.845  28.637  52.870  1.00  0.00    -0.244 N 
HETATM   14  C   UNL     1       4.462  27.612  53.542  1.00  0.00     0.130 A 
BRANCH  11  15
HETATM   15  C   UNL     1       4.262  30.371  55.931  1.00  0.00    -0.005 A 
HETATM   16  C   UNL     1       3.499  30.157  57.089  1.00  0.00     0.014 A 
HETATM   17  C   UNL     1       3.509  31.087  58.132  1.00  0.00     0.001 A 
HETATM   18  C   UNL     1       4.284  32.239  58.029  1.00  0.00     0.000 A 
HETATM   19  C   UNL     1       5.059  32.456  56.891  1.00  0.00     0.001 A 
HETATM   20  C   UNL     1       5.054  31.523  55.849  1.00  0.00     0.014 A 
ENDBRANCH  11  15
BRANCH  13  21
HETATM   21  C   UNL     1       3.383  28.652  51.524  1.00  0.00     0.058 A 
HETATM   22  C   UNL     1       4.177  28.078  50.517  1.00  0.00     0.031 A 
HETATM   23  C   UNL     1       3.743  28.077  49.191  1.00  0.00     0.002 A 
HETATM   24  C   UNL     1       2.518  28.651  48.857  1.00  0.00     0.000 A 
HETATM   25  C   UNL     1       1.725  29.226  49.850  1.00  0.00     0.002 A 
HETATM   26  C   UNL     1       2.153  29.229  51.180  1.00  0.00     0.031 A 
ENDBRANCH  13  21
ENDBRANCH   7  10
BRANCH   1  27
HETATM   27  C   UNL     1       6.923  26.101  54.286  1.00  0.00     0.270 C 
HETATM   28  O   UNL     1       7.839  26.901  54.191  1.00  0.00    -0.265 OA
BRANCH  27  29
HETATM   29  O   UNL     1       6.582  25.190  53.332  1.00  0.00    -0.321 OA
BRANCH  29  30
HETATM   30  C   UNL     1       7.630  24.789  52.434  1.00  0.00     0.174 C 
HETATM   31  C   UNL     1       7.959  23.318  52.609  1.00  0.00     0.034 C 
ENDBRANCH  29  30
ENDBRANCH  27  29
ENDBRANCH   1  27
BRANCH   2  32
HETATM   32  O   UNL     1       5.763  24.987  57.652  1.00  0.00    -0.363 OA
HETATM   33  H   UNL     1       6.192  25.070  58.523  1.00  0.00     0.213 HD
ENDBRANCH   2  32
BRANCH   2  34
HETATM   34  C   UNL     1       7.578  24.077  56.284  1.00  0.00     0.439 C 
HETATM   35  F   UNL     1       6.825  23.223  55.554  1.00  0.00    -0.166 F 
HETATM   36  F   UNL     1       8.692  24.347  55.575  1.00  0.00    -0.166 F 
HETATM   37  F   UNL     1       7.971  23.417  57.405  1.00  0.00    -0.166 F 
ENDBRANCH   2  34
TORSDOF 8
ENDMDL
MODEL 10
REMARK VINA RESULT:      -8.0      2.192      3.032
REMARK  8 active torsions:
REMARK  status: ('A' for Active; 'I' for Inactive)
REMARK    1  A    between atoms: C_2  and  O_3 
REMARK    2  A    between atoms: O_3  and  C_4 
REMARK    3  A    between atoms: C_4  and  C_5 
REMARK    4  A    between atoms: C_6  and  O_7 
REMARK    5  A    between atoms: C_6  and  C_8 
REMARK    6  A    between atoms: C_16  and  C_17 
REMARK    7  A    between atoms: C_18  and  C_19 
REMARK    8  A    between atoms: N_26  and  C_27 
ROOT
HETATM    1  C   UNL     1       6.218  28.964  56.966  1.00  0.00     0.177 C 
HETATM    2  C   UNL     1       5.751  30.256  57.639  1.00  0.00     0.250 C 
HETATM    3  N   UNL     1       5.273  31.242  56.686  1.00  0.00    -0.303 N 
HETATM    4  C   UNL     1       4.781  30.967  55.458  1.00  0.00     0.319 C 
HETATM    5  O   UNL     1       4.307  31.849  54.754  1.00  0.00    -0.247 OA
HETATM    6  N   UNL     1       4.861  29.683  55.041  1.00  0.00    -0.333 N 
HETATM    7  C   UNL     1       5.179  28.576  55.916  1.00  0.00     0.142 C 
HETATM    8  H   UNL     1       5.218  32.221  56.944  1.00  0.00     0.167 HD
HETATM    9  H   UNL     1       4.395  29.505  54.160  1.00  0.00     0.165 HD
ENDROOT
BRANCH   7  10
HETATM   10  C   UNL     1       5.543  27.385  55.079  1.00  0.00     0.015 A 
HETATM   11  C   UNL     1       5.376  27.191  53.674  1.00  0.00     0.097 A 
HETATM   12  N   UNL     1       5.859  26.001  53.293  1.00  0.00    -0.167 NA
HETATM   13  N   UNL     1       6.330  25.410  54.412  1.00  0.00    -0.244 N 
HETATM   14  C   UNL     1       6.168  26.226  55.504  1.00  0.00     0.130 A 
BRANCH  11  15
HETATM   15  C   UNL     1       4.818  28.099  52.671  1.00  0.00    -0.005 A 
HETATM   16  C   UNL     1       5.679  28.767  51.787  1.00  0.00     0.014 A 
HETATM   17  C   UNL     1       5.173  29.645  50.825  1.00  0.00     0.001 A 
HETATM   18  C   UNL     1       3.801  29.862  50.735  1.00  0.00     0.000 A 
HETATM   19  C   UNL     1       2.933  29.193  51.596  1.00  0.00     0.001 A 
HETATM   20  C   UNL     1       3.438  28.310  52.555  1.00  0.00     0.014 A 
ENDBRANCH  11  15
BRANCH  13  21
HETATM   21  C   UNL     1       6.910  24.111  54.366  1.00  0.00     0.058 A 
HETATM   22  C   UNL     1       7.255  23.556  53.122  1.00  0.00     0.031 A 
HETATM   23  C   UNL     1       7.829  22.285  53.052  1.00  0.00     0.002 A 
HETATM   24  C   UNL     1       8.059  21.558  54.219  1.00  0.00     0.000 A 
HETATM   25  C   UNL     1       7.717  22.101  55.457  1.00  0.00     0.002 A 
HETATM   26  C   UNL     1       7.144  23.374  55.534  1.00  0.00     0.031 A 
ENDBRANCH  13  21
ENDBRANCH   7  10
BRANCH   1  27
HETATM   27  C   UNL     1       7.605  29.112  56.385  1.00  0.00     0.270 C 
HETATM   28  O   UNL     1       7.882  29.732  55.371  1.00  0.00    -0.265 OA
BRANCH  27  29
HETATM   29  O   UNL     1       8.508  28.471  57.178  1.00  0.00    -0.321 OA
BRANCH  29  30
HETATM   30  C   UNL     1       9.894  28.700  56.873  1.00  0.00     0.174 C 
HETATM   31  C   UNL     1      10.414  29.923  57.607  1.00  0.00     0.034 C 
ENDBRANCH  29  30
ENDBRANCH  27  29
ENDBRANCH   1  27
BRANCH   2  32
HETATM   32  O   UNL     1       4.570  29.918  58.399  1.00  0.00    -0.363 OA
HETATM   33  H   UNL     1       4.486  28.948  58.340  1.00  0.00     0.213 HD
ENDBRANCH   2  32
BRANCH   2  34
HETATM   34  C   UNL     1       6.834  30.824  58.619  1.00  0.00     0.439 C 
HETATM   35  F   UNL     1       6.279  31.624  59.558  1.00  0.00    -0.166 F 
HETATM   36  F   UNL     1       7.532  29.865  59.259  1.00  0.00    -0.166 F 
HETATM   37  F   UNL     1       7.730  31.572  57.925  1.00  0.00    -0.166 F 
ENDBRANCH   2  34
TORSDOF 8
ENDMDL
