MODEL 1
REMARK VINA RESULT:      -9.1      0.000      0.000
REMARK  7 active torsions:
REMARK  status: ('A' for Active; 'I' for Inactive)
REMARK    1  A    between atoms: C_4  and  C_5 
REMARK    2  A    between atoms: C_7  and  C_8 
REMARK    3  A    between atoms: C_8  and  N_9 
REMARK       I    between atoms: N_9  and  C_10 
REMARK       I    between atoms: C_10  and  N_11 
REMARK    4  A    between atoms: N_11  and  C_12 
REMARK    5  A    between atoms: C_14  and  O_15 
REMARK    6  A    between atoms: O_15  and  C_16 
REMARK    7  A    between atoms: C_16  and  C_17 
ROOT
HETATM    1  N   UNL     1       6.041  27.947  55.155  1.00  0.00    -0.339 N 
HETATM    2  C   UNL     1       4.921  27.619  54.447  1.00  0.00     0.320 C 
HETATM    3  N   UNL     1       4.892  26.390  53.863  1.00  0.00    -0.309 N 
HETATM    4  O   UNL     1       3.931  28.343  54.383  1.00  0.00    -0.247 OA
HETATM    5  H   UNL     1       6.445  27.143  55.612  1.00  0.00     0.164 HD
HETATM    6  H   UNL     1       3.950  26.147  53.580  1.00  0.00     0.170 HD
ENDROOT
BRANCH   1   7
HETATM    7  C   UNL     1       6.048  29.180  55.913  1.00  0.00     0.162 C 
BRANCH   7   8
HETATM    8  C   UNL     1       7.304  29.441  56.710  1.00  0.00    -0.040 A 
HETATM    9  C   UNL     1       7.303  29.895  58.038  1.00  0.00     0.024 A 
HETATM   10  C   UNL     1       8.502  30.176  58.717  1.00  0.00     0.014 A 
HETATM   11  C   UNL     1       9.718  30.006  58.047  1.00  0.00     0.015 A 
HETATM   12  C   UNL     1       9.739  29.558  56.727  1.00  0.00     0.002 A 
HETATM   13  C   UNL     1       8.542  29.283  56.065  1.00  0.00     0.009 A 
BRANCH  10  14
HETATM   14  C   UNL     1       8.481  30.639  60.101  1.00  0.00     0.181 A 
HETATM   15  N   UNL     1       7.618  31.618  60.544  1.00  0.00    -0.212 NA
HETATM   16  C   UNL     1       7.917  31.750  61.818  1.00  0.00     0.118 A 
HETATM   17  C   UNL     1       7.289  32.648  62.809  1.00  0.00     0.093 C 
HETATM   18  N   UNL     1       8.937  30.898  62.122  1.00  0.00    -0.263 N 
HETATM   19  N   UNL     1       9.296  30.165  61.057  1.00  0.00    -0.152 NA
HETATM   20  H   UNL     1       9.422  30.765  63.003  1.00  0.00     0.190 HD
ENDBRANCH  10  14
ENDBRANCH   7   8
ENDBRANCH   1   7
BRANCH   3  21
HETATM   21  C   UNL     1       5.904  25.474  53.522  1.00  0.00     0.039 A 
HETATM   22  C   UNL     1       6.266  24.373  54.311  1.00  0.00     0.066 A 
HETATM   23  C   UNL     1       7.316  23.536  53.916  1.00  0.00     0.070 A 
HETATM   24  C   UNL     1       7.998  23.799  52.727  1.00  0.00     0.037 A 
HETATM   25  C   UNL     1       7.658  24.899  51.946  1.00  0.00     0.005 A 
HETATM   26  C   UNL     1       6.622  25.739  52.350  1.00  0.00     0.030 A 
BRANCH  23  27
HETATM   27  O   UNL     1       7.783  22.450  54.604  1.00  0.00    -0.349 OA
BRANCH  27  28
HETATM   28  C   UNL     1       8.916  21.764  54.061  1.00  0.00     0.207 C 
BRANCH  28  29
HETATM   29  C   UNL     1       8.499  20.345  53.707  1.00  0.00     0.248 C 
HETATM   30  F   UNL     1       8.276  20.252  52.365  1.00  0.00    -0.253 F 
ENDBRANCH  28  29
ENDBRANCH  27  28
ENDBRANCH  23  27
ENDBRANCH   3  21
TORSDOF 7
ENDMDL
MODEL 2
REMARK VINA RESULT:      -8.7      3.867      8.841
REMARK  7 active torsions:
REMARK  status: ('A' for Active; 'I' for Inactive)
REMARK    1  A    between atoms: C_4  and  C_5 
REMARK    2  A    between atoms: C_7  and  C_8 
REMARK    3  A    between atoms: C_8  and  N_9 
REMARK       I    between atoms: N_9  and  C_10 
REMARK       I    between atoms: C_10  and  N_11 
REMARK    4  A    between atoms: N_11  and  C_12 
REMARK    5  A    between atoms: C_14  and  O_15 
REMARK    6  A    between atoms: O_15  and  C_16 
REMARK    7  A    between atoms: C_16  and  C_17 
ROOT
HETATM    1  N   UNL     1       6.178  28.187  55.692  1.00  0.00    -0.339 N 
HETATM    2  C   UNL     1       6.042  27.678  56.951  1.00  0.00     0.320 C 
HETATM    3  N   UNL     1       6.793  28.244  57.935  1.00  0.00    -0.309 N 
HETATM    4  O   UNL     1       5.232  26.800  57.237  1.00  0.00    -0.247 OA
HETATM    5  H   UNL     1       6.355  29.181  55.707  1.00  0.00     0.164 HD
HETATM    6  H   UNL     1       6.450  27.976  58.850  1.00  0.00     0.170 HD
ENDROOT
BRANCH   1   7
HETATM    7  C   UNL     1       5.290  27.714  54.652  1.00  0.00     0.162 C 
BRANCH   7   8
HETATM    8  C   UNL     1       5.850  26.621  53.772  1.00  0.00    -0.040 A 
HETATM    9  C   UNL     1       6.430  25.443  54.268  1.00  0.00     0.024 A 
HETATM   10  C   UNL     1       6.987  24.482  53.406  1.00  0.00     0.014 A 
HETATM   11  C   UNL     1       6.966  24.712  52.026  1.00  0.00     0.015 A 
HETATM   12  C   UNL     1       6.395  25.877  51.515  1.00  0.00     0.002 A 
HETATM   13  C   UNL     1       5.846  26.823  52.382  1.00  0.00     0.009 A 
BRANCH  10  14
HETATM   14  C   UNL     1       7.579  23.259  53.939  1.00  0.00     0.181 A 
HETATM   15  N   UNL     1       7.303  22.791  55.206  1.00  0.00    -0.212 NA
HETATM   16  C   UNL     1       8.026  21.696  55.303  1.00  0.00     0.118 A 
HETATM   17  C   UNL     1       8.106  20.761  56.443  1.00  0.00     0.093 C 
HETATM   18  N   UNL     1       8.728  21.527  54.146  1.00  0.00    -0.263 N 
HETATM   19  N   UNL     1       8.443  22.490  53.257  1.00  0.00    -0.152 NA
HETATM   20  H   UNL     1       9.394  20.804  53.899  1.00  0.00     0.190 HD
ENDBRANCH  10  14
ENDBRANCH   7   8
ENDBRANCH   1   7
BRANCH   3  21
HETATM   21  C   UNL     1       7.957  29.033  57.910  1.00  0.00     0.039 A 
HETATM   22  C   UNL     1       8.097  30.250  58.590  1.00  0.00     0.066 A 
HETATM   23  C   UNL     1       9.278  30.993  58.475  1.00  0.00     0.070 A 
HETATM   24  C   UNL     1      10.321  30.511  57.681  1.00  0.00     0.037 A 
HETATM   25  C   UNL     1      10.185  29.313  56.987  1.00  0.00     0.005 A 
HETATM   26  C   UNL     1       9.002  28.584  57.093  1.00  0.00     0.030 A 
BRANCH  23  27
HETATM   27  O   UNL     1       9.531  32.202  59.063  1.00  0.00    -0.349 OA
BRANCH  27  28
HETATM   28  C   UNL     1       8.892  32.471  60.315  1.00  0.00     0.207 C 
BRANCH  28  29
HETATM   29  C   UNL     1       9.773  31.937  61.434  1.00  0.00     0.248 C 
HETATM   30  F   UNL     1       9.506  30.615  61.638  1.00  0.00    -0.253 F 
ENDBRANCH  28  29
ENDBRANCH  27  28
ENDBRANCH  23  27
ENDBRANCH   3  21
TORSDOF 7
ENDMDL
MODEL 3
REMARK VINA RESULT:      -8.4      4.893     10.154
REMARK  7 active torsions:
REMARK  status: ('A' for Active; 'I' for Inactive)
REMARK    1  A    between atoms: C_4  and  C_5 
REMARK    2  A    between atoms: C_7  and  C_8 
REMARK    3  A    between atoms: C_8  and  N_9 
REMARK       I    between atoms: N_9  and  C_10 
REMARK       I    between atoms: C_10  and  N_11 
REMARK    4  A    between atoms: N_11  and  C_12 
REMARK    5  A    between atoms: C_14  and  O_15 
REMARK    6  A    between atoms: O_15  and  C_16 
REMARK    7  A    between atoms: C_16  and  C_17 
ROOT
HETATM    1  N   UNL     1       8.993  30.132  58.573  1.00  0.00    -0.339 N 
HETATM    2  C   UNL     1       9.771  31.248  58.663  1.00  0.00     0.320 C 
HETATM    3  N   UNL     1       9.614  32.029  59.767  1.00  0.00    -0.309 N 
HETATM    4  O   UNL     1      10.641  31.529  57.843  1.00  0.00    -0.247 OA
HETATM    5  H   UNL     1       8.816  29.724  59.479  1.00  0.00     0.164 HD
HETATM    6  H   UNL     1      10.386  32.678  59.863  1.00  0.00     0.170 HD
ENDROOT
BRANCH   1   7
HETATM    7  C   UNL     1       9.236  29.200  57.492  1.00  0.00     0.162 C 
BRANCH   7   8
HETATM    8  C   UNL     1       8.166  28.153  57.288  1.00  0.00    -0.040 A 
HETATM    9  C   UNL     1       8.437  26.818  56.955  1.00  0.00     0.024 A 
HETATM   10  C   UNL     1       7.401  25.896  56.721  1.00  0.00     0.014 A 
HETATM   11  C   UNL     1       6.073  26.327  56.817  1.00  0.00     0.015 A 
HETATM   12  C   UNL     1       5.784  27.651  57.145  1.00  0.00     0.002 A 
HETATM   13  C   UNL     1       6.823  28.555  57.374  1.00  0.00     0.009 A 
BRANCH  10  14
HETATM   14  C   UNL     1       7.702  24.509  56.383  1.00  0.00     0.181 A 
HETATM   15  N   UNL     1       7.431  23.970  55.143  1.00  0.00    -0.212 NA
HETATM   16  C   UNL     1       7.834  22.723  55.245  1.00  0.00     0.118 A 
HETATM   17  C   UNL     1       7.810  21.674  54.205  1.00  0.00     0.093 C 
HETATM   18  N   UNL     1       8.307  22.513  56.507  1.00  0.00    -0.263 N 
HETATM   19  N   UNL     1       8.257  23.636  57.240  1.00  0.00    -0.152 NA
HETATM   20  H   UNL     1       8.667  21.663  56.925  1.00  0.00     0.190 HD
ENDBRANCH  10  14
ENDBRANCH   7   8
ENDBRANCH   1   7
BRANCH   3  21
HETATM   21  C   UNL     1       8.577  32.147  60.709  1.00  0.00     0.039 A 
HETATM   22  C   UNL     1       7.237  32.389  60.377  1.00  0.00     0.066 A 
HETATM   23  C   UNL     1       6.275  32.537  61.383  1.00  0.00     0.070 A 
HETATM   24  C   UNL     1       6.656  32.437  62.722  1.00  0.00     0.037 A 
HETATM   25  C   UNL     1       7.987  32.214  63.063  1.00  0.00     0.005 A 
HETATM   26  C   UNL     1       8.944  32.083  62.059  1.00  0.00     0.030 A 
BRANCH  23  27
HETATM   27  O   UNL     1       4.945  32.800  61.195  1.00  0.00    -0.349 OA
BRANCH  27  28
HETATM   28  C   UNL     1       4.075  32.626  62.317  1.00  0.00     0.207 C 
BRANCH  28  29
HETATM   29  C   UNL     1       3.019  33.720  62.286  1.00  0.00     0.248 C 
HETATM   30  F   UNL     1       2.229  33.630  63.394  1.00  0.00    -0.253 F 
ENDBRANCH  28  29
ENDBRANCH  27  28
ENDBRANCH  23  27
ENDBRANCH   3  21
TORSDOF 7
ENDMDL
MODEL 4
REMARK VINA RESULT:      -8.4      5.140     10.636
REMARK  7 active torsions:
REMARK  status: ('A' for Active; 'I' for Inactive)
REMARK    1  A    between atoms: C_4  and  C_5 
REMARK    2  A    between atoms: C_7  and  C_8 
REMARK    3  A    between atoms: C_8  and  N_9 
REMARK       I    between atoms: N_9  and  C_10 
REMARK       I    between atoms: C_10  and  N_11 
REMARK    4  A    between atoms: N_11  and  C_12 
REMARK    5  A    between atoms: C_14  and  O_15 
REMARK    6  A    between atoms: O_15  and  C_16 
REMARK    7  A    between atoms: C_16  and  C_17 
ROOT
HETATM    1  N   UNL     1       7.604  31.503  60.199  1.00  0.00    -0.339 N 
HETATM    2  C   UNL     1       8.356  30.830  61.116  1.00  0.00     0.320 C 
HETATM    3  N   UNL     1       8.004  30.959  62.424  1.00  0.00    -0.309 N 
HETATM    4  O   UNL     1       9.269  30.069  60.807  1.00  0.00    -0.247 OA
HETATM    5  H   UNL     1       6.635  31.558  60.475  1.00  0.00     0.164 HD
HETATM    6  H   UNL     1       8.450  30.247  62.990  1.00  0.00     0.170 HD
ENDROOT
BRANCH   1   7
HETATM    7  C   UNL     1       7.853  31.273  58.791  1.00  0.00     0.162 C 
BRANCH   7   8
HETATM    8  C   UNL     1       7.035  30.169  58.163  1.00  0.00    -0.040 A 
HETATM    9  C   UNL     1       7.488  28.848  58.022  1.00  0.00     0.024 A 
HETATM   10  C   UNL     1       6.708  27.871  57.379  1.00  0.00     0.014 A 
HETATM   11  C   UNL     1       5.457  28.230  56.863  1.00  0.00     0.015 A 
HETATM   12  C   UNL     1       4.992  29.538  56.992  1.00  0.00     0.002 A 
HETATM   13  C   UNL     1       5.777  30.498  57.632  1.00  0.00     0.009 A 
BRANCH  10  14
HETATM   14  C   UNL     1       7.192  26.500  57.248  1.00  0.00     0.181 A 
HETATM   15  N   UNL     1       6.832  25.682  56.199  1.00  0.00    -0.212 NA
HETATM   16  C   UNL     1       7.458  24.553  56.449  1.00  0.00     0.118 A 
HETATM   17  C   UNL     1       7.458  23.317  55.640  1.00  0.00     0.093 C 
HETATM   18  N   UNL     1       8.149  24.681  57.618  1.00  0.00    -0.263 N 
HETATM   19  N   UNL     1       8.016  25.914  58.131  1.00  0.00    -0.152 NA
HETATM   20  H   UNL     1       8.713  23.997  58.110  1.00  0.00     0.190 HD
ENDBRANCH  10  14
ENDBRANCH   7   8
ENDBRANCH   1   7
BRANCH   3  21
HETATM   21  C   UNL     1       7.233  31.913  63.113  1.00  0.00     0.039 A 
HETATM   22  C   UNL     1       5.838  32.008  63.025  1.00  0.00     0.066 A 
HETATM   23  C   UNL     1       5.153  33.017  63.711  1.00  0.00     0.070 A 
HETATM   24  C   UNL     1       5.868  33.927  64.492  1.00  0.00     0.037 A 
HETATM   25  C   UNL     1       7.255  33.853  64.572  1.00  0.00     0.005 A 
HETATM   26  C   UNL     1       7.934  32.856  63.875  1.00  0.00     0.030 A 
BRANCH  23  27
HETATM   27  O   UNL     1       3.802  33.234  63.689  1.00  0.00    -0.349 OA
BRANCH  27  28
HETATM   28  C   UNL     1       3.204  33.526  62.422  1.00  0.00     0.207 C 
BRANCH  28  29
HETATM   29  C   UNL     1       2.944  35.023  62.343  1.00  0.00     0.248 C 
HETATM   30  F   UNL     1       3.086  35.581  63.579  1.00  0.00    -0.253 F 
ENDBRANCH  28  29
ENDBRANCH  27  28
ENDBRANCH  23  27
ENDBRANCH   3  21
TORSDOF 7
ENDMDL
MODEL 5
REMARK VINA RESULT:      -8.2      3.709      6.457
REMARK  7 active torsions:
REMARK  status: ('A' for Active; 'I' for Inactive)
REMARK    1  A    between atoms: C_4  and  C_5 
REMARK    2  A    between atoms: C_7  and  C_8 
REMARK    3  A    between atoms: C_8  and  N_9 
REMARK       I    between atoms: N_9  and  C_10 
REMARK       I    between atoms: C_10  and  N_11 
REMARK    4  A    between atoms: N_11  and  C_12 
REMARK    5  A    between atoms: C_14  and  O_15 
REMARK    6  A    between atoms: O_15  and  C_16 
REMARK    7  A    between atoms: C_16  and  C_17 
ROOT
HETATM    1  N   UNL     1       8.011  30.829  60.484  1.00  0.00    -0.339 N 
HETATM    2  C   UNL     1       8.474  31.379  59.325  1.00  0.00     0.320 C 
HETATM    3  N   UNL     1       8.027  30.839  58.159  1.00  0.00    -0.309 N 
HETATM    4  O   UNL     1       9.202  32.368  59.295  1.00  0.00    -0.247 OA
HETATM    5  H   UNL     1       7.060  30.502  60.391  1.00  0.00     0.164 HD
HETATM    6  H   UNL     1       8.223  31.455  57.378  1.00  0.00     0.170 HD
ENDROOT
BRANCH   1   7
HETATM    7  C   UNL     1       8.344  31.468  61.739  1.00  0.00     0.162 C 
BRANCH   7   8
HETATM    8  C   UNL     1       7.295  32.409  62.284  1.00  0.00    -0.040 A 
HETATM    9  C   UNL     1       7.115  32.666  63.652  1.00  0.00     0.024 A 
HETATM   10  C   UNL     1       6.086  33.508  64.110  1.00  0.00     0.014 A 
HETATM   11  C   UNL     1       5.222  34.094  63.178  1.00  0.00     0.015 A 
HETATM   12  C   UNL     1       5.384  33.848  61.815  1.00  0.00     0.002 A 
HETATM   13  C   UNL     1       6.409  33.010  61.375  1.00  0.00     0.009 A 
BRANCH  10  14
HETATM   14  C   UNL     1       5.919  33.771  65.535  1.00  0.00     0.181 A 
HETATM   15  N   UNL     1       6.979  34.064  66.367  1.00  0.00    -0.212 NA
HETATM   16  C   UNL     1       6.422  34.222  67.547  1.00  0.00     0.118 A 
HETATM   17  C   UNL     1       7.080  34.575  68.821  1.00  0.00     0.093 C 
HETATM   18  N   UNL     1       5.079  34.008  67.433  1.00  0.00    -0.263 N 
HETATM   19  N   UNL     1       4.733  33.745  66.164  1.00  0.00    -0.152 NA
HETATM   20  H   UNL     1       4.363  34.024  68.150  1.00  0.00     0.190 HD
ENDBRANCH  10  14
ENDBRANCH   7   8
ENDBRANCH   1   7
BRANCH   3  21
HETATM   21  C   UNL     1       7.443  29.599  57.845  1.00  0.00     0.039 A 
HETATM   22  C   UNL     1       8.154  28.393  57.764  1.00  0.00     0.066 A 
HETATM   23  C   UNL     1       7.500  27.210  57.402  1.00  0.00     0.070 A 
HETATM   24  C   UNL     1       6.131  27.235  57.128  1.00  0.00     0.037 A 
HETATM   25  C   UNL     1       5.419  28.429  57.189  1.00  0.00     0.005 A 
HETATM   26  C   UNL     1       6.077  29.608  57.535  1.00  0.00     0.030 A 
BRANCH  23  27
HETATM   27  O   UNL     1       8.079  25.979  57.261  1.00  0.00    -0.349 OA
BRANCH  27  28
HETATM   28  C   UNL     1       7.319  24.966  56.596  1.00  0.00     0.207 C 
BRANCH  28  29
HETATM   29  C   UNL     1       8.282  24.001  55.922  1.00  0.00     0.248 C 
HETATM   30  F   UNL     1       8.404  24.319  54.601  1.00  0.00    -0.253 F 
ENDBRANCH  28  29
ENDBRANCH  27  28
ENDBRANCH  23  27
ENDBRANCH   3  21
TORSDOF 7
ENDMDL
MODEL 6
REMARK VINA RESULT:      -8.0      4.885      9.338
REMARK  7 active torsions:
REMARK  status: ('A' for Active; 'I' for Inactive)
REMARK    1  A    between atoms: C_4  and  C_5 
REMARK    2  A    between atoms: C_7  and  C_8 
REMARK    3  A    between atoms: C_8  and  N_9 
REMARK       I    between atoms: N_9  and  C_10 
REMARK       I    between atoms: C_10  and  N_11 
REMARK    4  A    between atoms: N_11  and  C_12 
REMARK    5  A    between atoms: C_14  and  O_15 
REMARK    6  A    between atoms: O_15  and  C_16 
REMARK    7  A    between atoms: C_16  and  C_17 
ROOT
HETATM    1  N   UNL     1       5.634  29.018  56.810  1.00  0.00    -0.339 N 
HETATM    2  C   UNL     1       6.259  27.858  57.162  1.00  0.00     0.320 C 
HETATM    3  N   UNL     1       7.473  27.965  57.768  1.00  0.00    -0.309 N 
HETATM    4  O   UNL     1       5.747  26.750  57.024  1.00  0.00    -0.247 OA
HETATM    5  H   UNL     1       5.825  29.761  57.466  1.00  0.00     0.164 HD
HETATM    6  H   UNL     1       7.737  27.089  58.204  1.00  0.00     0.170 HD
ENDROOT
BRANCH   1   7
HETATM    7  C   UNL     1       4.280  28.952  56.302  1.00  0.00     0.162 C 
BRANCH   7   8
HETATM    8  C   UNL     1       4.122  29.289  54.837  1.00  0.00    -0.040 A 
HETATM    9  C   UNL     1       4.467  28.415  53.796  1.00  0.00     0.024 A 
HETATM   10  C   UNL     1       4.353  28.800  52.448  1.00  0.00     0.014 A 
HETATM   11  C   UNL     1       3.891  30.086  52.145  1.00  0.00     0.015 A 
HETATM   12  C   UNL     1       3.546  30.969  53.167  1.00  0.00     0.002 A 
HETATM   13  C   UNL     1       3.665  30.574  54.500  1.00  0.00     0.009 A 
BRANCH  10  14
HETATM   14  C   UNL     1       4.709  27.875  51.377  1.00  0.00     0.181 A 
HETATM   15  N   UNL     1       4.100  27.899  50.141  1.00  0.00    -0.212 NA
HETATM   16  C   UNL     1       4.685  26.923  49.481  1.00  0.00     0.118 A 
HETATM   17  C   UNL     1       4.446  26.501  48.086  1.00  0.00     0.093 C 
HETATM   18  N   UNL     1       5.595  26.321  50.299  1.00  0.00    -0.263 N 
HETATM   19  N   UNL     1       5.647  26.921  51.497  1.00  0.00    -0.152 NA
HETATM   20  H   UNL     1       6.196  25.525  50.115  1.00  0.00     0.190 HD
ENDBRANCH  10  14
ENDBRANCH   7   8
ENDBRANCH   1   7
BRANCH   3  21
HETATM   21  C   UNL     1       8.421  29.002  57.824  1.00  0.00     0.039 A 
HETATM   22  C   UNL     1       8.264  30.171  58.582  1.00  0.00     0.066 A 
HETATM   23  C   UNL     1       9.240  31.173  58.545  1.00  0.00     0.070 A 
HETATM   24  C   UNL     1      10.376  31.001  57.752  1.00  0.00     0.037 A 
HETATM   25  C   UNL     1      10.533  29.853  56.982  1.00  0.00     0.005 A 
HETATM   26  C   UNL     1       9.552  28.863  57.010  1.00  0.00     0.030 A 
BRANCH  23  27
HETATM   27  O   UNL     1       9.196  32.366  59.214  1.00  0.00    -0.349 OA
BRANCH  27  28
HETATM   28  C   UNL     1       8.437  32.414  60.426  1.00  0.00     0.207 C 
BRANCH  28  29
HETATM   29  C   UNL     1       9.286  31.848  61.552  1.00  0.00     0.248 C 
HETATM   30  F   UNL     1       8.867  32.358  62.746  1.00  0.00    -0.253 F 
ENDBRANCH  28  29
ENDBRANCH  27  28
ENDBRANCH  23  27
ENDBRANCH   3  21
TORSDOF 7
ENDMDL
MODEL 7
REMARK VINA RESULT:      -8.0      1.527      2.425
REMARK  7 active torsions:
REMARK  status: ('A' for Active; 'I' for Inactive)
REMARK    1  A    between atoms: C_4  and  C_5 
REMARK    2  A    between atoms: C_7  and  C_8 
REMARK    3  A    between atoms: C_8  and  N_9 
REMARK       I    between atoms: N_9  and  C_10 
REMARK       I    between atoms: C_10  and  N_11 
REMARK    4  A    between atoms: N_11  and  C_12 
REMARK    5  A    between atoms: C_14  and  O_15 
REMARK    6  A    between atoms: O_15  and  C_16 
REMARK    7  A    between atoms: C_16  and  C_17 
ROOT
HETATM    1  N   UNL     1       5.193  28.308  53.718  1.00  0.00    -0.339 N 
HETATM    2  C   UNL     1       4.155  27.560  53.244  1.00  0.00     0.320 C 
HETATM    3  N   UNL     1       4.359  26.220  53.123  1.00  0.00    -0.309 N 
HETATM    4  O   UNL     1       3.046  28.027  53.001  1.00  0.00    -0.247 OA
HETATM    5  H   UNL     1       5.742  27.801  54.396  1.00  0.00     0.164 HD
HETATM    6  H   UNL     1       3.480  25.730  53.005  1.00  0.00     0.170 HD
ENDROOT
BRANCH   1   7
HETATM    7  C   UNL     1       4.966  29.710  54.002  1.00  0.00     0.162 C 
BRANCH   7   8
HETATM    8  C   UNL     1       4.990  30.085  55.465  1.00  0.00    -0.040 A 
HETATM    9  C   UNL     1       6.166  30.187  56.224  1.00  0.00     0.024 A 
HETATM   10  C   UNL     1       6.127  30.485  57.598  1.00  0.00     0.014 A 
HETATM   11  C   UNL     1       4.888  30.676  58.218  1.00  0.00     0.015 A 
HETATM   12  C   UNL     1       3.708  30.575  57.481  1.00  0.00     0.002 A 
HETATM   13  C   UNL     1       3.761  30.278  56.118  1.00  0.00     0.009 A 
BRANCH  10  14
HETATM   14  C   UNL     1       7.361  30.596  58.369  1.00  0.00     0.181 A 
HETATM   15  N   UNL     1       7.416  31.218  59.599  1.00  0.00    -0.212 NA
HETATM   16  C   UNL     1       8.679  31.115  59.950  1.00  0.00     0.118 A 
HETATM   17  C   UNL     1       9.315  31.587  61.196  1.00  0.00     0.093 C 
HETATM   18  N   UNL     1       9.362  30.475  58.957  1.00  0.00    -0.263 N 
HETATM   19  N   UNL     1       8.545  30.114  57.956  1.00  0.00    -0.152 NA
HETATM   20  H   UNL     1      10.350  30.256  58.895  1.00  0.00     0.190 HD
ENDBRANCH  10  14
ENDBRANCH   7   8
ENDBRANCH   1   7
BRANCH   3  21
HETATM   21  C   UNL     1       5.526  25.437  53.051  1.00  0.00     0.039 A 
HETATM   22  C   UNL     1       5.861  24.439  53.977  1.00  0.00     0.066 A 
HETATM   23  C   UNL     1       7.065  23.737  53.854  1.00  0.00     0.070 A 
HETATM   24  C   UNL     1       7.931  24.032  52.799  1.00  0.00     0.037 A 
HETATM   25  C   UNL     1       7.617  25.033  51.885  1.00  0.00     0.005 A 
HETATM   26  C   UNL     1       6.423  25.740  52.020  1.00  0.00     0.030 A 
BRANCH  23  27
HETATM   27  O   UNL     1       7.520  22.762  54.699  1.00  0.00    -0.349 OA
BRANCH  27  28
HETATM   28  C   UNL     1       8.510  21.862  54.193  1.00  0.00     0.207 C 
BRANCH  28  29
HETATM   29  C   UNL     1       7.805  20.687  53.533  1.00  0.00     0.248 C 
HETATM   30  F   UNL     1       8.636  20.106  52.620  1.00  0.00    -0.253 F 
ENDBRANCH  28  29
ENDBRANCH  27  28
ENDBRANCH  23  27
ENDBRANCH   3  21
TORSDOF 7
ENDMDL
MODEL 8
REMARK VINA RESULT:      -7.9      3.537      6.543
REMARK  7 active torsions:
REMARK  status: ('A' for Active; 'I' for Inactive)
REMARK    1  A    between atoms: C_4  and  C_5 
REMARK    2  A    between atoms: C_7  and  C_8 
REMARK    3  A    between atoms: C_8  and  N_9 
REMARK       I    between atoms: N_9  and  C_10 
REMARK       I    between atoms: C_10  and  N_11 
REMARK    4  A    between atoms: N_11  and  C_12 
REMARK    5  A    between atoms: C_14  and  O_15 
REMARK    6  A    between atoms: O_15  and  C_16 
REMARK    7  A    between atoms: C_16  and  C_17 
ROOT
HETATM    1  N   UNL     1       8.003  30.809  60.542  1.00  0.00    -0.339 N 
HETATM    2  C   UNL     1       8.423  31.421  59.398  1.00  0.00     0.320 C 
HETATM    3  N   UNL     1       7.832  31.038  58.234  1.00  0.00    -0.309 N 
HETATM    4  O   UNL     1       9.241  32.338  59.388  1.00  0.00    -0.247 OA
HETATM    5  H   UNL     1       7.020  30.582  60.506  1.00  0.00     0.164 HD
HETATM    6  H   UNL     1       8.025  31.703  57.494  1.00  0.00     0.170 HD
ENDROOT
BRANCH   1   7
HETATM    7  C   UNL     1       8.499  31.294  61.812  1.00  0.00     0.162 C 
BRANCH   7   8
HETATM    8  C   UNL     1       7.613  32.299  62.511  1.00  0.00    -0.040 A 
HETATM    9  C   UNL     1       6.494  32.899  61.913  1.00  0.00     0.024 A 
HETATM   10  C   UNL     1       5.735  33.871  62.588  1.00  0.00     0.014 A 
HETATM   11  C   UNL     1       6.113  34.250  63.881  1.00  0.00     0.015 A 
HETATM   12  C   UNL     1       7.223  33.667  64.490  1.00  0.00     0.002 A 
HETATM   13  C   UNL     1       7.967  32.704  63.808  1.00  0.00     0.009 A 
BRANCH  10  14
HETATM   14  C   UNL     1       4.570  34.478  61.953  1.00  0.00     0.181 A 
HETATM   15  N   UNL     1       3.308  33.928  62.036  1.00  0.00    -0.212 NA
HETATM   16  C   UNL     1       2.557  34.753  61.339  1.00  0.00     0.118 A 
HETATM   17  C   UNL     1       1.101  34.676  61.104  1.00  0.00     0.093 C 
HETATM   18  N   UNL     1       3.344  35.749  60.838  1.00  0.00    -0.263 N 
HETATM   19  N   UNL     1       4.618  35.611  61.234  1.00  0.00    -0.152 NA
HETATM   20  H   UNL     1       3.091  36.528  60.242  1.00  0.00     0.190 HD
ENDBRANCH  10  14
ENDBRANCH   7   8
ENDBRANCH   1   7
BRANCH   3  21
HETATM   21  C   UNL     1       7.104  29.891  57.868  1.00  0.00     0.039 A 
HETATM   22  C   UNL     1       7.659  28.609  57.759  1.00  0.00     0.066 A 
HETATM   23  C   UNL     1       6.870  27.530  57.345  1.00  0.00     0.070 A 
HETATM   24  C   UNL     1       5.521  27.736  57.048  1.00  0.00     0.037 A 
HETATM   25  C   UNL     1       4.965  29.008  57.136  1.00  0.00     0.005 A 
HETATM   26  C   UNL     1       5.758  30.083  57.533  1.00  0.00     0.030 A 
BRANCH  23  27
HETATM   27  O   UNL     1       7.293  26.240  57.174  1.00  0.00    -0.349 OA
BRANCH  27  28
HETATM   28  C   UNL     1       7.419  25.762  55.831  1.00  0.00     0.207 C 
BRANCH  28  29
HETATM   29  C   UNL     1       7.954  24.339  55.872  1.00  0.00     0.248 C 
HETATM   30  F   UNL     1       6.914  23.457  55.910  1.00  0.00    -0.253 F 
ENDBRANCH  28  29
ENDBRANCH  27  28
ENDBRANCH  23  27
ENDBRANCH   3  21
TORSDOF 7
ENDMDL
MODEL 9
REMARK VINA RESULT:      -7.9      4.715     10.162
REMARK  7 active torsions:
REMARK  status: ('A' for Active; 'I' for Inactive)
REMARK    1  A    between atoms: C_4  and  C_5 
REMARK    2  A    between atoms: C_7  and  C_8 
REMARK    3  A    between atoms: C_8  and  N_9 
REMARK       I    between atoms: N_9  and  C_10 
REMARK       I    between atoms: C_10  and  N_11 
REMARK    4  A    between atoms: N_11  and  C_12 
REMARK    5  A    between atoms: C_14  and  O_15 
REMARK    6  A    between atoms: O_15  and  C_16 
REMARK    7  A    between atoms: C_16  and  C_17 
ROOT
HETATM    1  N   UNL     1       7.816  29.546  57.083  1.00  0.00    -0.339 N 
HETATM    2  C   UNL     1       9.063  29.696  57.616  1.00  0.00     0.320 C 
HETATM    3  N   UNL     1       9.146  30.220  58.869  1.00  0.00    -0.309 N 
HETATM    4  O   UNL     1      10.085  29.315  57.050  1.00  0.00    -0.247 OA
HETATM    5  H   UNL     1       7.132  29.318  57.789  1.00  0.00     0.164 HD
HETATM    6  H   UNL     1      10.065  30.065  59.265  1.00  0.00     0.170 HD
ENDROOT
BRANCH   1   7
HETATM    7  C   UNL     1       7.679  28.856  55.818  1.00  0.00     0.162 C 
BRANCH   7   8
HETATM    8  C   UNL     1       7.101  27.463  55.901  1.00  0.00    -0.040 A 
HETATM    9  C   UNL     1       7.493  26.406  55.064  1.00  0.00     0.024 A 
HETATM   10  C   UNL     1       6.883  25.142  55.146  1.00  0.00     0.014 A 
HETATM   11  C   UNL     1       5.858  24.941  56.077  1.00  0.00     0.015 A 
HETATM   12  C   UNL     1       5.453  25.979  56.915  1.00  0.00     0.002 A 
HETATM   13  C   UNL     1       6.068  27.229  56.823  1.00  0.00     0.009 A 
BRANCH  10  14
HETATM   14  C   UNL     1       7.309  24.053  54.273  1.00  0.00     0.181 A 
HETATM   15  N   UNL     1       7.367  22.741  54.695  1.00  0.00    -0.212 NA
HETATM   16  C   UNL     1       7.797  22.087  53.639  1.00  0.00     0.118 A 
HETATM   17  C   UNL     1       8.026  20.635  53.503  1.00  0.00     0.093 C 
HETATM   18  N   UNL     1       8.012  22.977  52.627  1.00  0.00    -0.263 N 
HETATM   19  N   UNL     1       7.687  24.225  52.996  1.00  0.00    -0.152 NA
HETATM   20  H   UNL     1       8.366  22.812  51.692  1.00  0.00     0.190 HD
ENDBRANCH  10  14
ENDBRANCH   7   8
ENDBRANCH   1   7
BRANCH   3  21
HETATM   21  C   UNL     1       8.250  30.976  59.645  1.00  0.00     0.039 A 
HETATM   22  C   UNL     1       8.277  31.032  61.046  1.00  0.00     0.066 A 
HETATM   23  C   UNL     1       7.318  31.777  61.742  1.00  0.00     0.070 A 
HETATM   24  C   UNL     1       6.336  32.471  61.033  1.00  0.00     0.037 A 
HETATM   25  C   UNL     1       6.289  32.408  59.644  1.00  0.00     0.005 A 
HETATM   26  C   UNL     1       7.237  31.653  58.955  1.00  0.00     0.030 A 
BRANCH  23  27
HETATM   27  O   UNL     1       7.218  31.892  63.101  1.00  0.00    -0.349 OA
BRANCH  27  28
HETATM   28  C   UNL     1       6.149  32.692  63.617  1.00  0.00     0.207 C 
BRANCH  28  29
HETATM   29  C   UNL     1       6.735  33.739  64.552  1.00  0.00     0.248 C 
HETATM   30  F   UNL     1       8.091  33.599  64.607  1.00  0.00    -0.253 F 
ENDBRANCH  28  29
ENDBRANCH  27  28
ENDBRANCH  23  27
ENDBRANCH   3  21
TORSDOF 7
ENDMDL
MODEL 10
REMARK VINA RESULT:      -7.9      5.964      8.824
REMARK  7 active torsions:
REMARK  status: ('A' for Active; 'I' for Inactive)
REMARK    1  A    between atoms: C_4  and  C_5 
REMARK    2  A    between atoms: C_7  and  C_8 
REMARK    3  A    between atoms: C_8  and  N_9 
REMARK       I    between atoms: N_9  and  C_10 
REMARK       I    between atoms: C_10  and  N_11 
REMARK    4  A    between atoms: N_11  and  C_12 
REMARK    5  A    between atoms: C_14  and  O_15 
REMARK    6  A    between atoms: O_15  and  C_16 
REMARK    7  A    between atoms: C_16  and  C_17 
ROOT
HETATM    1  N   UNL     1       7.406  31.059  60.634  1.00  0.00    -0.339 N 
HETATM    2  C   UNL     1       8.263  30.819  59.601  1.00  0.00     0.320 C 
HETATM    3  N   UNL     1       7.737  30.805  58.346  1.00  0.00    -0.309 N 
HETATM    4  O   UNL     1       9.476  30.693  59.749  1.00  0.00    -0.247 OA
HETATM    5  H   UNL     1       6.670  31.697  60.370  1.00  0.00     0.164 HD
HETATM    6  H   UNL     1       8.468  30.866  57.647  1.00  0.00     0.170 HD
ENDROOT
BRANCH   1   7
HETATM    7  C   UNL     1       7.951  31.230  61.964  1.00  0.00     0.162 C 
BRANCH   7   8
HETATM    8  C   UNL     1       7.189  32.182  62.857  1.00  0.00    -0.040 A 
HETATM    9  C   UNL     1       5.852  32.549  62.643  1.00  0.00     0.024 A 
HETATM   10  C   UNL     1       5.207  33.483  63.472  1.00  0.00     0.014 A 
HETATM   11  C   UNL     1       5.920  34.062  64.528  1.00  0.00     0.015 A 
HETATM   12  C   UNL     1       7.251  33.711  64.754  1.00  0.00     0.002 A 
HETATM   13  C   UNL     1       7.878  32.783  63.923  1.00  0.00     0.009 A 
BRANCH  10  14
HETATM   14  C   UNL     1       3.812  33.846  63.239  1.00  0.00     0.181 A 
HETATM   15  N   UNL     1       3.307  34.085  61.979  1.00  0.00    -0.212 NA
HETATM   16  C   UNL     1       2.045  34.385  62.195  1.00  0.00     0.118 A 
HETATM   17  C   UNL     1       1.006  34.710  61.197  1.00  0.00     0.093 C 
HETATM   18  N   UNL     1       1.807  34.349  63.538  1.00  0.00    -0.263 N 
HETATM   19  N   UNL     1       2.905  33.986  64.219  1.00  0.00    -0.152 NA
HETATM   20  H   UNL     1       0.953  34.552  64.045  1.00  0.00     0.190 HD
ENDBRANCH  10  14
ENDBRANCH   7   8
ENDBRANCH   1   7
BRANCH   3  21
HETATM   21  C   UNL     1       6.425  30.643  57.866  1.00  0.00     0.039 A 
HETATM   22  C   UNL     1       5.435  31.633  57.935  1.00  0.00     0.066 A 
HETATM   23  C   UNL     1       4.140  31.371  57.472  1.00  0.00     0.070 A 
HETATM   24  C   UNL     1       3.840  30.119  56.933  1.00  0.00     0.037 A 
HETATM   25  C   UNL     1       4.811  29.124  56.876  1.00  0.00     0.005 A 
HETATM   26  C   UNL     1       6.095  29.383  57.352  1.00  0.00     0.030 A 
BRANCH  23  27
HETATM   27  O   UNL     1       3.081  32.237  57.506  1.00  0.00    -0.349 OA
BRANCH  27  28
HETATM   28  C   UNL     1       3.300  33.564  57.017  1.00  0.00     0.207 C 
BRANCH  28  29
HETATM   29  C   UNL     1       3.047  34.546  58.150  1.00  0.00     0.248 C 
HETATM   30  F   UNL     1       1.920  35.268  57.891  1.00  0.00    -0.253 F 
ENDBRANCH  28  29
ENDBRANCH  27  28
ENDBRANCH  23  27
ENDBRANCH   3  21
TORSDOF 7
ENDMDL
