MODEL 1
REMARK VINA RESULT:     -10.0      0.000      0.000
REMARK  8 active torsions:
REMARK  status: ('A' for Active; 'I' for Inactive)
REMARK    1  A    between atoms: C_7  and  C_8 
REMARK    2  A    between atoms: C_8  and  O_9 
REMARK    3  A    between atoms: O_9  and  C_10 
REMARK    4  A    between atoms: C_12  and  C_13 
REMARK       I    between atoms: C_13  and  N_14 
REMARK    5  A    between atoms: N_14  and  C_15 
REMARK    6  A    between atoms: C_15  and  C_16 
REMARK    7  A    between atoms: C_17  and  C_18 
REMARK    8  A    between atoms: C_18  and  N_19 
ROOT
HETATM    1  C   UNL     1       7.474  27.795  57.393  1.00  0.00     0.252 C 
HETATM    2  N   UNL     1       7.951  26.570  56.958  1.00  0.00    -0.353 N 
HETATM    3  O   UNL     1       6.281  28.012  57.570  1.00  0.00    -0.268 OA
HETATM    4  H   UNL     1       8.900  26.544  56.605  1.00  0.00     0.163 HD
ENDROOT
BRANCH   1   5
HETATM    5  C   UNL     1       8.485  28.869  57.548  1.00  0.00     0.034 A 
HETATM    6  C   UNL     1       8.141  30.001  58.294  1.00  0.00     0.053 A 
HETATM    7  C   UNL     1       9.036  31.068  58.417  1.00  0.00     0.070 A 
HETATM    8  C   UNL     1      10.299  30.973  57.829  1.00  0.00     0.037 A 
HETATM    9  C   UNL     1      10.652  29.831  57.101  1.00  0.00     0.004 A 
HETATM   10  C   UNL     1       9.746  28.781  56.951  1.00  0.00     0.017 A 
BRANCH   7  11
HETATM   11  O   UNL     1       8.556  32.132  59.127  1.00  0.00    -0.346 OA
BRANCH  11  12
HETATM   12  C   UNL     1       7.328  31.955  59.837  1.00  0.00     0.219 C 
BRANCH  12  13
HETATM   13  C   UNL     1       7.540  32.171  61.292  1.00  0.00     0.024 A 
HETATM   14  C   UNL     1       6.931  33.129  62.147  1.00  0.00     0.069 A 
HETATM   15  C   UNL     1       5.928  34.165  61.806  1.00  0.00     0.073 C 
HETATM   16  N   UNL     1       7.370  33.012  63.405  1.00  0.00    -0.133 NA
HETATM   17  O   UNL     1       8.288  31.982  63.391  1.00  0.00    -0.217 OA
HETATM   18  C   UNL     1       8.390  31.484  62.132  1.00  0.00     0.085 A 
HETATM   19  C   UNL     1       9.343  30.374  61.942  1.00  0.00     0.079 C 
ENDBRANCH  12  13
ENDBRANCH  11  12
ENDBRANCH   7  11
ENDBRANCH   1   5
BRANCH   2  20
HETATM   20  C   UNL     1       7.002  25.635  56.409  1.00  0.00     0.162 C 
BRANCH  20  21
HETATM   21  C   UNL     1       7.194  25.434  54.927  1.00  0.00    -0.033 A 
HETATM   22  C   UNL     1       7.970  24.393  54.367  1.00  0.00    -0.025 A 
HETATM   23  C   UNL     1       8.113  24.331  52.965  1.00  0.00     0.009 A 
HETATM   24  C   UNL     1       7.492  25.261  52.132  1.00  0.00     0.001 A 
HETATM   25  C   UNL     1       6.717  26.273  52.683  1.00  0.00     0.001 A 
HETATM   26  C   UNL     1       6.571  26.359  54.065  1.00  0.00     0.009 A 
BRANCH  22  27
HETATM   27  C   UNL     1       8.641  23.322  55.197  1.00  0.00     0.274 C 
BRANCH  27  28
HETATM   28  N   UNL     1       7.785  22.093  55.424  1.00  0.00    -0.067 N 
HETATM   29  H   UNL     1       6.818  22.418  55.537  1.00  0.00     0.280 HD
HETATM   30  C   UNL     1       8.170  21.323  56.662  1.00  0.00     0.235 C 
HETATM   31  C   UNL     1       9.232  20.365  56.169  1.00  0.00     0.029 C 
HETATM   32  C   UNL     1       8.839  20.033  54.738  1.00  0.00     0.029 C 
HETATM   33  C   UNL     1       7.807  21.069  54.317  1.00  0.00     0.235 C 
ENDBRANCH  27  28
ENDBRANCH  22  27
ENDBRANCH  20  21
ENDBRANCH   2  20
TORSDOF 8
ENDMDL
MODEL 2
REMARK VINA RESULT:      -9.9      2.447      9.670
REMARK  8 active torsions:
REMARK  status: ('A' for Active; 'I' for Inactive)
REMARK    1  A    between atoms: C_7  and  C_8 
REMARK    2  A    between atoms: C_8  and  O_9 
REMARK    3  A    between atoms: O_9  and  C_10 
REMARK    4  A    between atoms: C_12  and  C_13 
REMARK       I    between atoms: C_13  and  N_14 
REMARK    5  A    between atoms: N_14  and  C_15 
REMARK    6  A    between atoms: C_15  and  C_16 
REMARK    7  A    between atoms: C_17  and  C_18 
REMARK    8  A    between atoms: C_18  and  N_19 
ROOT
HETATM    1  C   UNL     1       5.707  27.230  56.177  1.00  0.00     0.252 C 
HETATM    2  N   UNL     1       6.673  28.212  56.311  1.00  0.00    -0.353 N 
HETATM    3  O   UNL     1       5.047  26.821  57.126  1.00  0.00    -0.268 OA
HETATM    4  H   UNL     1       7.332  28.317  55.547  1.00  0.00     0.163 HD
ENDROOT
BRANCH   1   5
HETATM    5  C   UNL     1       5.572  26.628  54.828  1.00  0.00     0.034 A 
HETATM    6  C   UNL     1       6.144  25.371  54.602  1.00  0.00     0.053 A 
HETATM    7  C   UNL     1       6.099  24.790  53.332  1.00  0.00     0.070 A 
HETATM    8  C   UNL     1       5.434  25.453  52.299  1.00  0.00     0.037 A 
HETATM    9  C   UNL     1       4.842  26.701  52.529  1.00  0.00     0.004 A 
HETATM   10  C   UNL     1       4.916  27.295  53.790  1.00  0.00     0.017 A 
BRANCH   7  11
HETATM   11  O   UNL     1       6.740  23.587  53.235  1.00  0.00    -0.346 OA
BRANCH  11  12
HETATM   12  C   UNL     1       8.123  23.543  53.597  1.00  0.00     0.219 C 
BRANCH  12  13
HETATM   13  C   UNL     1       8.378  22.401  54.512  1.00  0.00     0.024 A 
HETATM   14  C   UNL     1       8.491  21.019  54.201  1.00  0.00     0.069 A 
HETATM   15  C   UNL     1       8.378  20.358  52.879  1.00  0.00     0.073 C 
HETATM   16  N   UNL     1       8.734  20.288  55.294  1.00  0.00    -0.133 NA
HETATM   17  O   UNL     1       8.769  21.182  56.345  1.00  0.00    -0.217 OA
HETATM   18  C   UNL     1       8.554  22.439  55.879  1.00  0.00     0.085 A 
HETATM   19  C   UNL     1       8.553  23.519  56.883  1.00  0.00     0.079 C 
ENDBRANCH  12  13
ENDBRANCH  11  12
ENDBRANCH   7  11
ENDBRANCH   1   5
BRANCH   2  20
HETATM   20  C   UNL     1       7.124  28.535  57.640  1.00  0.00     0.162 C 
BRANCH  20  21
HETATM   21  C   UNL     1       8.439  29.274  57.631  1.00  0.00    -0.033 A 
HETATM   22  C   UNL     1       8.652  30.510  58.284  1.00  0.00    -0.025 A 
HETATM   23  C   UNL     1       9.914  31.130  58.169  1.00  0.00     0.009 A 
HETATM   24  C   UNL     1      10.947  30.539  57.443  1.00  0.00     0.001 A 
HETATM   25  C   UNL     1      10.741  29.317  56.817  1.00  0.00     0.001 A 
HETATM   26  C   UNL     1       9.500  28.692  56.908  1.00  0.00     0.009 A 
BRANCH  22  27
HETATM   27  C   UNL     1       7.599  31.196  59.124  1.00  0.00     0.274 C 
BRANCH  27  28
HETATM   28  N   UNL     1       7.598  30.771  60.578  1.00  0.00    -0.067 N 
HETATM   29  H   UNL     1       7.067  29.895  60.634  1.00  0.00     0.280 HD
HETATM   30  C   UNL     1       6.943  31.778  61.489  1.00  0.00     0.235 C 
HETATM   31  C   UNL     1       8.077  32.706  61.868  1.00  0.00     0.029 C 
HETATM   32  C   UNL     1       9.318  31.828  61.901  1.00  0.00     0.029 C 
HETATM   33  C   UNL     1       8.956  30.533  61.189  1.00  0.00     0.235 C 
ENDBRANCH  27  28
ENDBRANCH  22  27
ENDBRANCH  20  21
ENDBRANCH   2  20
TORSDOF 8
ENDMDL
MODEL 3
REMARK VINA RESULT:      -9.9      0.407      1.462
REMARK  8 active torsions:
REMARK  status: ('A' for Active; 'I' for Inactive)
REMARK    1  A    between atoms: C_7  and  C_8 
REMARK    2  A    between atoms: C_8  and  O_9 
REMARK    3  A    between atoms: O_9  and  C_10 
REMARK    4  A    between atoms: C_12  and  C_13 
REMARK       I    between atoms: C_13  and  N_14 
REMARK    5  A    between atoms: N_14  and  C_15 
REMARK    6  A    between atoms: C_15  and  C_16 
REMARK    7  A    between atoms: C_17  and  C_18 
REMARK    8  A    between atoms: C_18  and  N_19 
ROOT
HETATM    1  C   UNL     1       7.526  27.684  57.291  1.00  0.00     0.252 C 
HETATM    2  N   UNL     1       8.002  26.476  56.813  1.00  0.00    -0.353 N 
HETATM    3  O   UNL     1       6.337  27.884  57.511  1.00  0.00    -0.268 OA
HETATM    4  H   UNL     1       8.940  26.469  56.429  1.00  0.00     0.163 HD
ENDROOT
BRANCH   1   5
HETATM    5  C   UNL     1       8.530  28.766  57.439  1.00  0.00     0.034 A 
HETATM    6  C   UNL     1       8.192  29.884  58.210  1.00  0.00     0.053 A 
HETATM    7  C   UNL     1       9.079  30.958  58.330  1.00  0.00     0.070 A 
HETATM    8  C   UNL     1      10.329  30.884  57.711  1.00  0.00     0.037 A 
HETATM    9  C   UNL     1      10.677  29.757  56.958  1.00  0.00     0.004 A 
HETATM   10  C   UNL     1       9.778  28.700  56.813  1.00  0.00     0.017 A 
BRANCH   7  11
HETATM   11  O   UNL     1       8.605  32.006  59.066  1.00  0.00    -0.346 OA
BRANCH  11  12
HETATM   12  C   UNL     1       7.343  31.841  59.716  1.00  0.00     0.219 C 
BRANCH  12  13
HETATM   13  C   UNL     1       7.456  32.192  61.155  1.00  0.00     0.024 A 
HETATM   14  C   UNL     1       8.356  31.679  62.128  1.00  0.00     0.069 A 
HETATM   15  C   UNL     1       9.414  30.655  61.958  1.00  0.00     0.073 C 
HETATM   16  N   UNL     1       8.161  32.245  63.324  1.00  0.00    -0.133 NA
HETATM   17  O   UNL     1       7.116  33.130  63.156  1.00  0.00    -0.217 OA
HETATM   18  C   UNL     1       6.695  33.096  61.866  1.00  0.00     0.085 A 
HETATM   19  C   UNL     1       5.570  33.985  61.519  1.00  0.00     0.079 C 
ENDBRANCH  12  13
ENDBRANCH  11  12
ENDBRANCH   7  11
ENDBRANCH   1   5
BRANCH   2  20
HETATM   20  C   UNL     1       7.046  25.543  56.271  1.00  0.00     0.162 C 
BRANCH  20  21
HETATM   21  C   UNL     1       7.206  25.363  54.783  1.00  0.00    -0.033 A 
HETATM   22  C   UNL     1       7.961  24.323  54.192  1.00  0.00    -0.025 A 
HETATM   23  C   UNL     1       8.075  24.282  52.786  1.00  0.00     0.009 A 
HETATM   24  C   UNL     1       7.447  25.231  51.981  1.00  0.00     0.001 A 
HETATM   25  C   UNL     1       6.694  26.241  52.562  1.00  0.00     0.001 A 
HETATM   26  C   UNL     1       6.576  26.308  53.948  1.00  0.00     0.009 A 
BRANCH  22  27
HETATM   27  C   UNL     1       8.637  23.233  54.991  1.00  0.00     0.274 C 
BRANCH  27  28
HETATM   28  N   UNL     1       7.758  22.027  55.254  1.00  0.00    -0.067 N 
HETATM   29  H   UNL     1       6.787  22.360  55.258  1.00  0.00     0.280 HD
HETATM   30  C   UNL     1       8.035  21.371  56.583  1.00  0.00     0.235 C 
HETATM   31  C   UNL     1       9.129  20.374  56.265  1.00  0.00     0.029 C 
HETATM   32  C   UNL     1       8.853  19.917  54.842  1.00  0.00     0.029 C 
HETATM   33  C   UNL     1       7.865  20.910  54.248  1.00  0.00     0.235 C 
ENDBRANCH  27  28
ENDBRANCH  22  27
ENDBRANCH  20  21
ENDBRANCH   2  20
TORSDOF 8
ENDMDL
MODEL 4
REMARK VINA RESULT:      -9.8      2.527      9.561
REMARK  8 active torsions:
REMARK  status: ('A' for Active; 'I' for Inactive)
REMARK    1  A    between atoms: C_7  and  C_8 
REMARK    2  A    between atoms: C_8  and  O_9 
REMARK    3  A    between atoms: O_9  and  C_10 
REMARK    4  A    between atoms: C_12  and  C_13 
REMARK       I    between atoms: C_13  and  N_14 
REMARK    5  A    between atoms: N_14  and  C_15 
REMARK    6  A    between atoms: C_15  and  C_16 
REMARK    7  A    between atoms: C_17  and  C_18 
REMARK    8  A    between atoms: C_18  and  N_19 
ROOT
HETATM    1  C   UNL     1       5.745  27.172  56.031  1.00  0.00     0.252 C 
HETATM    2  N   UNL     1       5.989  28.534  56.011  1.00  0.00    -0.353 N 
HETATM    3  O   UNL     1       5.714  26.523  57.070  1.00  0.00    -0.268 OA
HETATM    4  H   UNL     1       6.240  28.944  55.118  1.00  0.00     0.163 HD
ENDROOT
BRANCH   1   5
HETATM    5  C   UNL     1       5.611  26.515  54.707  1.00  0.00     0.034 A 
HETATM    6  C   UNL     1       6.197  25.257  54.528  1.00  0.00     0.053 A 
HETATM    7  C   UNL     1       6.152  24.625  53.282  1.00  0.00     0.070 A 
HETATM    8  C   UNL     1       5.473  25.239  52.227  1.00  0.00     0.037 A 
HETATM    9  C   UNL     1       4.867  26.487  52.412  1.00  0.00     0.004 A 
HETATM   10  C   UNL     1       4.940  27.132  53.647  1.00  0.00     0.017 A 
BRANCH   7  11
HETATM   11  O   UNL     1       6.808  23.428  53.229  1.00  0.00    -0.346 OA
BRANCH  11  12
HETATM   12  C   UNL     1       8.160  23.393  53.691  1.00  0.00     0.219 C 
BRANCH  12  13
HETATM   13  C   UNL     1       8.362  22.240  54.606  1.00  0.00     0.024 A 
HETATM   14  C   UNL     1       8.455  22.236  56.024  1.00  0.00     0.069 A 
HETATM   15  C   UNL     1       8.381  23.384  56.958  1.00  0.00     0.073 C 
HETATM   16  N   UNL     1       8.629  20.998  56.500  1.00  0.00    -0.133 NA
HETATM   17  O   UNL     1       8.668  20.171  55.397  1.00  0.00    -0.217 OA
HETATM   18  C   UNL     1       8.511  20.911  54.269  1.00  0.00     0.085 A 
HETATM   19  C   UNL     1       8.536  20.174  52.992  1.00  0.00     0.079 C 
ENDBRANCH  12  13
ENDBRANCH  11  12
ENDBRANCH   7  11
ENDBRANCH   1   5
BRANCH   2  20
HETATM   20  C   UNL     1       6.522  29.139  57.204  1.00  0.00     0.162 C 
BRANCH  20  21
HETATM   21  C   UNL     1       7.996  29.434  57.083  1.00  0.00    -0.033 A 
HETATM   22  C   UNL     1       8.780  29.972  58.130  1.00  0.00    -0.025 A 
HETATM   23  C   UNL     1      10.143  30.247  57.886  1.00  0.00     0.009 A 
HETATM   24  C   UNL     1      10.723  29.983  56.646  1.00  0.00     0.001 A 
HETATM   25  C   UNL     1       9.955  29.440  55.625  1.00  0.00     0.001 A 
HETATM   26  C   UNL     1       8.606  29.170  55.840  1.00  0.00     0.009 A 
BRANCH  22  27
HETATM   27  C   UNL     1       8.238  30.248  59.514  1.00  0.00     0.274 C 
BRANCH  27  28
HETATM   28  N   UNL     1       9.196  31.005  60.411  1.00  0.00    -0.067 N 
HETATM   29  H   UNL     1      10.115  30.983  59.953  1.00  0.00     0.280 HD
HETATM   30  C   UNL     1       9.338  30.388  61.780  1.00  0.00     0.235 C 
HETATM   31  C   UNL     1       8.234  31.045  62.580  1.00  0.00     0.029 C 
HETATM   32  C   UNL     1       8.102  32.447  62.006  1.00  0.00     0.029 C 
HETATM   33  C   UNL     1       8.842  32.445  60.677  1.00  0.00     0.235 C 
ENDBRANCH  27  28
ENDBRANCH  22  27
ENDBRANCH  20  21
ENDBRANCH   2  20
TORSDOF 8
ENDMDL
MODEL 5
REMARK VINA RESULT:      -9.7      1.648      3.987
REMARK  8 active torsions:
REMARK  status: ('A' for Active; 'I' for Inactive)
REMARK    1  A    between atoms: C_7  and  C_8 
REMARK    2  A    between atoms: C_8  and  O_9 
REMARK    3  A    between atoms: O_9  and  C_10 
REMARK    4  A    between atoms: C_12  and  C_13 
REMARK       I    between atoms: C_13  and  N_14 
REMARK    5  A    between atoms: N_14  and  C_15 
REMARK    6  A    between atoms: C_15  and  C_16 
REMARK    7  A    between atoms: C_17  and  C_18 
REMARK    8  A    between atoms: C_18  and  N_19 
ROOT
HETATM    1  C   UNL     1       8.133  27.644  57.215  1.00  0.00     0.252 C 
HETATM    2  N   UNL     1       7.831  27.367  55.894  1.00  0.00    -0.353 N 
HETATM    3  O   UNL     1       7.707  26.968  58.144  1.00  0.00    -0.268 OA
HETATM    4  H   UNL     1       8.010  28.100  55.217  1.00  0.00     0.163 HD
ENDROOT
BRANCH   1   5
HETATM    5  C   UNL     1       8.933  28.870  57.457  1.00  0.00     0.034 A 
HETATM    6  C   UNL     1       8.342  29.919  58.168  1.00  0.00     0.053 A 
HETATM    7  C   UNL     1       9.032  31.118  58.368  1.00  0.00     0.070 A 
HETATM    8  C   UNL     1      10.340  31.242  57.892  1.00  0.00     0.037 A 
HETATM    9  C   UNL     1      10.940  30.184  57.200  1.00  0.00     0.004 A 
HETATM   10  C   UNL     1      10.238  29.000  56.973  1.00  0.00     0.017 A 
BRANCH   7  11
HETATM   11  O   UNL     1       8.322  32.079  59.031  1.00  0.00    -0.346 OA
BRANCH  11  12
HETATM   12  C   UNL     1       7.193  31.655  59.798  1.00  0.00     0.219 C 
BRANCH  12  13
HETATM   13  C   UNL     1       7.356  32.060  61.219  1.00  0.00     0.024 A 
HETATM   14  C   UNL     1       8.253  31.544  62.194  1.00  0.00     0.069 A 
HETATM   15  C   UNL     1       9.256  30.463  62.046  1.00  0.00     0.073 C 
HETATM   16  N   UNL     1       8.113  32.170  63.368  1.00  0.00    -0.133 NA
HETATM   17  O   UNL     1       7.109  33.098  63.184  1.00  0.00    -0.217 OA
HETATM   18  C   UNL     1       6.657  33.030  61.905  1.00  0.00     0.085 A 
HETATM   19  C   UNL     1       5.569  33.958  61.544  1.00  0.00     0.079 C 
ENDBRANCH  12  13
ENDBRANCH  11  12
ENDBRANCH   7  11
ENDBRANCH   1   5
BRANCH   2  20
HETATM   20  C   UNL     1       6.747  26.455  55.628  1.00  0.00     0.162 C 
BRANCH  20  21
HETATM   21  C   UNL     1       7.202  25.238  54.861  1.00  0.00    -0.033 A 
HETATM   22  C   UNL     1       7.196  25.150  53.450  1.00  0.00    -0.025 A 
HETATM   23  C   UNL     1       7.604  23.942  52.844  1.00  0.00     0.009 A 
HETATM   24  C   UNL     1       8.025  22.855  53.609  1.00  0.00     0.001 A 
HETATM   25  C   UNL     1       8.045  22.950  54.993  1.00  0.00     0.001 A 
HETATM   26  C   UNL     1       7.637  24.128  55.613  1.00  0.00     0.009 A 
BRANCH  22  27
HETATM   27  C   UNL     1       6.795  26.295  52.550  1.00  0.00     0.274 C 
BRANCH  27  28
HETATM   28  N   UNL     1       5.328  26.293  52.168  1.00  0.00    -0.067 N 
HETATM   29  H   UNL     1       4.890  25.511  52.668  1.00  0.00     0.280 HD
HETATM   30  C   UNL     1       5.101  26.094  50.691  1.00  0.00     0.235 C 
HETATM   31  C   UNL     1       5.137  27.500  50.133  1.00  0.00     0.029 C 
HETATM   32  C   UNL     1       4.564  28.382  51.232  1.00  0.00     0.029 C 
HETATM   33  C   UNL     1       4.565  27.549  52.505  1.00  0.00     0.235 C 
ENDBRANCH  27  28
ENDBRANCH  22  27
ENDBRANCH  20  21
ENDBRANCH   2  20
TORSDOF 8
ENDMDL
MODEL 6
REMARK VINA RESULT:      -9.6      1.346      3.415
REMARK  8 active torsions:
REMARK  status: ('A' for Active; 'I' for Inactive)
REMARK    1  A    between atoms: C_7  and  C_8 
REMARK    2  A    between atoms: C_8  and  O_9 
REMARK    3  A    between atoms: O_9  and  C_10 
REMARK    4  A    between atoms: C_12  and  C_13 
REMARK       I    between atoms: C_13  and  N_14 
REMARK    5  A    between atoms: N_14  and  C_15 
REMARK    6  A    between atoms: C_15  and  C_16 
REMARK    7  A    between atoms: C_17  and  C_18 
REMARK    8  A    between atoms: C_18  and  N_19 
ROOT
HETATM    1  C   UNL     1       7.211  27.563  57.429  1.00  0.00     0.252 C 
HETATM    2  N   UNL     1       7.676  26.270  57.262  1.00  0.00    -0.353 N 
HETATM    3  O   UNL     1       6.018  27.841  57.412  1.00  0.00    -0.268 OA
HETATM    4  H   UNL     1       8.660  26.158  57.044  1.00  0.00     0.163 HD
ENDROOT
BRANCH   1   5
HETATM    5  C   UNL     1       8.248  28.618  57.541  1.00  0.00     0.034 A 
HETATM    6  C   UNL     1       7.943  29.774  58.267  1.00  0.00     0.053 A 
HETATM    7  C   UNL     1       8.863  30.823  58.351  1.00  0.00     0.070 A 
HETATM    8  C   UNL     1      10.112  30.687  57.742  1.00  0.00     0.037 A 
HETATM    9  C   UNL     1      10.427  29.522  57.033  1.00  0.00     0.004 A 
HETATM   10  C   UNL     1       9.496  28.488  56.924  1.00  0.00     0.017 A 
BRANCH   7  11
HETATM   11  O   UNL     1       8.419  31.913  59.044  1.00  0.00    -0.346 OA
BRANCH  11  12
HETATM   12  C   UNL     1       7.214  31.772  59.799  1.00  0.00     0.219 C 
BRANCH  12  13
HETATM   13  C   UNL     1       7.466  32.073  61.232  1.00  0.00     0.024 A 
HETATM   14  C   UNL     1       6.855  33.057  62.055  1.00  0.00     0.069 A 
HETATM   15  C   UNL     1       5.809  34.043  61.694  1.00  0.00     0.073 C 
HETATM   16  N   UNL     1       7.338  33.023  63.302  1.00  0.00    -0.133 NA
HETATM   17  O   UNL     1       8.287  32.021  63.311  1.00  0.00    -0.217 OA
HETATM   18  C   UNL     1       8.365  31.458  62.078  1.00  0.00     0.085 A 
HETATM   19  C   UNL     1       9.345  30.369  61.915  1.00  0.00     0.079 C 
ENDBRANCH  12  13
ENDBRANCH  11  12
ENDBRANCH   7  11
ENDBRANCH   1   5
BRANCH   2  20
HETATM   20  C   UNL     1       6.757  25.286  56.749  1.00  0.00     0.162 C 
BRANCH  20  21
HETATM   21  C   UNL     1       7.396  24.394  55.714  1.00  0.00    -0.033 A 
HETATM   22  C   UNL     1       7.031  24.385  54.349  1.00  0.00    -0.025 A 
HETATM   23  C   UNL     1       7.670  23.474  53.480  1.00  0.00     0.009 A 
HETATM   24  C   UNL     1       8.658  22.606  53.943  1.00  0.00     0.001 A 
HETATM   25  C   UNL     1       9.027  22.628  55.281  1.00  0.00     0.001 A 
HETATM   26  C   UNL     1       8.402  23.511  56.158  1.00  0.00     0.009 A 
BRANCH  22  27
HETATM   27  C   UNL     1       6.000  25.321  53.761  1.00  0.00     0.274 C 
BRANCH  27  28
HETATM   28  N   UNL     1       6.589  26.431  52.913  1.00  0.00    -0.067 N 
HETATM   29  H   UNL     1       7.342  26.013  52.355  1.00  0.00     0.280 HD
HETATM   30  C   UNL     1       7.176  27.553  53.731  1.00  0.00     0.235 C 
HETATM   31  C   UNL     1       6.004  28.484  53.950  1.00  0.00     0.029 C 
HETATM   32  C   UNL     1       5.152  28.357  52.697  1.00  0.00     0.029 C 
HETATM   33  C   UNL     1       5.630  27.110  51.969  1.00  0.00     0.235 C 
ENDBRANCH  27  28
ENDBRANCH  22  27
ENDBRANCH  20  21
ENDBRANCH   2  20
TORSDOF 8
ENDMDL
MODEL 7
REMARK VINA RESULT:      -9.3      2.448      3.968
REMARK  8 active torsions:
REMARK  status: ('A' for Active; 'I' for Inactive)
REMARK    1  A    between atoms: C_7  and  C_8 
REMARK    2  A    between atoms: C_8  and  O_9 
REMARK    3  A    between atoms: O_9  and  C_10 
REMARK    4  A    between atoms: C_12  and  C_13 
REMARK       I    between atoms: C_13  and  N_14 
REMARK    5  A    between atoms: N_14  and  C_15 
REMARK    6  A    between atoms: C_15  and  C_16 
REMARK    7  A    between atoms: C_17  and  C_18 
REMARK    8  A    between atoms: C_18  and  N_19 
ROOT
HETATM    1  C   UNL     1       5.856  27.378  54.373  1.00  0.00     0.252 C 
HETATM    2  N   UNL     1       5.178  26.279  54.872  1.00  0.00    -0.353 N 
HETATM    3  O   UNL     1       6.813  27.273  53.614  1.00  0.00    -0.268 OA
HETATM    4  H   UNL     1       4.572  26.435  55.669  1.00  0.00     0.163 HD
ENDROOT
BRANCH   1   5
HETATM    5  C   UNL     1       5.415  28.700  54.880  1.00  0.00     0.034 A 
HETATM    6  C   UNL     1       6.099  29.255  55.967  1.00  0.00     0.053 A 
HETATM    7  C   UNL     1       5.683  30.469  56.522  1.00  0.00     0.070 A 
HETATM    8  C   UNL     1       4.606  31.149  55.950  1.00  0.00     0.037 A 
HETATM    9  C   UNL     1       3.935  30.605  54.848  1.00  0.00     0.004 A 
HETATM   10  C   UNL     1       4.331  29.378  54.316  1.00  0.00     0.017 A 
BRANCH   7  11
HETATM   11  O   UNL     1       6.404  30.872  57.610  1.00  0.00    -0.346 OA
BRANCH  11  12
HETATM   12  C   UNL     1       7.410  29.984  58.104  1.00  0.00     0.219 C 
BRANCH  12  13
HETATM   13  C   UNL     1       8.713  30.691  58.208  1.00  0.00     0.024 A 
HETATM   14  C   UNL     1       9.107  31.700  59.128  1.00  0.00     0.069 A 
HETATM   15  C   UNL     1       8.316  32.311  60.222  1.00  0.00     0.073 C 
HETATM   16  N   UNL     1      10.368  32.092  58.916  1.00  0.00    -0.133 NA
HETATM   17  O   UNL     1      10.816  31.354  57.839  1.00  0.00    -0.217 OA
HETATM   18  C   UNL     1       9.829  30.523  57.416  1.00  0.00     0.085 A 
HETATM   19  C   UNL     1      10.145  29.664  56.259  1.00  0.00     0.079 C 
ENDBRANCH  12  13
ENDBRANCH  11  12
ENDBRANCH   7  11
ENDBRANCH   1   5
BRANCH   2  20
HETATM   20  C   UNL     1       5.804  24.987  54.743  1.00  0.00     0.162 C 
BRANCH  20  21
HETATM   21  C   UNL     1       6.968  24.822  55.687  1.00  0.00    -0.033 A 
HETATM   22  C   UNL     1       8.086  23.998  55.422  1.00  0.00    -0.025 A 
HETATM   23  C   UNL     1       9.096  23.888  56.401  1.00  0.00     0.009 A 
HETATM   24  C   UNL     1       9.015  24.586  57.605  1.00  0.00     0.001 A 
HETATM   25  C   UNL     1       7.924  25.407  57.857  1.00  0.00     0.001 A 
HETATM   26  C   UNL     1       6.911  25.522  56.909  1.00  0.00     0.009 A 
BRANCH  22  27
HETATM   27  C   UNL     1       8.269  23.242  54.126  1.00  0.00     0.274 C 
BRANCH  27  28
HETATM   28  N   UNL     1       7.496  21.941  54.058  1.00  0.00    -0.067 N 
HETATM   29  H   UNL     1       6.515  22.185  53.880  1.00  0.00     0.280 HD
HETATM   30  C   UNL     1       7.558  21.147  55.338  1.00  0.00     0.235 C 
HETATM   31  C   UNL     1       8.798  20.297  55.168  1.00  0.00     0.029 C 
HETATM   32  C   UNL     1       8.882  20.003  53.679  1.00  0.00     0.029 C 
HETATM   33  C   UNL     1       7.936  20.975  52.989  1.00  0.00     0.235 C 
ENDBRANCH  27  28
ENDBRANCH  22  27
ENDBRANCH  20  21
ENDBRANCH   2  20
TORSDOF 8
ENDMDL
MODEL 8
REMARK VINA RESULT:      -9.2      1.531      2.041
REMARK  8 active torsions:
REMARK  status: ('A' for Active; 'I' for Inactive)
REMARK    1  A    between atoms: C_7  and  C_8 
REMARK    2  A    between atoms: C_8  and  O_9 
REMARK    3  A    between atoms: O_9  and  C_10 
REMARK    4  A    between atoms: C_12  and  C_13 
REMARK       I    between atoms: C_13  and  N_14 
REMARK    5  A    between atoms: N_14  and  C_15 
REMARK    6  A    between atoms: C_15  and  C_16 
REMARK    7  A    between atoms: C_17  and  C_18 
REMARK    8  A    between atoms: C_18  and  N_19 
ROOT
HETATM    1  C   UNL     1       8.068  27.594  57.199  1.00  0.00     0.252 C 
HETATM    2  N   UNL     1       7.200  27.680  56.125  1.00  0.00    -0.353 N 
HETATM    3  O   UNL     1       8.113  26.613  57.933  1.00  0.00    -0.268 OA
HETATM    4  H   UNL     1       7.050  28.600  55.727  1.00  0.00     0.163 HD
ENDROOT
BRANCH   1   5
HETATM    5  C   UNL     1       8.886  28.800  57.474  1.00  0.00     0.034 A 
HETATM    6  C   UNL     1       8.390  29.748  58.375  1.00  0.00     0.053 A 
HETATM    7  C   UNL     1       9.093  30.931  58.620  1.00  0.00     0.070 A 
HETATM    8  C   UNL     1      10.323  31.137  57.993  1.00  0.00     0.037 A 
HETATM    9  C   UNL     1      10.832  30.180  57.107  1.00  0.00     0.004 A 
HETATM   10  C   UNL     1      10.113  29.014  56.839  1.00  0.00     0.017 A 
BRANCH   7  11
HETATM   11  O   UNL     1       8.473  31.792  59.480  1.00  0.00    -0.346 OA
BRANCH  11  12
HETATM   12  C   UNL     1       7.885  31.240  60.660  1.00  0.00     0.219 C 
BRANCH  12  13
HETATM   13  C   UNL     1       6.927  32.207  61.258  1.00  0.00     0.024 A 
HETATM   14  C   UNL     1       5.730  32.732  60.700  1.00  0.00     0.069 A 
HETATM   15  C   UNL     1       5.129  32.456  59.374  1.00  0.00     0.073 C 
HETATM   16  N   UNL     1       5.125  33.576  61.545  1.00  0.00    -0.133 NA
HETATM   17  O   UNL     1       5.927  33.627  62.666  1.00  0.00    -0.217 OA
HETATM   18  C   UNL     1       7.001  32.814  62.493  1.00  0.00     0.085 A 
HETATM   19  C   UNL     1       7.968  32.759  63.605  1.00  0.00     0.079 C 
ENDBRANCH  12  13
ENDBRANCH  11  12
ENDBRANCH   7  11
ENDBRANCH   1   5
BRANCH   2  20
HETATM   20  C   UNL     1       6.117  26.731  56.057  1.00  0.00     0.162 C 
BRANCH  20  21
HETATM   21  C   UNL     1       5.727  26.414  54.635  1.00  0.00    -0.033 A 
HETATM   22  C   UNL     1       5.993  25.178  54.002  1.00  0.00    -0.025 A 
HETATM   23  C   UNL     1       5.619  25.011  52.652  1.00  0.00     0.009 A 
HETATM   24  C   UNL     1       4.982  26.032  51.947  1.00  0.00     0.001 A 
HETATM   25  C   UNL     1       4.707  27.239  52.575  1.00  0.00     0.001 A 
HETATM   26  C   UNL     1       5.077  27.429  53.904  1.00  0.00     0.009 A 
BRANCH  22  27
HETATM   27  C   UNL     1       6.642  24.009  54.708  1.00  0.00     0.274 C 
BRANCH  27  28
HETATM   28  N   UNL     1       8.096  23.796  54.338  1.00  0.00    -0.067 N 
HETATM   29  H   UNL     1       8.461  24.704  54.029  1.00  0.00     0.280 HD
HETATM   30  C   UNL     1       8.284  22.807  53.216  1.00  0.00     0.235 C 
HETATM   31  C   UNL     1       8.378  21.476  53.929  1.00  0.00     0.029 C 
HETATM   32  C   UNL     1       9.049  21.780  55.259  1.00  0.00     0.029 C 
HETATM   33  C   UNL     1       8.983  23.289  55.446  1.00  0.00     0.235 C 
ENDBRANCH  27  28
ENDBRANCH  22  27
ENDBRANCH  20  21
ENDBRANCH   2  20
TORSDOF 8
ENDMDL
MODEL 9
REMARK VINA RESULT:      -9.0      2.573     10.398
REMARK  8 active torsions:
REMARK  status: ('A' for Active; 'I' for Inactive)
REMARK    1  A    between atoms: C_7  and  C_8 
REMARK    2  A    between atoms: C_8  and  O_9 
REMARK    3  A    between atoms: O_9  and  C_10 
REMARK    4  A    between atoms: C_12  and  C_13 
REMARK       I    between atoms: C_13  and  N_14 
REMARK    5  A    between atoms: N_14  and  C_15 
REMARK    6  A    between atoms: C_15  and  C_16 
REMARK    7  A    between atoms: C_17  and  C_18 
REMARK    8  A    between atoms: C_18  and  N_19 
ROOT
HETATM    1  C   UNL     1       7.391  28.295  57.642  1.00  0.00     0.252 C 
HETATM    2  N   UNL     1       6.487  29.295  57.958  1.00  0.00    -0.353 N 
HETATM    3  O   UNL     1       8.580  28.367  57.929  1.00  0.00    -0.268 OA
HETATM    4  H   UNL     1       5.593  29.276  57.480  1.00  0.00     0.163 HD
ENDROOT
BRANCH   1   5
HETATM    5  C   UNL     1       6.856  27.162  56.848  1.00  0.00     0.034 A 
HETATM    6  C   UNL     1       7.403  25.891  57.055  1.00  0.00     0.053 A 
HETATM    7  C   UNL     1       6.978  24.802  56.289  1.00  0.00     0.070 A 
HETATM    8  C   UNL     1       5.963  24.984  55.346  1.00  0.00     0.037 A 
HETATM    9  C   UNL     1       5.400  26.251  55.154  1.00  0.00     0.004 A 
HETATM   10  C   UNL     1       5.849  27.343  55.897  1.00  0.00     0.017 A 
BRANCH   7  11
HETATM   11  O   UNL     1       7.629  23.631  56.555  1.00  0.00    -0.346 OA
BRANCH  11  12
HETATM   12  C   UNL     1       8.793  23.331  55.782  1.00  0.00     0.219 C 
BRANCH  12  13
HETATM   13  C   UNL     1       8.475  22.313  54.748  1.00  0.00     0.024 A 
HETATM   14  C   UNL     1       8.465  20.897  54.867  1.00  0.00     0.069 A 
HETATM   15  C   UNL     1       8.775  20.068  56.056  1.00  0.00     0.073 C 
HETATM   16  N   UNL     1       8.119  20.310  53.716  1.00  0.00    -0.133 NA
HETATM   17  O   UNL     1       7.910  21.336  52.817  1.00  0.00    -0.217 OA
HETATM   18  C   UNL     1       8.126  22.528  53.431  1.00  0.00     0.085 A 
HETATM   19  C   UNL     1       7.951  23.735  52.601  1.00  0.00     0.079 C 
ENDBRANCH  12  13
ENDBRANCH  11  12
ENDBRANCH   7  11
ENDBRANCH   1   5
BRANCH   2  20
HETATM   20  C   UNL     1       7.013  30.576  58.355  1.00  0.00     0.162 C 
BRANCH  20  21
HETATM   21  C   UNL     1       5.927  31.608  58.527  1.00  0.00    -0.033 A 
HETATM   22  C   UNL     1       5.901  32.558  59.575  1.00  0.00    -0.025 A 
HETATM   23  C   UNL     1       4.809  33.447  59.659  1.00  0.00     0.009 A 
HETATM   24  C   UNL     1       3.776  33.415  58.724  1.00  0.00     0.001 A 
HETATM   25  C   UNL     1       3.811  32.493  57.686  1.00  0.00     0.001 A 
HETATM   26  C   UNL     1       4.874  31.598  57.590  1.00  0.00     0.009 A 
BRANCH  22  27
HETATM   27  C   UNL     1       7.001  32.685  60.604  1.00  0.00     0.274 C 
BRANCH  27  28
HETATM   28  N   UNL     1       6.883  31.707  61.755  1.00  0.00    -0.067 N 
HETATM   29  H   UNL     1       6.709  30.783  61.346  1.00  0.00     0.280 HD
HETATM   30  C   UNL     1       5.745  32.029  62.691  1.00  0.00     0.235 C 
HETATM   31  C   UNL     1       6.368  32.975  63.695  1.00  0.00     0.029 C 
HETATM   32  C   UNL     1       7.814  32.525  63.826  1.00  0.00     0.029 C 
HETATM   33  C   UNL     1       8.093  31.602  62.649  1.00  0.00     0.235 C 
ENDBRANCH  27  28
ENDBRANCH  22  27
ENDBRANCH  20  21
ENDBRANCH   2  20
TORSDOF 8
ENDMDL
MODEL 10
REMARK VINA RESULT:      -9.0      2.907      6.018
REMARK  8 active torsions:
REMARK  status: ('A' for Active; 'I' for Inactive)
REMARK    1  A    between atoms: C_7  and  C_8 
REMARK    2  A    between atoms: C_8  and  O_9 
REMARK    3  A    between atoms: O_9  and  C_10 
REMARK    4  A    between atoms: C_12  and  C_13 
REMARK       I    between atoms: C_13  and  N_14 
REMARK    5  A    between atoms: N_14  and  C_15 
REMARK    6  A    between atoms: C_15  and  C_16 
REMARK    7  A    between atoms: C_17  and  C_18 
REMARK    8  A    between atoms: C_18  and  N_19 
ROOT
HETATM    1  C   UNL     1       6.543  32.027  59.903  1.00  0.00     0.252 C 
HETATM    2  N   UNL     1       6.871  30.758  59.458  1.00  0.00    -0.353 N 
HETATM    3  O   UNL     1       6.173  32.915  59.144  1.00  0.00    -0.268 OA
HETATM    4  H   UNL     1       7.394  30.167  60.095  1.00  0.00     0.163 HD
ENDROOT
BRANCH   1   5
HETATM    5  C   UNL     1       6.752  32.284  61.349  1.00  0.00     0.034 A 
HETATM    6  C   UNL     1       5.627  32.459  62.161  1.00  0.00     0.053 A 
HETATM    7  C   UNL     1       5.772  32.766  63.517  1.00  0.00     0.070 A 
HETATM    8  C   UNL     1       7.053  32.848  64.067  1.00  0.00     0.037 A 
HETATM    9  C   UNL     1       8.180  32.650  63.259  1.00  0.00     0.004 A 
HETATM   10  C   UNL     1       8.034  32.376  61.899  1.00  0.00     0.017 A 
BRANCH   7  11
HETATM   11  O   UNL     1       4.596  32.963  64.183  1.00  0.00    -0.346 OA
BRANCH  11  12
HETATM   12  C   UNL     1       3.756  34.032  63.741  1.00  0.00     0.219 C 
BRANCH  12  13
HETATM   13  C   UNL     1       4.282  35.334  64.228  1.00  0.00     0.024 A 
HETATM   14  C   UNL     1       4.112  35.941  65.502  1.00  0.00     0.069 A 
HETATM   15  C   UNL     1       3.360  35.434  66.674  1.00  0.00     0.073 C 
HETATM   16  N   UNL     1       4.744  37.118  65.572  1.00  0.00    -0.133 NA
HETATM   17  O   UNL     1       5.328  37.307  64.336  1.00  0.00    -0.217 OA
HETATM   18  C   UNL     1       5.050  36.246  63.536  1.00  0.00     0.085 A 
HETATM   19  C   UNL     1       5.598  36.295  62.168  1.00  0.00     0.079 C 
ENDBRANCH  12  13
ENDBRANCH  11  12
ENDBRANCH   7  11
ENDBRANCH   1   5
BRANCH   2  20
HETATM   20  C   UNL     1       7.077  30.572  58.044  1.00  0.00     0.162 C 
BRANCH  20  21
HETATM   21  C   UNL     1       8.520  30.283  57.712  1.00  0.00    -0.033 A 
HETATM   22  C   UNL     1       8.943  29.182  56.933  1.00  0.00    -0.025 A 
HETATM   23  C   UNL     1      10.325  28.989  56.725  1.00  0.00     0.009 A 
HETATM   24  C   UNL     1      11.267  29.869  57.256  1.00  0.00     0.001 A 
HETATM   25  C   UNL     1      10.848  30.959  58.007  1.00  0.00     0.001 A 
HETATM   26  C   UNL     1       9.489  31.163  58.234  1.00  0.00     0.009 A 
BRANCH  22  27
HETATM   27  C   UNL     1       7.986  28.207  56.288  1.00  0.00     0.274 C 
BRANCH  27  28
HETATM   28  N   UNL     1       7.406  27.187  57.247  1.00  0.00    -0.067 N 
HETATM   29  H   UNL     1       7.401  27.621  58.178  1.00  0.00     0.280 HD
HETATM   30  C   UNL     1       8.217  25.919  57.325  1.00  0.00     0.235 C 
HETATM   31  C   UNL     1       7.636  25.058  56.224  1.00  0.00     0.029 C 
HETATM   32  C   UNL     1       6.162  25.427  56.163  1.00  0.00     0.029 C 
HETATM   33  C   UNL     1       6.005  26.725  56.941  1.00  0.00     0.235 C 
ENDBRANCH  27  28
ENDBRANCH  22  27
ENDBRANCH  20  21
ENDBRANCH   2  20
TORSDOF 8
ENDMDL
