MODEL 1
REMARK VINA RESULT:     -10.0      0.000      0.000
REMARK  5 active torsions:
REMARK  status: ('A' for Active; 'I' for Inactive)
REMARK    1  A    between atoms: C_2  and  C_3 
REMARK    2  A    between atoms: C_5  and  C_6 
REMARK    3  A    between atoms: C_6  and  C_7 
REMARK       I    between atoms: C_7  and  N_8 
REMARK    4  A    between atoms: N_8  and  C_9 
REMARK    5  A    between atoms: C_11  and  C_12 
ROOT
HETATM    1  C   UNL     1       7.860  26.651  56.969  1.00  0.00     0.226 C 
HETATM    2  N   UNL     1       7.262  26.536  55.723  1.00  0.00    -0.327 N 
HETATM    3  O   UNL     1       8.645  25.857  57.477  1.00  0.00    -0.273 OA
HETATM    4  H   UNL     1       6.638  27.288  55.456  1.00  0.00     0.169 HD
ENDROOT
BRANCH   2   5
HETATM    5  C   UNL     1       7.507  25.555  54.738  1.00  0.00     0.035 A 
HETATM    6  C   UNL     1       7.797  24.217  55.024  1.00  0.00     0.042 A 
HETATM    7  C   UNL     1       8.077  23.293  54.001  1.00  0.00    -0.021 A 
HETATM    8  C   UNL     1       8.042  23.735  52.673  1.00  0.00     0.012 A 
HETATM    9  C   UNL     1       7.741  25.064  52.375  1.00  0.00     0.003 A 
HETATM   10  C   UNL     1       7.478  25.970  53.403  1.00  0.00     0.029 A 
BRANCH   7  11
HETATM   11  C   UNL     1       8.405  21.904  54.303  1.00  0.00     0.010 A 
HETATM   12  C   UNL     1       8.467  20.761  53.469  1.00  0.00     0.152 A 
HETATM   13  N   UNL     1       8.825  19.653  54.125  1.00  0.00    -0.187 NA
HETATM   14  N   UNL     1       8.990  20.078  55.387  1.00  0.00    -0.289 N 
HETATM   15  H   UNL     1       9.267  19.403  56.091  1.00  0.00     0.188 HD
HETATM   16  C   UNL     1       8.758  21.414  55.544  1.00  0.00     0.123 A 
ENDBRANCH   7  11
ENDBRANCH   2   5
BRANCH   1  17
HETATM   17  C   UNL     1       7.442  27.909  57.715  1.00  0.00     0.141 C 
BRANCH  17  18
HETATM   18  C   UNL     1       8.497  28.993  57.814  1.00  0.00    -0.049 A 
HETATM   19  C   UNL     1       8.447  30.010  58.783  1.00  0.00     0.014 A 
HETATM   20  C   UNL     1       9.440  30.999  58.858  1.00  0.00    -0.058 A 
HETATM   21  C   UNL     1      10.459  30.995  57.894  1.00  0.00     0.007 A 
HETATM   22  C   UNL     1      10.501  30.015  56.903  1.00  0.00     0.001 A 
HETATM   23  C   UNL     1       9.528  29.017  56.865  1.00  0.00     0.007 A 
BRANCH  20  24
HETATM   24  C   UNL     1       9.430  32.097  59.897  1.00  0.00     0.034 C 
HETATM   25  C   UNL     1       9.561  31.655  61.350  1.00  0.00     0.010 C 
ENDBRANCH  20  24
ENDBRANCH  17  18
ENDBRANCH   1  17
TORSDOF 5
ENDMDL
MODEL 2
REMARK VINA RESULT:      -9.7      2.645      8.939
REMARK  5 active torsions:
REMARK  status: ('A' for Active; 'I' for Inactive)
REMARK    1  A    between atoms: C_2  and  C_3 
REMARK    2  A    between atoms: C_5  and  C_6 
REMARK    3  A    between atoms: C_6  and  C_7 
REMARK       I    between atoms: C_7  and  N_8 
REMARK    4  A    between atoms: N_8  and  C_9 
REMARK    5  A    between atoms: C_11  and  C_12 
ROOT
HETATM    1  C   UNL     1       7.668  26.381  56.976  1.00  0.00     0.226 C 
HETATM    2  N   UNL     1       7.707  27.722  56.628  1.00  0.00    -0.327 N 
HETATM    3  O   UNL     1       8.397  25.815  57.787  1.00  0.00    -0.273 OA
HETATM    4  H   UNL     1       7.027  28.025  55.941  1.00  0.00     0.169 HD
ENDROOT
BRANCH   2   5
HETATM    5  C   UNL     1       8.505  28.736  57.200  1.00  0.00     0.035 A 
HETATM    6  C   UNL     1       8.210  29.374  58.409  1.00  0.00     0.042 A 
HETATM    7  C   UNL     1       9.019  30.410  58.908  1.00  0.00    -0.021 A 
HETATM    8  C   UNL     1      10.150  30.787  58.175  1.00  0.00     0.012 A 
HETATM    9  C   UNL     1      10.463  30.150  56.973  1.00  0.00     0.003 A 
HETATM   10  C   UNL     1       9.642  29.131  56.488  1.00  0.00     0.029 A 
BRANCH   7  11
HETATM   11  C   UNL     1       8.694  31.091  60.156  1.00  0.00     0.010 A 
HETATM   12  C   UNL     1       7.924  32.253  60.409  1.00  0.00     0.152 A 
HETATM   13  N   UNL     1       7.845  32.557  61.708  1.00  0.00    -0.187 NA
HETATM   14  N   UNL     1       8.568  31.593  62.298  1.00  0.00    -0.289 N 
HETATM   15  H   UNL     1       8.661  31.609  63.307  1.00  0.00     0.188 HD
HETATM   16  C   UNL     1       9.090  30.691  61.416  1.00  0.00     0.123 A 
ENDBRANCH   7  11
ENDBRANCH   2   5
BRANCH   1  17
HETATM   17  C   UNL     1       6.593  25.604  56.231  1.00  0.00     0.141 C 
BRANCH  17  18
HETATM   18  C   UNL     1       7.079  24.764  55.068  1.00  0.00    -0.049 A 
HETATM   19  C   UNL     1       7.273  23.374  55.167  1.00  0.00     0.014 A 
HETATM   20  C   UNL     1       7.718  22.618  54.072  1.00  0.00    -0.058 A 
HETATM   21  C   UNL     1       8.037  23.289  52.883  1.00  0.00     0.007 A 
HETATM   22  C   UNL     1       7.887  24.671  52.781  1.00  0.00     0.001 A 
HETATM   23  C   UNL     1       7.407  25.404  53.864  1.00  0.00     0.007 A 
BRANCH  20  24
HETATM   24  C   UNL     1       7.921  21.121  54.136  1.00  0.00     0.034 C 
HETATM   25  C   UNL     1       8.323  20.437  52.834  1.00  0.00     0.010 C 
ENDBRANCH  20  24
ENDBRANCH  17  18
ENDBRANCH   1  17
TORSDOF 5
ENDMDL
MODEL 3
REMARK VINA RESULT:      -9.2      5.039      7.060
REMARK  5 active torsions:
REMARK  status: ('A' for Active; 'I' for Inactive)
REMARK    1  A    between atoms: C_2  and  C_3 
REMARK    2  A    between atoms: C_5  and  C_6 
REMARK    3  A    between atoms: C_6  and  C_7 
REMARK       I    between atoms: C_7  and  N_8 
REMARK    4  A    between atoms: N_8  and  C_9 
REMARK    5  A    between atoms: C_11  and  C_12 
ROOT
HETATM    1  C   UNL     1       9.161  31.821  60.305  1.00  0.00     0.226 C 
HETATM    2  N   UNL     1       9.095  30.506  59.871  1.00  0.00    -0.327 N 
HETATM    3  O   UNL     1       9.106  32.825  59.603  1.00  0.00    -0.273 OA
HETATM    4  H   UNL     1       9.152  29.794  60.589  1.00  0.00     0.169 HD
ENDROOT
BRANCH   2   5
HETATM    5  C   UNL     1       8.844  30.045  58.561  1.00  0.00     0.035 A 
HETATM    6  C   UNL     1       7.587  29.635  58.104  1.00  0.00     0.042 A 
HETATM    7  C   UNL     1       7.406  29.142  56.800  1.00  0.00    -0.021 A 
HETATM    8  C   UNL     1       8.514  29.084  55.947  1.00  0.00     0.012 A 
HETATM    9  C   UNL     1       9.771  29.502  56.386  1.00  0.00     0.003 A 
HETATM   10  C   UNL     1       9.935  29.977  57.688  1.00  0.00     0.029 A 
BRANCH   7  11
HETATM   11  C   UNL     1       6.099  28.691  56.335  1.00  0.00     0.010 A 
HETATM   12  C   UNL     1       5.341  29.054  55.193  1.00  0.00     0.152 A 
HETATM   13  N   UNL     1       4.180  28.399  55.105  1.00  0.00    -0.187 NA
HETATM   14  N   UNL     1       4.182  27.614  56.194  1.00  0.00    -0.289 N 
HETATM   15  H   UNL     1       3.385  27.008  56.353  1.00  0.00     0.188 HD
HETATM   16  C   UNL     1       5.307  27.747  56.955  1.00  0.00     0.123 A 
ENDBRANCH   7  11
ENDBRANCH   2   5
BRANCH   1  17
HETATM   17  C   UNL     1       9.322  31.940  61.814  1.00  0.00     0.141 C 
BRANCH  17  18
HETATM   18  C   UNL     1       8.056  32.250  62.585  1.00  0.00    -0.049 A 
HETATM   19  C   UNL     1       8.071  32.880  63.843  1.00  0.00     0.014 A 
HETATM   20  C   UNL     1       6.883  33.162  64.534  1.00  0.00    -0.058 A 
HETATM   21  C   UNL     1       5.669  32.738  63.975  1.00  0.00     0.007 A 
HETATM   22  C   UNL     1       5.640  32.078  62.747  1.00  0.00     0.001 A 
HETATM   23  C   UNL     1       6.825  31.840  62.054  1.00  0.00     0.007 A 
BRANCH  20  24
HETATM   24  C   UNL     1       6.859  33.853  65.879  1.00  0.00     0.034 C 
HETATM   25  C   UNL     1       5.550  34.532  66.267  1.00  0.00     0.010 C 
ENDBRANCH  20  24
ENDBRANCH  17  18
ENDBRANCH   1  17
TORSDOF 5
ENDMDL
MODEL 4
REMARK VINA RESULT:      -9.0      4.740      7.936
REMARK  5 active torsions:
REMARK  status: ('A' for Active; 'I' for Inactive)
REMARK    1  A    between atoms: C_2  and  C_3 
REMARK    2  A    between atoms: C_5  and  C_6 
REMARK    3  A    between atoms: C_6  and  C_7 
REMARK       I    between atoms: C_7  and  N_8 
REMARK    4  A    between atoms: N_8  and  C_9 
REMARK    5  A    between atoms: C_11  and  C_12 
ROOT
HETATM    1  C   UNL     1       6.188  26.503  54.861  1.00  0.00     0.226 C 
HETATM    2  N   UNL     1       5.021  26.325  54.134  1.00  0.00    -0.327 N 
HETATM    3  O   UNL     1       7.072  27.323  54.633  1.00  0.00    -0.273 OA
HETATM    4  H   UNL     1       4.394  25.601  54.465  1.00  0.00     0.169 HD
ENDROOT
BRANCH   2   5
HETATM    5  C   UNL     1       4.550  27.107  53.058  1.00  0.00     0.035 A 
HETATM    6  C   UNL     1       4.900  26.887  51.721  1.00  0.00     0.042 A 
HETATM    7  C   UNL     1       4.435  27.727  50.694  1.00  0.00    -0.021 A 
HETATM    8  C   UNL     1       3.589  28.790  51.032  1.00  0.00     0.012 A 
HETATM    9  C   UNL     1       3.222  29.012  52.360  1.00  0.00     0.003 A 
HETATM   10  C   UNL     1       3.703  28.175  53.367  1.00  0.00     0.029 A 
BRANCH   7  11
HETATM   11  C   UNL     1       4.822  27.512  49.304  1.00  0.00     0.010 A 
HETATM   12  C   UNL     1       4.540  26.446  48.414  1.00  0.00     0.152 A 
HETATM   13  N   UNL     1       5.069  26.624  47.200  1.00  0.00    -0.187 NA
HETATM   14  N   UNL     1       5.699  27.804  47.305  1.00  0.00    -0.289 N 
HETATM   15  H   UNL     1       6.190  28.162  46.493  1.00  0.00     0.188 HD
HETATM   16  C   UNL     1       5.576  28.376  48.538  1.00  0.00     0.123 A 
ENDBRANCH   7  11
ENDBRANCH   2   5
BRANCH   1  17
HETATM   17  C   UNL     1       6.308  25.545  56.037  1.00  0.00     0.141 C 
BRANCH  17  18
HETATM   18  C   UNL     1       7.093  24.277  55.770  1.00  0.00    -0.049 A 
HETATM   19  C   UNL     1       7.115  23.650  54.511  1.00  0.00     0.014 A 
HETATM   20  C   UNL     1       7.855  22.480  54.288  1.00  0.00    -0.058 A 
HETATM   21  C   UNL     1       8.527  21.900  55.373  1.00  0.00     0.007 A 
HETATM   22  C   UNL     1       8.485  22.487  56.637  1.00  0.00     0.001 A 
HETATM   23  C   UNL     1       7.776  23.671  56.834  1.00  0.00     0.007 A 
BRANCH  20  24
HETATM   24  C   UNL     1       7.916  21.789  52.945  1.00  0.00     0.034 C 
HETATM   25  C   UNL     1       8.378  20.336  52.952  1.00  0.00     0.010 C 
ENDBRANCH  20  24
ENDBRANCH  17  18
ENDBRANCH   1  17
TORSDOF 5
ENDMDL
MODEL 5
REMARK VINA RESULT:      -8.8      5.373      8.525
REMARK  5 active torsions:
REMARK  status: ('A' for Active; 'I' for Inactive)
REMARK    1  A    between atoms: C_2  and  C_3 
REMARK    2  A    between atoms: C_5  and  C_6 
REMARK    3  A    between atoms: C_6  and  C_7 
REMARK       I    between atoms: C_7  and  N_8 
REMARK    4  A    between atoms: N_8  and  C_9 
REMARK    5  A    between atoms: C_11  and  C_12 
ROOT
HETATM    1  C   UNL     1       6.282  25.275  51.941  1.00  0.00     0.226 C 
HETATM    2  N   UNL     1       6.256  26.341  51.056  1.00  0.00    -0.327 N 
HETATM    3  O   UNL     1       5.340  24.855  52.606  1.00  0.00    -0.273 OA
HETATM    4  H   UNL     1       7.128  26.552  50.584  1.00  0.00     0.169 HD
ENDROOT
BRANCH   2   5
HETATM    5  C   UNL     1       5.134  27.094  50.649  1.00  0.00     0.035 A 
HETATM    6  C   UNL     1       4.317  26.755  49.565  1.00  0.00     0.042 A 
HETATM    7  C   UNL     1       3.237  27.569  49.179  1.00  0.00    -0.021 A 
HETATM    8  C   UNL     1       2.978  28.731  49.916  1.00  0.00     0.012 A 
HETATM    9  C   UNL     1       3.779  29.073  51.006  1.00  0.00     0.003 A 
HETATM   10  C   UNL     1       4.853  28.260  51.368  1.00  0.00     0.029 A 
BRANCH   7  11
HETATM   11  C   UNL     1       2.402  27.227  48.033  1.00  0.00     0.010 A 
HETATM   12  C   UNL     1       1.192  27.792  47.562  1.00  0.00     0.152 A 
HETATM   13  N   UNL     1       0.733  27.202  46.454  1.00  0.00    -0.187 NA
HETATM   14  N   UNL     1       1.646  26.250  46.209  1.00  0.00    -0.289 N 
HETATM   15  H   UNL     1       1.515  25.652  45.401  1.00  0.00     0.188 HD
HETATM   16  C   UNL     1       2.665  26.228  47.118  1.00  0.00     0.123 A 
ENDBRANCH   7  11
ENDBRANCH   2   5
BRANCH   1  17
HETATM   17  C   UNL     1       7.652  24.620  52.043  1.00  0.00     0.141 C 
BRANCH  17  18
HETATM   18  C   UNL     1       7.839  23.673  53.211  1.00  0.00    -0.049 A 
HETATM   19  C   UNL     1       8.134  24.123  54.511  1.00  0.00     0.014 A 
HETATM   20  C   UNL     1       8.297  23.226  55.577  1.00  0.00    -0.058 A 
HETATM   21  C   UNL     1       8.228  21.852  55.308  1.00  0.00     0.007 A 
HETATM   22  C   UNL     1       7.975  21.388  54.018  1.00  0.00     0.001 A 
HETATM   23  C   UNL     1       7.777  22.293  52.977  1.00  0.00     0.007 A 
BRANCH  20  24
HETATM   24  C   UNL     1       8.596  23.674  56.990  1.00  0.00     0.034 C 
HETATM   25  C   UNL     1       8.131  25.076  57.368  1.00  0.00     0.010 C 
ENDBRANCH  20  24
ENDBRANCH  17  18
ENDBRANCH   1  17
TORSDOF 5
ENDMDL
MODEL 6
REMARK VINA RESULT:      -8.7      1.570      2.272
REMARK  5 active torsions:
REMARK  status: ('A' for Active; 'I' for Inactive)
REMARK    1  A    between atoms: C_2  and  C_3 
REMARK    2  A    between atoms: C_5  and  C_6 
REMARK    3  A    between atoms: C_6  and  C_7 
REMARK       I    between atoms: C_7  and  N_8 
REMARK    4  A    between atoms: N_8  and  C_9 
REMARK    5  A    between atoms: C_11  and  C_12 
ROOT
HETATM    1  C   UNL     1       8.110  27.883  57.211  1.00  0.00     0.226 C 
HETATM    2  N   UNL     1       7.826  27.786  55.857  1.00  0.00    -0.327 N 
HETATM    3  O   UNL     1       7.716  27.129  58.095  1.00  0.00    -0.273 OA
HETATM    4  H   UNL     1       8.238  28.494  55.262  1.00  0.00     0.169 HD
ENDROOT
BRANCH   2   5
HETATM    5  C   UNL     1       7.125  26.754  55.197  1.00  0.00     0.035 A 
HETATM    6  C   UNL     1       7.582  25.435  55.102  1.00  0.00     0.042 A 
HETATM    7  C   UNL     1       6.861  24.459  54.393  1.00  0.00    -0.021 A 
HETATM    8  C   UNL     1       5.652  24.826  53.790  1.00  0.00     0.012 A 
HETATM    9  C   UNL     1       5.178  26.135  53.889  1.00  0.00     0.003 A 
HETATM   10  C   UNL     1       5.913  27.094  54.587  1.00  0.00     0.029 A 
BRANCH   7  11
HETATM   11  C   UNL     1       7.353  23.091  54.273  1.00  0.00     0.010 A 
HETATM   12  C   UNL     1       7.728  22.333  53.136  1.00  0.00     0.152 A 
HETATM   13  N   UNL     1       8.149  21.102  53.442  1.00  0.00    -0.187 NA
HETATM   14  N   UNL     1       8.042  21.060  54.779  1.00  0.00    -0.289 N 
HETATM   15  H   UNL     1       8.307  20.207  55.257  1.00  0.00     0.188 HD
HETATM   16  C   UNL     1       7.578  22.223  55.322  1.00  0.00     0.123 A 
ENDBRANCH   7  11
ENDBRANCH   2   5
BRANCH   1  17
HETATM   17  C   UNL     1       8.999  29.071  57.548  1.00  0.00     0.141 C 
BRANCH  17  18
HETATM   18  C   UNL     1       8.397  30.092  58.492  1.00  0.00    -0.049 A 
HETATM   19  C   UNL     1       8.995  30.433  59.718  1.00  0.00     0.014 A 
HETATM   20  C   UNL     1       8.421  31.387  60.572  1.00  0.00    -0.058 A 
HETATM   21  C   UNL     1       7.189  31.951  60.209  1.00  0.00     0.007 A 
HETATM   22  C   UNL     1       6.564  31.594  59.015  1.00  0.00     0.001 A 
HETATM   23  C   UNL     1       7.166  30.674  58.159  1.00  0.00     0.007 A 
BRANCH  20  24
HETATM   24  C   UNL     1       9.043  31.792  61.889  1.00  0.00     0.034 C 
HETATM   25  C   UNL     1       8.094  32.354  62.941  1.00  0.00     0.010 C 
ENDBRANCH  20  24
ENDBRANCH  17  18
ENDBRANCH   1  17
TORSDOF 5
ENDMDL
MODEL 7
REMARK VINA RESULT:      -8.6      5.773      9.373
REMARK  5 active torsions:
REMARK  status: ('A' for Active; 'I' for Inactive)
REMARK    1  A    between atoms: C_2  and  C_3 
REMARK    2  A    between atoms: C_5  and  C_6 
REMARK    3  A    between atoms: C_6  and  C_7 
REMARK       I    between atoms: C_7  and  N_8 
REMARK    4  A    between atoms: N_8  and  C_9 
REMARK    5  A    between atoms: C_11  and  C_12 
ROOT
HETATM    1  C   UNL     1       5.705  25.773  51.668  1.00  0.00     0.226 C 
HETATM    2  N   UNL     1       5.605  27.069  51.186  1.00  0.00    -0.327 N 
HETATM    3  O   UNL     1       4.775  25.038  51.986  1.00  0.00    -0.273 OA
HETATM    4  H   UNL     1       6.478  27.534  50.969  1.00  0.00     0.169 HD
ENDROOT
BRANCH   2   5
HETATM    5  C   UNL     1       4.428  27.775  50.856  1.00  0.00     0.035 A 
HETATM    6  C   UNL     1       3.712  27.587  49.668  1.00  0.00     0.042 A 
HETATM    7  C   UNL     1       2.570  28.352  49.373  1.00  0.00    -0.021 A 
HETATM    8  C   UNL     1       2.143  29.305  50.306  1.00  0.00     0.012 A 
HETATM    9  C   UNL     1       2.841  29.492  51.500  1.00  0.00     0.003 A 
HETATM   10  C   UNL     1       3.980  28.732  51.771  1.00  0.00     0.029 A 
BRANCH   7  11
HETATM   11  C   UNL     1       1.840  28.173  48.123  1.00  0.00     0.010 A 
HETATM   12  C   UNL     1       1.109  27.068  47.623  1.00  0.00     0.152 A 
HETATM   13  N   UNL     1       0.562  27.299  46.425  1.00  0.00    -0.187 NA
HETATM   14  N   UNL     1       0.944  28.555  46.147  1.00  0.00    -0.289 N 
HETATM   15  H   UNL     1       0.648  28.966  45.269  1.00  0.00     0.188 HD
HETATM   16  C   UNL     1       1.702  29.122  47.130  1.00  0.00     0.123 A 
ENDBRANCH   7  11
ENDBRANCH   2   5
BRANCH   1  17
HETATM   17  C   UNL     1       7.145  25.295  51.791  1.00  0.00     0.141 C 
BRANCH  17  18
HETATM   18  C   UNL     1       7.458  24.470  53.023  1.00  0.00    -0.049 A 
HETATM   19  C   UNL     1       7.575  23.069  52.986  1.00  0.00     0.014 A 
HETATM   20  C   UNL     1       7.872  22.328  54.140  1.00  0.00    -0.058 A 
HETATM   21  C   UNL     1       7.983  23.011  55.360  1.00  0.00     0.007 A 
HETATM   22  C   UNL     1       7.832  24.396  55.420  1.00  0.00     0.001 A 
HETATM   23  C   UNL     1       7.575  25.121  54.259  1.00  0.00     0.007 A 
BRANCH  20  24
HETATM   24  C   UNL     1       8.023  20.824  54.136  1.00  0.00     0.034 C 
HETATM   25  C   UNL     1       8.516  20.198  52.836  1.00  0.00     0.010 C 
ENDBRANCH  20  24
ENDBRANCH  17  18
ENDBRANCH   1  17
TORSDOF 5
ENDMDL
MODEL 8
REMARK VINA RESULT:      -8.5      3.874      6.892
REMARK  5 active torsions:
REMARK  status: ('A' for Active; 'I' for Inactive)
REMARK    1  A    between atoms: C_2  and  C_3 
REMARK    2  A    between atoms: C_5  and  C_6 
REMARK    3  A    between atoms: C_6  and  C_7 
REMARK       I    between atoms: C_7  and  N_8 
REMARK    4  A    between atoms: N_8  and  C_9 
REMARK    5  A    between atoms: C_11  and  C_12 
ROOT
HETATM    1  C   UNL     1       6.168  26.741  53.577  1.00  0.00     0.226 C 
HETATM    2  N   UNL     1       5.891  25.899  54.642  1.00  0.00    -0.327 N 
HETATM    3  O   UNL     1       7.277  26.992  53.114  1.00  0.00    -0.273 OA
HETATM    4  H   UNL     1       4.914  25.802  54.893  1.00  0.00     0.169 HD
ENDROOT
BRANCH   2   5
HETATM    5  C   UNL     1       6.795  25.073  55.344  1.00  0.00     0.035 A 
HETATM    6  C   UNL     1       7.156  23.785  54.934  1.00  0.00     0.042 A 
HETATM    7  C   UNL     1       8.028  22.990  55.698  1.00  0.00    -0.021 A 
HETATM    8  C   UNL     1       8.553  23.522  56.883  1.00  0.00     0.012 A 
HETATM    9  C   UNL     1       8.211  24.810  57.295  1.00  0.00     0.003 A 
HETATM   10  C   UNL     1       7.334  25.580  56.530  1.00  0.00     0.029 A 
BRANCH   7  11
HETATM   11  C   UNL     1       8.383  21.638  55.282  1.00  0.00     0.010 A 
HETATM   12  C   UNL     1       8.332  21.012  54.013  1.00  0.00     0.152 A 
HETATM   13  N   UNL     1       8.762  19.746  54.034  1.00  0.00    -0.187 NA
HETATM   14  N   UNL     1       9.087  19.551  55.321  1.00  0.00    -0.289 N 
HETATM   15  H   UNL     1       9.446  18.643  55.596  1.00  0.00     0.188 HD
HETATM   16  C   UNL     1       8.886  20.650  56.105  1.00  0.00     0.123 A 
ENDBRANCH   7  11
ENDBRANCH   2   5
BRANCH   1  17
HETATM   17  C   UNL     1       4.921  27.382  52.986  1.00  0.00     0.141 C 
BRANCH  17  18
HETATM   18  C   UNL     1       5.038  27.835  51.545  1.00  0.00    -0.049 A 
HETATM   19  C   UNL     1       4.806  26.972  50.459  1.00  0.00     0.014 A 
HETATM   20  C   UNL     1       4.915  27.418  49.133  1.00  0.00    -0.058 A 
HETATM   21  C   UNL     1       5.332  28.737  48.905  1.00  0.00     0.007 A 
HETATM   22  C   UNL     1       5.603  29.595  49.971  1.00  0.00     0.001 A 
HETATM   23  C   UNL     1       5.453  29.148  51.283  1.00  0.00     0.007 A 
BRANCH  20  24
HETATM   24  C   UNL     1       4.656  26.525  47.941  1.00  0.00     0.034 C 
HETATM   25  C   UNL     1       3.288  26.657  47.281  1.00  0.00     0.010 C 
ENDBRANCH  20  24
ENDBRANCH  17  18
ENDBRANCH   1  17
TORSDOF 5
ENDMDL
MODEL 9
REMARK VINA RESULT:      -8.4      5.398      9.188
REMARK  5 active torsions:
REMARK  status: ('A' for Active; 'I' for Inactive)
REMARK    1  A    between atoms: C_2  and  C_3 
REMARK    2  A    between atoms: C_5  and  C_6 
REMARK    3  A    between atoms: C_6  and  C_7 
REMARK       I    between atoms: C_7  and  N_8 
REMARK    4  A    between atoms: N_8  and  C_9 
REMARK    5  A    between atoms: C_11  and  C_12 
ROOT
HETATM    1  C   UNL     1       5.723  25.717  51.881  1.00  0.00     0.226 C 
HETATM    2  N   UNL     1       4.693  26.023  51.005  1.00  0.00    -0.327 N 
HETATM    3  O   UNL     1       6.887  26.099  51.802  1.00  0.00    -0.273 OA
HETATM    4  H   UNL     1       3.788  25.624  51.223  1.00  0.00     0.169 HD
ENDROOT
BRANCH   2   5
HETATM    5  C   UNL     1       4.730  26.916  49.913  1.00  0.00     0.035 A 
HETATM    6  C   UNL     1       5.012  28.281  50.029  1.00  0.00     0.042 A 
HETATM    7  C   UNL     1       4.991  29.132  48.909  1.00  0.00    -0.021 A 
HETATM    8  C   UNL     1       4.697  28.580  47.656  1.00  0.00     0.012 A 
HETATM    9  C   UNL     1       4.426  27.218  47.526  1.00  0.00     0.003 A 
HETATM   10  C   UNL     1       4.440  26.391  48.649  1.00  0.00     0.029 A 
BRANCH   7  11
HETATM   11  C   UNL     1       5.259  30.559  49.037  1.00  0.00     0.010 A 
HETATM   12  C   UNL     1       5.113  31.620  48.109  1.00  0.00     0.152 A 
HETATM   13  N   UNL     1       5.455  32.809  48.614  1.00  0.00    -0.187 NA
HETATM   14  N   UNL     1       5.827  32.518  49.870  1.00  0.00    -0.289 N 
HETATM   15  H   UNL     1       6.139  33.275  50.468  1.00  0.00     0.188 HD
HETATM   16  C   UNL     1       5.723  31.191  50.173  1.00  0.00     0.123 A 
ENDBRANCH   7  11
ENDBRANCH   2   5
BRANCH   1  17
HETATM   17  C   UNL     1       5.285  24.807  53.020  1.00  0.00     0.141 C 
BRANCH  17  18
HETATM   18  C   UNL     1       6.404  24.212  53.850  1.00  0.00    -0.049 A 
HETATM   19  C   UNL     1       7.142  23.091  53.431  1.00  0.00     0.014 A 
HETATM   20  C   UNL     1       8.178  22.561  54.216  1.00  0.00    -0.058 A 
HETATM   21  C   UNL     1       8.422  23.135  55.472  1.00  0.00     0.007 A 
HETATM   22  C   UNL     1       7.673  24.223  55.918  1.00  0.00     0.001 A 
HETATM   23  C   UNL     1       6.673  24.761  55.111  1.00  0.00     0.007 A 
BRANCH  20  24
HETATM   24  C   UNL     1       9.004  21.369  53.791  1.00  0.00     0.034 C 
HETATM   25  C   UNL     1       8.354  20.415  52.795  1.00  0.00     0.010 C 
ENDBRANCH  20  24
ENDBRANCH  17  18
ENDBRANCH   1  17
TORSDOF 5
ENDMDL
MODEL 10
REMARK VINA RESULT:      -8.3      1.587      2.426
REMARK  5 active torsions:
REMARK  status: ('A' for Active; 'I' for Inactive)
REMARK    1  A    between atoms: C_2  and  C_3 
REMARK    2  A    between atoms: C_5  and  C_6 
REMARK    3  A    between atoms: C_6  and  C_7 
REMARK       I    between atoms: C_7  and  N_8 
REMARK    4  A    between atoms: N_8  and  C_9 
REMARK    5  A    between atoms: C_11  and  C_12 
ROOT
HETATM    1  C   UNL     1       6.628  27.780  54.996  1.00  0.00     0.226 C 
HETATM    2  N   UNL     1       6.395  26.424  55.165  1.00  0.00    -0.327 N 
HETATM    3  O   UNL     1       7.414  28.292  54.205  1.00  0.00    -0.273 OA
HETATM    4  H   UNL     1       5.705  26.172  55.863  1.00  0.00     0.169 HD
ENDROOT
BRANCH   2   5
HETATM    5  C   UNL     1       6.921  25.359  54.402  1.00  0.00     0.035 A 
HETATM    6  C   UNL     1       7.317  24.131  54.944  1.00  0.00     0.042 A 
HETATM    7  C   UNL     1       7.875  23.122  54.140  1.00  0.00    -0.021 A 
HETATM    8  C   UNL     1       8.015  23.360  52.767  1.00  0.00     0.012 A 
HETATM    9  C   UNL     1       7.612  24.576  52.213  1.00  0.00     0.003 A 
HETATM   10  C   UNL     1       7.070  25.571  53.028  1.00  0.00     0.029 A 
BRANCH   7  11
HETATM   11  C   UNL     1       8.312  21.853  54.711  1.00  0.00     0.010 A 
HETATM   12  C   UNL     1       8.478  21.447  56.058  1.00  0.00     0.152 A 
HETATM   13  N   UNL     1       8.886  20.180  56.178  1.00  0.00    -0.187 NA
HETATM   14  N   UNL     1       8.988  19.765  54.906  1.00  0.00    -0.289 N 
HETATM   15  H   UNL     1       9.291  18.813  54.732  1.00  0.00     0.188 HD
HETATM   16  C   UNL     1       8.650  20.723  53.994  1.00  0.00     0.123 A 
ENDBRANCH   7  11
ENDBRANCH   2   5
BRANCH   1  17
HETATM   17  C   UNL     1       5.790  28.647  55.923  1.00  0.00     0.141 C 
BRANCH  17  18
HETATM   18  C   UNL     1       6.569  29.553  56.854  1.00  0.00    -0.049 A 
HETATM   19  C   UNL     1       7.957  29.428  57.046  1.00  0.00     0.014 A 
HETATM   20  C   UNL     1       8.657  30.284  57.909  1.00  0.00    -0.058 A 
HETATM   21  C   UNL     1       7.930  31.235  58.640  1.00  0.00     0.007 A 
HETATM   22  C   UNL     1       6.548  31.346  58.490  1.00  0.00     0.001 A 
HETATM   23  C   UNL     1       5.872  30.514  57.600  1.00  0.00     0.007 A 
BRANCH  20  24
HETATM   24  C   UNL     1      10.150  30.192  58.126  1.00  0.00     0.034 C 
HETATM   25  C   UNL     1      10.974  29.674  56.952  1.00  0.00     0.010 C 
ENDBRANCH  20  24
ENDBRANCH  17  18
ENDBRANCH   1  17
TORSDOF 5
ENDMDL
