MODEL 1
REMARK VINA RESULT:      -9.3      0.000      0.000
REMARK  5 active torsions:
REMARK  status: ('A' for Active; 'I' for Inactive)
REMARK    1  A    between atoms: C_2  and  C_3 
REMARK    2  A    between atoms: C_6  and  C_7 
REMARK    3  A    between atoms: C_7  and  N_8 
REMARK    4  A    between atoms: C_7  and  C_21 
REMARK       I    between atoms: N_8  and  C_9 
REMARK       I    between atoms: C_9  and  N_10 
REMARK    5  A    between atoms: N_10  and  N_11 
ROOT
HETATM    1  N   UNL     1       7.315  27.011  56.871  1.00  0.00    -0.333 N 
HETATM    2  C   UNL     1       7.315  25.656  56.819  1.00  0.00     0.335 C 
HETATM    3  N   UNL     1       8.322  25.077  56.110  1.00  0.00    -0.244 N 
HETATM    4  O   UNL     1       6.401  25.041  57.360  1.00  0.00    -0.246 OA
HETATM    5  H   UNL     1       6.547  27.368  57.423  1.00  0.00     0.165 HD
HETATM    6  H   UNL     1       9.222  25.527  56.140  1.00  0.00     0.192 HD
ENDROOT
BRANCH   1   7
HETATM    7  C   UNL     1       8.193  27.993  56.234  1.00  0.00     0.122 C 
BRANCH   7   8
HETATM    8  C   UNL     1       8.595  29.024  57.279  1.00  0.00    -0.035 A 
HETATM    9  C   UNL     1       9.771  29.770  57.114  1.00  0.00     0.010 A 
HETATM   10  C   UNL     1      10.145  30.730  58.059  1.00  0.00     0.007 A 
HETATM   11  C   UNL     1       9.357  30.958  59.192  1.00  0.00    -0.059 A 
HETATM   12  C   UNL     1       8.184  30.213  59.362  1.00  0.00     0.007 A 
HETATM   13  C   UNL     1       7.809  29.256  58.418  1.00  0.00     0.010 A 
BRANCH  11  14
HETATM   14  C   UNL     1       9.744  32.011  60.198  1.00  0.00     0.034 C 
HETATM   15  C   UNL     1       9.006  31.829  61.516  1.00  0.00     0.010 C 
ENDBRANCH  11  14
ENDBRANCH   7   8
BRANCH   7  16
HETATM   16  C   UNL     1       7.519  28.617  54.980  1.00  0.00     0.005 C 
HETATM   17  C   UNL     1       7.682  27.724  53.742  1.00  0.00     0.012 C 
HETATM   18  C   UNL     1       6.021  28.857  55.218  1.00  0.00     0.012 C 
ENDBRANCH   7  16
ENDBRANCH   1   7
BRANCH   3  19
HETATM   19  N   UNL     1       8.416  23.723  56.143  1.00  0.00    -0.244 N 
HETATM   20  C   UNL     1       8.222  22.910  55.062  1.00  0.00     0.086 A 
HETATM   21  C   UNL     1       8.174  21.637  55.634  1.00  0.00     0.086 A 
HETATM   22  C   UNL     1       8.076  23.133  53.687  1.00  0.00     0.034 A 
HETATM   23  C   UNL     1       7.975  20.522  54.806  1.00  0.00     0.034 A 
HETATM   24  N   UNL     1       8.323  21.692  57.004  1.00  0.00    -0.240 NA
HETATM   25  C   UNL     1       7.823  20.723  53.429  1.00  0.00     0.002 A 
HETATM   26  C   UNL     1       7.873  22.006  52.882  1.00  0.00     0.002 A 
HETATM   27  C   UNL     1       8.461  22.972  57.279  1.00  0.00     0.234 A 
ENDBRANCH   3  19
TORSDOF 5
ENDMDL
MODEL 2
REMARK VINA RESULT:      -9.2      2.195      8.305
REMARK  5 active torsions:
REMARK  status: ('A' for Active; 'I' for Inactive)
REMARK    1  A    between atoms: C_2  and  C_3 
REMARK    2  A    between atoms: C_6  and  C_7 
REMARK    3  A    between atoms: C_7  and  N_8 
REMARK    4  A    between atoms: C_7  and  C_21 
REMARK       I    between atoms: N_8  and  C_9 
REMARK       I    between atoms: C_9  and  N_10 
REMARK    5  A    between atoms: N_10  and  N_11 
ROOT
HETATM    1  N   UNL     1       7.616  27.115  54.798  1.00  0.00    -0.333 N 
HETATM    2  C   UNL     1       8.363  28.119  55.322  1.00  0.00     0.335 C 
HETATM    3  N   UNL     1       8.507  28.124  56.675  1.00  0.00    -0.244 N 
HETATM    4  O   UNL     1       8.816  28.976  54.570  1.00  0.00    -0.246 OA
HETATM    5  H   UNL     1       7.564  27.169  53.790  1.00  0.00     0.165 HD
HETATM    6  H   UNL     1       8.569  27.230  57.133  1.00  0.00     0.192 HD
ENDROOT
BRANCH   1   7
HETATM    7  C   UNL     1       6.868  26.040  55.449  1.00  0.00     0.122 C 
BRANCH   7   8
HETATM    8  C   UNL     1       7.243  24.724  54.783  1.00  0.00    -0.035 A 
HETATM    9  C   UNL     1       7.205  23.529  55.515  1.00  0.00     0.010 A 
HETATM   10  C   UNL     1       7.533  22.311  54.913  1.00  0.00     0.007 A 
HETATM   11  C   UNL     1       7.917  22.264  53.568  1.00  0.00    -0.059 A 
HETATM   12  C   UNL     1       7.959  23.454  52.833  1.00  0.00     0.007 A 
HETATM   13  C   UNL     1       7.628  24.670  53.434  1.00  0.00     0.010 A 
BRANCH  11  14
HETATM   14  C   UNL     1       8.244  20.949  52.908  1.00  0.00     0.034 C 
HETATM   15  C   UNL     1       8.805  19.945  53.904  1.00  0.00     0.010 C 
ENDBRANCH  11  14
ENDBRANCH   7   8
BRANCH   7  16
HETATM   16  C   UNL     1       5.340  26.328  55.427  1.00  0.00     0.005 C 
HETATM   17  C   UNL     1       4.921  27.260  56.572  1.00  0.00     0.012 C 
HETATM   18  C   UNL     1       4.915  26.963  54.096  1.00  0.00     0.012 C 
ENDBRANCH   7  16
ENDBRANCH   1   7
BRANCH   3  19
HETATM   19  N   UNL     1       9.347  29.044  57.214  1.00  0.00    -0.244 N 
HETATM   20  C   UNL     1       8.973  29.987  58.131  1.00  0.00     0.086 A 
HETATM   21  C   UNL     1      10.085  30.830  58.183  1.00  0.00     0.086 A 
HETATM   22  C   UNL     1       7.818  30.200  58.894  1.00  0.00     0.034 A 
HETATM   23  C   UNL     1      10.059  31.944  59.036  1.00  0.00     0.034 A 
HETATM   24  N   UNL     1      11.077  30.412  57.322  1.00  0.00    -0.240 NA
HETATM   25  C   UNL     1       8.913  32.178  59.806  1.00  0.00     0.002 A 
HETATM   26  C   UNL     1       7.814  31.320  59.734  1.00  0.00     0.002 A 
HETATM   27  C   UNL     1      10.593  29.331  56.746  1.00  0.00     0.234 A 
ENDBRANCH   3  19
TORSDOF 5
ENDMDL
MODEL 3
REMARK VINA RESULT:      -9.2      4.164      8.026
REMARK  5 active torsions:
REMARK  status: ('A' for Active; 'I' for Inactive)
REMARK    1  A    between atoms: C_2  and  C_3 
REMARK    2  A    between atoms: C_6  and  C_7 
REMARK    3  A    between atoms: C_7  and  N_8 
REMARK    4  A    between atoms: C_7  and  C_21 
REMARK       I    between atoms: N_8  and  C_9 
REMARK       I    between atoms: C_9  and  N_10 
REMARK    5  A    between atoms: N_10  and  N_11 
ROOT
HETATM    1  N   UNL     1       5.518  27.004  54.365  1.00  0.00    -0.333 N 
HETATM    2  C   UNL     1       5.008  27.647  53.286  1.00  0.00     0.335 C 
HETATM    3  N   UNL     1       5.900  28.041  52.336  1.00  0.00    -0.244 N 
HETATM    4  O   UNL     1       3.803  27.877  53.247  1.00  0.00    -0.246 OA
HETATM    5  H   UNL     1       4.797  26.733  55.020  1.00  0.00     0.165 HD
HETATM    6  H   UNL     1       6.689  27.438  52.171  1.00  0.00     0.192 HD
ENDROOT
BRANCH   1   7
HETATM    7  C   UNL     1       6.902  26.702  54.732  1.00  0.00     0.122 C 
BRANCH   7   8
HETATM    8  C   UNL     1       7.216  25.281  54.286  1.00  0.00    -0.035 A 
HETATM    9  C   UNL     1       7.027  24.209  55.169  1.00  0.00     0.010 A 
HETATM   10  C   UNL     1       7.298  22.898  54.769  1.00  0.00     0.007 A 
HETATM   11  C   UNL     1       7.774  22.632  53.480  1.00  0.00    -0.059 A 
HETATM   12  C   UNL     1       7.967  23.699  52.596  1.00  0.00     0.007 A 
HETATM   13  C   UNL     1       7.693  25.009  52.995  1.00  0.00     0.010 A 
BRANCH  11  14
HETATM   14  C   UNL     1       8.041  21.216  53.036  1.00  0.00     0.034 C 
HETATM   15  C   UNL     1       8.396  20.317  54.211  1.00  0.00     0.010 C 
ENDBRANCH  11  14
ENDBRANCH   7   8
BRANCH   7  16
HETATM   16  C   UNL     1       7.143  26.939  56.250  1.00  0.00     0.005 C 
HETATM   17  C   UNL     1       8.175  28.049  56.495  1.00  0.00     0.012 C 
HETATM   18  C   UNL     1       5.839  27.314  56.967  1.00  0.00     0.012 C 
ENDBRANCH   7  16
ENDBRANCH   1   7
BRANCH   3  19
HETATM   19  N   UNL     1       5.404  28.576  51.192  1.00  0.00    -0.244 N 
HETATM   20  C   UNL     1       5.002  27.845  50.109  1.00  0.00     0.086 A 
HETATM   21  C   UNL     1       4.821  28.818  49.125  1.00  0.00     0.086 A 
HETATM   22  C   UNL     1       4.789  26.480  49.879  1.00  0.00     0.034 A 
HETATM   23  C   UNL     1       4.405  28.426  47.843  1.00  0.00     0.034 A 
HETATM   24  N   UNL     1       5.116  30.079  49.600  1.00  0.00    -0.240 NA
HETATM   25  C   UNL     1       4.190  27.066  47.590  1.00  0.00     0.002 A 
HETATM   26  C   UNL     1       4.380  26.112  48.591  1.00  0.00     0.002 A 
HETATM   27  C   UNL     1       5.473  29.893  50.854  1.00  0.00     0.234 A 
ENDBRANCH   3  19
TORSDOF 5
ENDMDL
MODEL 4
REMARK VINA RESULT:      -9.0      2.605      7.882
REMARK  5 active torsions:
REMARK  status: ('A' for Active; 'I' for Inactive)
REMARK    1  A    between atoms: C_2  and  C_3 
REMARK    2  A    between atoms: C_6  and  C_7 
REMARK    3  A    between atoms: C_7  and  N_8 
REMARK    4  A    between atoms: C_7  and  C_21 
REMARK       I    between atoms: N_8  and  C_9 
REMARK       I    between atoms: C_9  and  N_10 
REMARK    5  A    between atoms: N_10  and  N_11 
ROOT
HETATM    1  N   UNL     1       7.454  26.882  53.467  1.00  0.00    -0.333 N 
HETATM    2  C   UNL     1       7.635  27.715  54.523  1.00  0.00     0.335 C 
HETATM    3  N   UNL     1       6.794  27.545  55.579  1.00  0.00    -0.244 N 
HETATM    4  O   UNL     1       8.495  28.587  54.449  1.00  0.00    -0.246 OA
HETATM    5  H   UNL     1       8.121  27.059  52.728  1.00  0.00     0.165 HD
HETATM    6  H   UNL     1       6.508  26.604  55.791  1.00  0.00     0.192 HD
ENDROOT
BRANCH   1   7
HETATM    7  C   UNL     1       6.451  25.845  53.229  1.00  0.00     0.122 C 
BRANCH   7   8
HETATM    8  C   UNL     1       7.041  24.504  53.641  1.00  0.00    -0.035 A 
HETATM    9  C   UNL     1       7.801  23.759  52.728  1.00  0.00     0.010 A 
HETATM   10  C   UNL     1       8.361  22.533  53.098  1.00  0.00     0.007 A 
HETATM   11  C   UNL     1       8.164  22.020  54.385  1.00  0.00    -0.059 A 
HETATM   12  C   UNL     1       7.403  22.759  55.299  1.00  0.00     0.007 A 
HETATM   13  C   UNL     1       6.847  23.985  54.931  1.00  0.00     0.010 A 
BRANCH  11  14
HETATM   14  C   UNL     1       8.789  20.712  54.795  1.00  0.00     0.034 C 
HETATM   15  C   UNL     1       8.215  20.202  56.108  1.00  0.00     0.010 C 
ENDBRANCH  11  14
ENDBRANCH   7   8
BRANCH   7  16
HETATM   16  C   UNL     1       5.956  25.872  51.755  1.00  0.00     0.005 C 
HETATM   17  C   UNL     1       4.734  24.966  51.548  1.00  0.00     0.012 C 
HETATM   18  C   UNL     1       5.589  27.298  51.320  1.00  0.00     0.012 C 
ENDBRANCH   7  16
ENDBRANCH   1   7
BRANCH   3  19
HETATM   19  N   UNL     1       7.031  28.281  56.695  1.00  0.00    -0.244 N 
HETATM   20  C   UNL     1       6.486  29.511  56.938  1.00  0.00     0.086 A 
HETATM   21  C   UNL     1       7.205  29.957  58.049  1.00  0.00     0.086 A 
HETATM   22  C   UNL     1       5.481  30.270  56.325  1.00  0.00     0.034 A 
HETATM   23  C   UNL     1       6.916  31.220  58.588  1.00  0.00     0.034 A 
HETATM   24  N   UNL     1       8.149  29.033  58.444  1.00  0.00    -0.240 NA
HETATM   25  C   UNL     1       5.917  31.997  57.990  1.00  0.00     0.002 A 
HETATM   26  C   UNL     1       5.214  31.528  56.878  1.00  0.00     0.002 A 
HETATM   27  C   UNL     1       8.020  28.033  57.597  1.00  0.00     0.234 A 
ENDBRANCH   3  19
TORSDOF 5
ENDMDL
MODEL 5
REMARK VINA RESULT:      -8.5      4.375      8.204
REMARK  5 active torsions:
REMARK  status: ('A' for Active; 'I' for Inactive)
REMARK    1  A    between atoms: C_2  and  C_3 
REMARK    2  A    between atoms: C_6  and  C_7 
REMARK    3  A    between atoms: C_7  and  N_8 
REMARK    4  A    between atoms: C_7  and  C_21 
REMARK       I    between atoms: N_8  and  C_9 
REMARK       I    between atoms: C_9  and  N_10 
REMARK    5  A    between atoms: N_10  and  N_11 
ROOT
HETATM    1  N   UNL     1       5.708  26.960  53.883  1.00  0.00    -0.333 N 
HETATM    2  C   UNL     1       5.115  27.220  52.691  1.00  0.00     0.335 C 
HETATM    3  N   UNL     1       5.924  27.217  51.597  1.00  0.00    -0.244 N 
HETATM    4  O   UNL     1       3.917  27.486  52.671  1.00  0.00    -0.246 OA
HETATM    5  H   UNL     1       5.045  26.968  54.646  1.00  0.00     0.165 HD
HETATM    6  H   UNL     1       6.681  26.553  51.589  1.00  0.00     0.192 HD
ENDROOT
BRANCH   1   7
HETATM    7  C   UNL     1       7.113  26.730  54.221  1.00  0.00     0.122 C 
BRANCH   7   8
HETATM    8  C   UNL     1       7.356  25.228  54.261  1.00  0.00    -0.035 A 
HETATM    9  C   UNL     1       7.168  24.517  55.454  1.00  0.00     0.010 A 
HETATM   10  C   UNL     1       7.374  23.136  55.502  1.00  0.00     0.007 A 
HETATM   11  C   UNL     1       7.781  22.437  54.360  1.00  0.00    -0.059 A 
HETATM   12  C   UNL     1       7.973  23.143  53.167  1.00  0.00     0.007 A 
HETATM   13  C   UNL     1       7.764  24.522  53.118  1.00  0.00     0.010 A 
BRANCH  11  14
HETATM   14  C   UNL     1       7.977  20.943  54.402  1.00  0.00     0.034 C 
HETATM   15  C   UNL     1       7.880  20.403  55.821  1.00  0.00     0.010 C 
ENDBRANCH  11  14
ENDBRANCH   7   8
BRANCH   7  16
HETATM   16  C   UNL     1       7.496  27.451  55.544  1.00  0.00     0.005 C 
HETATM   17  C   UNL     1       8.271  28.750  55.280  1.00  0.00     0.012 C 
HETATM   18  C   UNL     1       6.249  27.784  56.375  1.00  0.00     0.012 C 
ENDBRANCH   7  16
ENDBRANCH   1   7
BRANCH   3  19
HETATM   19  N   UNL     1       5.337  27.352  50.381  1.00  0.00    -0.244 N 
HETATM   20  C   UNL     1       5.198  28.540  49.719  1.00  0.00     0.086 A 
HETATM   21  C   UNL     1       4.335  28.215  48.671  1.00  0.00     0.086 A 
HETATM   22  C   UNL     1       5.705  29.831  49.916  1.00  0.00     0.034 A 
HETATM   23  C   UNL     1       3.953  29.215  47.764  1.00  0.00     0.034 A 
HETATM   24  N   UNL     1       3.965  26.887  48.714  1.00  0.00    -0.240 NA
HETATM   25  C   UNL     1       4.445  30.513  47.944  1.00  0.00     0.002 A 
HETATM   26  C   UNL     1       5.306  30.813  49.001  1.00  0.00     0.002 A 
HETATM   27  C   UNL     1       4.585  26.396  49.767  1.00  0.00     0.234 A 
ENDBRANCH   3  19
TORSDOF 5
ENDMDL
MODEL 6
REMARK VINA RESULT:      -8.3      2.177      3.182
REMARK  5 active torsions:
REMARK  status: ('A' for Active; 'I' for Inactive)
REMARK    1  A    between atoms: C_2  and  C_3 
REMARK    2  A    between atoms: C_6  and  C_7 
REMARK    3  A    between atoms: C_7  and  N_8 
REMARK    4  A    between atoms: C_7  and  C_21 
REMARK       I    between atoms: N_8  and  C_9 
REMARK       I    between atoms: C_9  and  N_10 
REMARK    5  A    between atoms: N_10  and  N_11 
ROOT
HETATM    1  N   UNL     1       5.106  28.412  57.143  1.00  0.00    -0.333 N 
HETATM    2  C   UNL     1       5.149  27.189  56.557  1.00  0.00     0.335 C 
HETATM    3  N   UNL     1       5.834  27.103  55.384  1.00  0.00    -0.244 N 
HETATM    4  O   UNL     1       4.540  26.260  57.078  1.00  0.00    -0.246 OA
HETATM    5  H   UNL     1       4.591  28.396  58.014  1.00  0.00     0.165 HD
HETATM    6  H   UNL     1       6.655  27.678  55.290  1.00  0.00     0.192 HD
ENDROOT
BRANCH   1   7
HETATM    7  C   UNL     1       5.628  29.704  56.699  1.00  0.00     0.122 C 
BRANCH   7   8
HETATM    8  C   UNL     1       6.537  30.253  57.789  1.00  0.00    -0.035 A 
HETATM    9  C   UNL     1       6.236  31.476  58.406  1.00  0.00     0.010 A 
HETATM   10  C   UNL     1       7.055  31.985  59.418  1.00  0.00     0.007 A 
HETATM   11  C   UNL     1       8.197  31.288  59.827  1.00  0.00    -0.059 A 
HETATM   12  C   UNL     1       8.503  30.069  59.212  1.00  0.00     0.007 A 
HETATM   13  C   UNL     1       7.684  29.559  58.204  1.00  0.00     0.010 A 
BRANCH  11  14
HETATM   14  C   UNL     1       9.066  31.822  60.937  1.00  0.00     0.034 C 
HETATM   15  C   UNL     1       9.418  30.739  61.946  1.00  0.00     0.010 C 
ENDBRANCH  11  14
ENDBRANCH   7   8
BRANCH   7  16
HETATM   16  C   UNL     1       4.474  30.672  56.314  1.00  0.00     0.005 C 
HETATM   17  C   UNL     1       4.253  30.719  54.796  1.00  0.00     0.012 C 
HETATM   18  C   UNL     1       3.157  30.261  56.989  1.00  0.00     0.012 C 
ENDBRANCH   7  16
ENDBRANCH   1   7
BRANCH   3  19
HETATM   19  N   UNL     1       5.995  25.870  54.840  1.00  0.00    -0.244 N 
HETATM   20  C   UNL     1       6.985  24.996  55.192  1.00  0.00     0.086 A 
HETATM   21  C   UNL     1       6.892  24.007  54.209  1.00  0.00     0.086 A 
HETATM   22  C   UNL     1       7.933  24.958  56.222  1.00  0.00     0.034 A 
HETATM   23  C   UNL     1       7.779  22.921  54.245  1.00  0.00     0.034 A 
HETATM   24  N   UNL     1       5.893  24.290  53.301  1.00  0.00    -0.240 NA
HETATM   25  C   UNL     1       8.737  22.866  55.264  1.00  0.00     0.002 A 
HETATM   26  C   UNL     1       8.811  23.868  56.234  1.00  0.00     0.002 A 
HETATM   27  C   UNL     1       5.375  25.430  53.710  1.00  0.00     0.234 A 
ENDBRANCH   3  19
TORSDOF 5
ENDMDL
MODEL 7
REMARK VINA RESULT:      -8.1      3.980      7.266
REMARK  5 active torsions:
REMARK  status: ('A' for Active; 'I' for Inactive)
REMARK    1  A    between atoms: C_2  and  C_3 
REMARK    2  A    between atoms: C_6  and  C_7 
REMARK    3  A    between atoms: C_7  and  N_8 
REMARK    4  A    between atoms: C_7  and  C_21 
REMARK       I    between atoms: N_8  and  C_9 
REMARK       I    between atoms: C_9  and  N_10 
REMARK    5  A    between atoms: N_10  and  N_11 
ROOT
HETATM    1  N   UNL     1       5.939  28.693  53.055  1.00  0.00    -0.333 N 
HETATM    2  C   UNL     1       6.802  27.911  53.749  1.00  0.00     0.335 C 
HETATM    3  N   UNL     1       6.282  26.791  54.320  1.00  0.00    -0.244 N 
HETATM    4  O   UNL     1       7.969  28.274  53.864  1.00  0.00    -0.246 OA
HETATM    5  H   UNL     1       6.398  29.498  52.650  1.00  0.00     0.165 HD
HETATM    6  H   UNL     1       5.550  26.318  53.816  1.00  0.00     0.192 HD
ENDROOT
BRANCH   1   7
HETATM    7  C   UNL     1       4.494  28.577  52.853  1.00  0.00     0.122 C 
BRANCH   7   8
HETATM    8  C   UNL     1       4.248  28.051  51.446  1.00  0.00    -0.035 A 
HETATM    9  C   UNL     1       4.935  26.918  50.989  1.00  0.00     0.010 A 
HETATM   10  C   UNL     1       4.709  26.416  49.704  1.00  0.00     0.007 A 
HETATM   11  C   UNL     1       3.798  27.042  48.846  1.00  0.00    -0.059 A 
HETATM   12  C   UNL     1       3.111  28.175  49.297  1.00  0.00     0.007 A 
HETATM   13  C   UNL     1       3.335  28.675  50.581  1.00  0.00     0.010 A 
BRANCH  11  14
HETATM   14  C   UNL     1       3.531  26.487  47.471  1.00  0.00     0.034 C 
HETATM   15  C   UNL     1       3.012  25.058  47.532  1.00  0.00     0.010 C 
ENDBRANCH  11  14
ENDBRANCH   7   8
BRANCH   7  16
HETATM   16  C   UNL     1       3.779  29.927  53.140  1.00  0.00     0.005 C 
HETATM   17  C   UNL     1       3.729  30.236  54.643  1.00  0.00     0.012 C 
HETATM   18  C   UNL     1       4.479  31.090  52.423  1.00  0.00     0.012 C 
ENDBRANCH   7  16
ENDBRANCH   1   7
BRANCH   3  19
HETATM   19  N   UNL     1       7.145  25.930  54.916  1.00  0.00    -0.244 N 
HETATM   20  C   UNL     1       7.583  24.764  54.353  1.00  0.00     0.086 A 
HETATM   21  C   UNL     1       8.226  24.127  55.417  1.00  0.00     0.086 A 
HETATM   22  C   UNL     1       7.486  24.201  53.074  1.00  0.00     0.034 A 
HETATM   23  C   UNL     1       8.809  22.867  55.208  1.00  0.00     0.034 A 
HETATM   24  N   UNL     1       8.163  24.880  56.570  1.00  0.00    -0.240 NA
HETATM   25  C   UNL     1       8.720  22.285  53.938  1.00  0.00     0.002 A 
HETATM   26  C   UNL     1       8.070  22.942  52.892  1.00  0.00     0.002 A 
HETATM   27  C   UNL     1       7.495  25.963  56.232  1.00  0.00     0.234 A 
ENDBRANCH   3  19
TORSDOF 5
ENDMDL
MODEL 8
REMARK VINA RESULT:      -7.9      4.372      6.561
REMARK  5 active torsions:
REMARK  status: ('A' for Active; 'I' for Inactive)
REMARK    1  A    between atoms: C_2  and  C_3 
REMARK    2  A    between atoms: C_6  and  C_7 
REMARK    3  A    between atoms: C_7  and  N_8 
REMARK    4  A    between atoms: C_7  and  C_21 
REMARK       I    between atoms: N_8  and  C_9 
REMARK       I    between atoms: C_9  and  N_10 
REMARK    5  A    between atoms: N_10  and  N_11 
ROOT
HETATM    1  N   UNL     1       4.500  26.240  50.975  1.00  0.00    -0.333 N 
HETATM    2  C   UNL     1       5.151  25.736  52.054  1.00  0.00     0.335 C 
HETATM    3  N   UNL     1       6.430  26.163  52.243  1.00  0.00    -0.244 N 
HETATM    4  O   UNL     1       4.582  24.906  52.756  1.00  0.00    -0.246 OA
HETATM    5  H   UNL     1       3.555  25.888  50.906  1.00  0.00     0.165 HD
HETATM    6  H   UNL     1       6.637  27.116  51.996  1.00  0.00     0.192 HD
ENDROOT
BRANCH   1   7
HETATM    7  C   UNL     1       4.959  27.138  49.915  1.00  0.00     0.122 C 
BRANCH   7   8
HETATM    8  C   UNL     1       4.802  28.571  50.401  1.00  0.00    -0.035 A 
HETATM    9  C   UNL     1       5.669  29.570  49.936  1.00  0.00     0.010 A 
HETATM   10  C   UNL     1       5.528  30.893  50.364  1.00  0.00     0.007 A 
HETATM   11  C   UNL     1       4.524  31.244  51.273  1.00  0.00    -0.059 A 
HETATM   12  C   UNL     1       3.658  30.250  51.743  1.00  0.00     0.007 A 
HETATM   13  C   UNL     1       3.797  28.929  51.314  1.00  0.00     0.010 A 
BRANCH  11  14
HETATM   14  C   UNL     1       4.352  32.675  51.714  1.00  0.00     0.034 C 
HETATM   15  C   UNL     1       5.546  33.532  51.320  1.00  0.00     0.010 C 
ENDBRANCH  11  14
ENDBRANCH   7   8
BRANCH   7  16
HETATM   16  C   UNL     1       4.213  26.855  48.581  1.00  0.00     0.005 C 
HETATM   17  C   UNL     1       5.159  26.926  47.374  1.00  0.00     0.012 C 
HETATM   18  C   UNL     1       3.546  25.473  48.600  1.00  0.00     0.012 C 
ENDBRANCH   7  16
ENDBRANCH   1   7
BRANCH   3  19
HETATM   19  N   UNL     1       7.061  25.770  53.379  1.00  0.00    -0.244 N 
HETATM   20  C   UNL     1       7.618  24.536  53.566  1.00  0.00     0.086 A 
HETATM   21  C   UNL     1       7.907  24.527  54.932  1.00  0.00     0.086 A 
HETATM   22  C   UNL     1       7.887  23.451  52.722  1.00  0.00     0.034 A 
HETATM   23  C   UNL     1       8.497  23.387  55.498  1.00  0.00     0.034 A 
HETATM   24  N   UNL     1       7.526  25.706  55.537  1.00  0.00    -0.240 NA
HETATM   25  C   UNL     1       8.771  22.289  54.675  1.00  0.00     0.002 A 
HETATM   26  C   UNL     1       8.471  22.323  53.312  1.00  0.00     0.002 A 
HETATM   27  C   UNL     1       7.010  26.433  54.568  1.00  0.00     0.234 A 
ENDBRANCH   3  19
TORSDOF 5
ENDMDL
MODEL 9
REMARK VINA RESULT:      -7.8      1.907      2.275
REMARK  5 active torsions:
REMARK  status: ('A' for Active; 'I' for Inactive)
REMARK    1  A    between atoms: C_2  and  C_3 
REMARK    2  A    between atoms: C_6  and  C_7 
REMARK    3  A    between atoms: C_7  and  N_8 
REMARK    4  A    between atoms: C_7  and  C_21 
REMARK       I    between atoms: N_8  and  C_9 
REMARK       I    between atoms: C_9  and  N_10 
REMARK    5  A    between atoms: N_10  and  N_11 
ROOT
HETATM    1  N   UNL     1       6.028  27.016  56.620  1.00  0.00    -0.333 N 
HETATM    2  C   UNL     1       6.370  25.705  56.560  1.00  0.00     0.335 C 
HETATM    3  N   UNL     1       7.607  25.423  56.070  1.00  0.00    -0.244 N 
HETATM    4  O   UNL     1       5.545  24.861  56.899  1.00  0.00    -0.246 OA
HETATM    5  H   UNL     1       5.102  27.149  57.005  1.00  0.00     0.165 HD
HETATM    6  H   UNL     1       8.345  26.072  56.286  1.00  0.00     0.192 HD
ENDROOT
BRANCH   1   7
HETATM    7  C   UNL     1       6.748  28.212  56.183  1.00  0.00     0.122 C 
BRANCH   7   8
HETATM    8  C   UNL     1       6.315  29.379  57.059  1.00  0.00    -0.035 A 
HETATM    9  C   UNL     1       7.276  30.159  57.717  1.00  0.00     0.010 A 
HETATM   10  C   UNL     1       6.893  31.241  58.514  1.00  0.00     0.007 A 
HETATM   11  C   UNL     1       5.540  31.561  58.678  1.00  0.00    -0.059 A 
HETATM   12  C   UNL     1       4.577  30.783  58.026  1.00  0.00     0.007 A 
HETATM   13  C   UNL     1       4.959  29.703  57.228  1.00  0.00     0.010 A 
BRANCH  11  14
HETATM   14  C   UNL     1       5.126  32.744  59.514  1.00  0.00     0.034 C 
HETATM   15  C   UNL     1       3.671  32.645  59.947  1.00  0.00     0.010 C 
ENDBRANCH  11  14
ENDBRANCH   7   8
BRANCH   7  16
HETATM   16  C   UNL     1       6.534  28.471  54.664  1.00  0.00     0.005 C 
HETATM   17  C   UNL     1       7.716  27.958  53.829  1.00  0.00     0.012 C 
HETATM   18  C   UNL     1       5.250  27.797  54.162  1.00  0.00     0.012 C 
ENDBRANCH   7  16
ENDBRANCH   1   7
BRANCH   3  19
HETATM   19  N   UNL     1       8.021  24.130  56.113  1.00  0.00    -0.244 N 
HETATM   20  C   UNL     1       7.970  23.268  55.054  1.00  0.00     0.086 A 
HETATM   21  C   UNL     1       8.255  22.034  55.642  1.00  0.00     0.086 A 
HETATM   22  C   UNL     1       7.707  23.418  53.687  1.00  0.00     0.034 A 
HETATM   23  C   UNL     1       8.284  20.884  54.838  1.00  0.00     0.034 A 
HETATM   24  N   UNL     1       8.455  22.156  57.001  1.00  0.00    -0.240 NA
HETATM   25  C   UNL     1       8.019  21.010  53.470  1.00  0.00     0.002 A 
HETATM   26  C   UNL     1       7.736  22.256  52.906  1.00  0.00     0.002 A 
HETATM   27  C   UNL     1       8.298  23.439  57.253  1.00  0.00     0.234 A 
ENDBRANCH   3  19
TORSDOF 5
ENDMDL
MODEL 10
REMARK VINA RESULT:      -7.6      3.712      8.708
REMARK  5 active torsions:
REMARK  status: ('A' for Active; 'I' for Inactive)
REMARK    1  A    between atoms: C_2  and  C_3 
REMARK    2  A    between atoms: C_6  and  C_7 
REMARK    3  A    between atoms: C_7  and  N_8 
REMARK    4  A    between atoms: C_7  and  C_21 
REMARK       I    between atoms: N_8  and  C_9 
REMARK       I    between atoms: C_9  and  N_10 
REMARK    5  A    between atoms: N_10  and  N_11 
ROOT
HETATM    1  N   UNL     1       5.372  26.483  54.173  1.00  0.00    -0.333 N 
HETATM    2  C   UNL     1       4.844  27.449  53.379  1.00  0.00     0.335 C 
HETATM    3  N   UNL     1       5.702  28.409  52.940  1.00  0.00    -0.244 N 
HETATM    4  O   UNL     1       3.640  27.431  53.145  1.00  0.00    -0.246 OA
HETATM    5  H   UNL     1       4.679  25.800  54.449  1.00  0.00     0.165 HD
HETATM    6  H   UNL     1       6.645  28.122  52.736  1.00  0.00     0.192 HD
ENDROOT
BRANCH   1   7
HETATM    7  C   UNL     1       6.724  26.318  54.707  1.00  0.00     0.122 C 
BRANCH   7   8
HETATM    8  C   UNL     1       7.217  24.926  54.338  1.00  0.00    -0.035 A 
HETATM    9  C   UNL     1       7.440  23.971  55.340  1.00  0.00     0.010 A 
HETATM   10  C   UNL     1       7.879  22.685  55.015  1.00  0.00     0.007 A 
HETATM   11  C   UNL     1       8.115  22.329  53.683  1.00  0.00    -0.059 A 
HETATM   12  C   UNL     1       7.897  23.280  52.679  1.00  0.00     0.007 A 
HETATM   13  C   UNL     1       7.455  24.564  53.003  1.00  0.00     0.010 A 
BRANCH  11  14
HETATM   14  C   UNL     1       8.562  20.934  53.327  1.00  0.00     0.034 C 
HETATM   15  C   UNL     1       8.716  20.061  54.564  1.00  0.00     0.010 C 
ENDBRANCH  11  14
ENDBRANCH   7   8
BRANCH   7  16
HETATM   16  C   UNL     1       6.761  26.600  56.235  1.00  0.00     0.005 C 
HETATM   17  C   UNL     1       7.419  27.951  56.548  1.00  0.00     0.012 C 
HETATM   18  C   UNL     1       5.348  26.592  56.835  1.00  0.00     0.012 C 
ENDBRANCH   7  16
ENDBRANCH   1   7
BRANCH   3  19
HETATM   19  N   UNL     1       5.228  29.315  52.048  1.00  0.00    -0.244 N 
HETATM   20  C   UNL     1       4.398  30.353  52.369  1.00  0.00     0.086 A 
HETATM   21  C   UNL     1       3.998  30.830  51.120  1.00  0.00     0.086 A 
HETATM   22  C   UNL     1       3.955  30.909  53.576  1.00  0.00     0.034 A 
HETATM   23  C   UNL     1       3.113  31.918  51.055  1.00  0.00     0.034 A 
HETATM   24  N   UNL     1       4.558  30.098  50.095  1.00  0.00    -0.240 NA
HETATM   25  C   UNL     1       2.654  32.487  52.248  1.00  0.00     0.002 A 
HETATM   26  C   UNL     1       3.069  31.990  53.485  1.00  0.00     0.002 A 
HETATM   27  C   UNL     1       5.293  29.184  50.694  1.00  0.00     0.234 A 
ENDBRANCH   3  19
TORSDOF 5
ENDMDL
