MODEL 1
REMARK VINA RESULT:      -8.4      0.000      0.000
REMARK  2 active torsions:
REMARK  status: ('A' for Active; 'I' for Inactive)
REMARK    1  A    between atoms: C_2  and  C_3 
REMARK    2  A    between atoms: C_6  and  C_7 
ROOT
HETATM    1  C   UNL     1       7.121  27.164  53.637  1.00  0.00     0.119 C 
HETATM    2  S   UNL     1       7.903  27.974  55.059  1.00  0.00    -0.141 SA
HETATM    3  C   UNL     1       6.594  29.080  55.656  1.00  0.00     0.136 C 
HETATM    4  C   UNL     1       7.208  30.069  56.645  1.00  0.00     0.031 C 
HETATM    5  C   UNL     1       5.498  28.274  56.330  1.00  0.00     0.236 C 
HETATM    6  O   UNL     1       5.306  28.193  57.532  1.00  0.00    -0.272 OA
HETATM    7  N   UNL     1       4.514  27.619  55.528  1.00  0.00    -0.311 N 
HETATM    8  C   UNL     1       4.567  27.532  54.156  1.00  0.00     0.134 C 
HETATM    9  C   UNL     1       5.673  27.414  53.334  1.00  0.00     0.032 C 
HETATM   10  N   UNL     1       3.469  27.490  53.342  1.00  0.00    -0.262 N 
HETATM   11  H   UNL     1       2.489  27.500  53.602  1.00  0.00     0.191 HD
HETATM   12  N   UNL     1       3.770  27.542  52.043  1.00  0.00    -0.178 NA
HETATM   13  C   UNL     1       5.104  27.462  52.014  1.00  0.00     0.062 C 
HETATM   14  C   UNL     1       5.796  27.391  50.698  1.00  0.00     0.073 C 
HETATM   15  H   UNL     1       3.696  27.303  56.036  1.00  0.00     0.170 HD
ENDROOT
BRANCH   1  16
HETATM   16  C   UNL     1       7.240  25.645  53.704  1.00  0.00    -0.040 A 
HETATM   17  C   UNL     1       7.696  24.873  52.620  1.00  0.00     0.009 A 
HETATM   18  C   UNL     1       7.870  23.492  52.743  1.00  0.00     0.007 A 
HETATM   19  C   UNL     1       7.588  22.844  53.949  1.00  0.00    -0.059 A 
HETATM   20  C   UNL     1       7.106  23.597  55.024  1.00  0.00     0.007 A 
HETATM   21  C   UNL     1       6.928  24.978  54.901  1.00  0.00     0.009 A 
BRANCH  19  22
HETATM   22  C   UNL     1       7.844  21.367  54.101  1.00  0.00     0.034 C 
HETATM   23  C   UNL     1       8.225  20.731  52.772  1.00  0.00     0.010 C 
ENDBRANCH  19  22
ENDBRANCH   1  16
TORSDOF 2
ENDMDL
MODEL 2
REMARK VINA RESULT:      -8.2      2.515      3.754
REMARK  2 active torsions:
REMARK  status: ('A' for Active; 'I' for Inactive)
REMARK    1  A    between atoms: C_2  and  C_3 
REMARK    2  A    between atoms: C_6  and  C_7 
ROOT
HETATM    1  C   UNL     1       5.725  26.246  54.873  1.00  0.00     0.119 C 
HETATM    2  S   UNL     1       4.317  26.557  53.771  1.00  0.00    -0.141 SA
HETATM    3  C   UNL     1       4.522  28.310  53.350  1.00  0.00     0.136 C 
HETATM    4  C   UNL     1       3.234  28.806  52.695  1.00  0.00     0.031 C 
HETATM    5  C   UNL     1       5.694  28.484  52.401  1.00  0.00     0.236 C 
HETATM    6  O   UNL     1       5.619  28.706  51.203  1.00  0.00    -0.272 OA
HETATM    7  N   UNL     1       7.024  28.502  52.924  1.00  0.00    -0.311 N 
HETATM    8  C   UNL     1       7.345  28.218  54.231  1.00  0.00     0.134 C 
HETATM    9  C   UNL     1       6.753  27.316  55.095  1.00  0.00     0.032 C 
HETATM   10  N   UNL     1       8.397  28.774  54.906  1.00  0.00    -0.262 N 
HETATM   11  H   UNL     1       9.083  29.439  54.569  1.00  0.00     0.191 HD
HETATM   12  N   UNL     1       8.429  28.447  56.200  1.00  0.00    -0.178 NA
HETATM   13  C   UNL     1       7.459  27.536  56.329  1.00  0.00     0.062 C 
HETATM   14  C   UNL     1       7.268  26.865  57.644  1.00  0.00     0.073 C 
HETATM   15  H   UNL     1       7.727  28.850  52.281  1.00  0.00     0.170 HD
ENDROOT
BRANCH   1  16
HETATM   16  C   UNL     1       6.530  25.024  54.444  1.00  0.00    -0.040 A 
HETATM   17  C   UNL     1       7.054  24.880  53.147  1.00  0.00     0.009 A 
HETATM   18  C   UNL     1       7.857  23.785  52.813  1.00  0.00     0.007 A 
HETATM   19  C   UNL     1       8.151  22.803  53.762  1.00  0.00    -0.059 A 
HETATM   20  C   UNL     1       7.611  22.921  55.047  1.00  0.00     0.007 A 
HETATM   21  C   UNL     1       6.806  24.013  55.382  1.00  0.00     0.009 A 
BRANCH  19  22
HETATM   22  C   UNL     1       9.074  21.661  53.421  1.00  0.00     0.034 C 
HETATM   23  C   UNL     1       8.298  20.456  52.909  1.00  0.00     0.010 C 
ENDBRANCH  19  22
ENDBRANCH   1  16
TORSDOF 2
ENDMDL
MODEL 3
REMARK VINA RESULT:      -7.9      1.280      1.655
REMARK  2 active torsions:
REMARK  status: ('A' for Active; 'I' for Inactive)
REMARK    1  A    between atoms: C_2  and  C_3 
REMARK    2  A    between atoms: C_6  and  C_7 
ROOT
HETATM    1  C   UNL     1       7.477  27.842  54.010  1.00  0.00     0.119 C 
HETATM    2  S   UNL     1       8.872  28.376  55.038  1.00  0.00    -0.141 SA
HETATM    3  C   UNL     1       8.055  29.294  56.373  1.00  0.00     0.136 C 
HETATM    4  C   UNL     1       9.115  30.084  57.138  1.00  0.00     0.031 C 
HETATM    5  C   UNL     1       7.342  28.331  57.305  1.00  0.00     0.236 C 
HETATM    6  O   UNL     1       7.717  28.003  58.419  1.00  0.00    -0.272 OA
HETATM    7  N   UNL     1       6.061  27.817  56.938  1.00  0.00    -0.311 N 
HETATM    8  C   UNL     1       5.473  28.010  55.709  1.00  0.00     0.134 C 
HETATM    9  C   UNL     1       6.070  28.098  54.464  1.00  0.00     0.032 C 
HETATM   10  N   UNL     1       4.124  28.094  55.502  1.00  0.00    -0.262 N 
HETATM   11  H   UNL     1       3.375  28.018  56.181  1.00  0.00     0.191 HD
HETATM   12  N   UNL     1       3.798  28.417  54.249  1.00  0.00    -0.178 NA
HETATM   13  C   UNL     1       4.963  28.391  53.593  1.00  0.00     0.062 C 
HETATM   14  C   UNL     1       4.969  28.610  52.121  1.00  0.00     0.073 C 
HETATM   15  H   UNL     1       5.548  27.377  57.694  1.00  0.00     0.170 HD
ENDROOT
BRANCH   1  16
HETATM   16  C   UNL     1       7.517  26.346  53.718  1.00  0.00    -0.040 A 
HETATM   17  C   UNL     1       7.580  25.831  52.410  1.00  0.00     0.009 A 
HETATM   18  C   UNL     1       7.698  24.457  52.182  1.00  0.00     0.007 A 
HETATM   19  C   UNL     1       7.750  23.561  53.253  1.00  0.00    -0.059 A 
HETATM   20  C   UNL     1       7.659  24.058  54.557  1.00  0.00     0.007 A 
HETATM   21  C   UNL     1       7.537  25.432  54.786  1.00  0.00     0.009 A 
BRANCH  19  22
HETATM   22  C   UNL     1       7.949  22.087  53.007  1.00  0.00     0.034 C 
HETATM   23  C   UNL     1       7.884  21.295  54.305  1.00  0.00     0.010 C 
ENDBRANCH  19  22
ENDBRANCH   1  16
TORSDOF 2
ENDMDL
MODEL 4
REMARK VINA RESULT:      -7.4     11.270     13.882
REMARK  2 active torsions:
REMARK  status: ('A' for Active; 'I' for Inactive)
REMARK    1  A    between atoms: C_2  and  C_3 
REMARK    2  A    between atoms: C_6  and  C_7 
ROOT
HETATM    1  C   UNL     1       5.813  34.711  63.492  1.00  0.00     0.119 C 
HETATM    2  S   UNL     1       4.759  36.034  62.837  1.00  0.00    -0.141 SA
HETATM    3  C   UNL     1       3.734  35.160  61.621  1.00  0.00     0.136 C 
HETATM    4  C   UNL     1       3.025  36.196  60.751  1.00  0.00     0.031 C 
HETATM    5  C   UNL     1       2.717  34.285  62.331  1.00  0.00     0.236 C 
HETATM    6  O   UNL     1       1.525  34.520  62.444  1.00  0.00    -0.272 OA
HETATM    7  N   UNL     1       3.119  33.011  62.838  1.00  0.00    -0.311 N 
HETATM    8  C   UNL     1       4.421  32.567  62.868  1.00  0.00     0.134 C 
HETATM    9  C   UNL     1       5.582  33.290  63.070  1.00  0.00     0.032 C 
HETATM   10  N   UNL     1       4.792  31.255  62.753  1.00  0.00    -0.262 N 
HETATM   11  H   UNL     1       4.201  30.438  62.647  1.00  0.00     0.191 HD
HETATM   12  N   UNL     1       6.114  31.083  62.677  1.00  0.00    -0.178 NA
HETATM   13  C   UNL     1       6.614  32.302  62.901  1.00  0.00     0.062 C 
HETATM   14  C   UNL     1       8.090  32.473  62.989  1.00  0.00     0.073 C 
HETATM   15  H   UNL     1       2.355  32.392  63.084  1.00  0.00     0.170 HD
ENDROOT
BRANCH   1  16
HETATM   16  C   UNL     1       5.797  34.665  65.016  1.00  0.00    -0.040 A 
HETATM   17  C   UNL     1       6.831  34.076  65.767  1.00  0.00     0.009 A 
HETATM   18  C   UNL     1       6.823  34.124  67.164  1.00  0.00     0.007 A 
HETATM   19  C   UNL     1       5.781  34.754  67.848  1.00  0.00    -0.059 A 
HETATM   20  C   UNL     1       4.733  35.318  67.113  1.00  0.00     0.007 A 
HETATM   21  C   UNL     1       4.738  35.268  65.716  1.00  0.00     0.009 A 
BRANCH  19  22
HETATM   22  C   UNL     1       5.810  34.867  69.350  1.00  0.00     0.034 C 
HETATM   23  C   UNL     1       7.209  35.189  69.855  1.00  0.00     0.010 C 
ENDBRANCH  19  22
ENDBRANCH   1  16
TORSDOF 2
ENDMDL
MODEL 5
REMARK VINA RESULT:      -7.4      2.505      3.522
REMARK  2 active torsions:
REMARK  status: ('A' for Active; 'I' for Inactive)
REMARK    1  A    between atoms: C_2  and  C_3 
REMARK    2  A    between atoms: C_6  and  C_7 
ROOT
HETATM    1  C   UNL     1       7.825  28.672  55.714  1.00  0.00     0.119 C 
HETATM    2  S   UNL     1       9.424  29.275  56.320  1.00  0.00    -0.141 SA
HETATM    3  C   UNL     1       8.940  30.540  57.529  1.00  0.00     0.136 C 
HETATM    4  C   UNL     1      10.174  31.368  57.885  1.00  0.00     0.031 C 
HETATM    5  C   UNL     1       8.373  29.880  58.773  1.00  0.00     0.236 C 
HETATM    6  O   UNL     1       8.942  29.767  59.846  1.00  0.00    -0.272 OA
HETATM    7  N   UNL     1       7.018  29.428  58.772  1.00  0.00    -0.311 N 
HETATM    8  C   UNL     1       6.210  29.406  57.658  1.00  0.00     0.134 C 
HETATM    9  C   UNL     1       6.553  29.161  56.341  1.00  0.00     0.032 C 
HETATM   10  N   UNL     1       4.853  29.578  57.684  1.00  0.00    -0.262 N 
HETATM   11  H   UNL     1       4.251  29.727  58.486  1.00  0.00     0.191 HD
HETATM   12  N   UNL     1       4.305  29.650  56.470  1.00  0.00    -0.178 NA
HETATM   13  C   UNL     1       5.313  29.366  55.639  1.00  0.00     0.062 C 
HETATM   14  C   UNL     1       5.040  29.256  54.180  1.00  0.00     0.073 C 
HETATM   15  H   UNL     1       6.641  29.218  59.689  1.00  0.00     0.170 HD
ENDROOT
BRANCH   1  16
HETATM   16  C   UNL     1       7.723  27.152  55.776  1.00  0.00    -0.040 A 
HETATM   17  C   UNL     1       7.304  26.376  54.680  1.00  0.00     0.009 A 
HETATM   18  C   UNL     1       7.301  24.980  54.747  1.00  0.00     0.007 A 
HETATM   19  C   UNL     1       7.708  24.323  55.911  1.00  0.00    -0.059 A 
HETATM   20  C   UNL     1       8.098  25.084  57.017  1.00  0.00     0.007 A 
HETATM   21  C   UNL     1       8.099  26.481  56.953  1.00  0.00     0.009 A 
BRANCH  19  22
HETATM   22  C   UNL     1       7.771  22.817  55.957  1.00  0.00     0.034 C 
HETATM   23  C   UNL     1       8.488  22.255  54.739  1.00  0.00     0.010 C 
ENDBRANCH  19  22
ENDBRANCH   1  16
TORSDOF 2
ENDMDL
MODEL 6
REMARK VINA RESULT:      -7.2      2.898      6.199
REMARK  2 active torsions:
REMARK  status: ('A' for Active; 'I' for Inactive)
REMARK    1  A    between atoms: C_2  and  C_3 
REMARK    2  A    between atoms: C_6  and  C_7 
ROOT
HETATM    1  C   UNL     1       7.470  27.559  55.361  1.00  0.00     0.119 C 
HETATM    2  S   UNL     1       7.202  28.230  53.697  1.00  0.00    -0.141 SA
HETATM    3  C   UNL     1       5.596  27.522  53.236  1.00  0.00     0.136 C 
HETATM    4  C   UNL     1       5.387  27.727  51.737  1.00  0.00     0.031 C 
HETATM    5  C   UNL     1       4.485  28.198  54.019  1.00  0.00     0.236 C 
HETATM    6  O   UNL     1       3.700  29.023  53.581  1.00  0.00    -0.272 OA
HETATM    7  N   UNL     1       4.226  27.792  55.364  1.00  0.00    -0.311 N 
HETATM    8  C   UNL     1       5.019  26.921  56.075  1.00  0.00     0.134 C 
HETATM    9  C   UNL     1       6.391  26.759  56.029  1.00  0.00     0.032 C 
HETATM   10  N   UNL     1       4.556  26.066  57.037  1.00  0.00    -0.262 N 
HETATM   11  H   UNL     1       3.608  25.950  57.376  1.00  0.00     0.191 HD
HETATM   12  N   UNL     1       5.488  25.226  57.492  1.00  0.00    -0.178 NA
HETATM   13  C   UNL     1       6.618  25.650  56.918  1.00  0.00     0.062 C 
HETATM   14  C   UNL     1       7.905  24.996  57.281  1.00  0.00     0.073 C 
HETATM   15  H   UNL     1       3.340  28.110  55.740  1.00  0.00     0.170 HD
ENDROOT
BRANCH   1  16
HETATM   16  C   UNL     1       7.819  28.647  56.370  1.00  0.00    -0.040 A 
HETATM   17  C   UNL     1       6.870  29.568  56.849  1.00  0.00     0.009 A 
HETATM   18  C   UNL     1       7.206  30.501  57.835  1.00  0.00     0.007 A 
HETATM   19  C   UNL     1       8.499  30.543  58.362  1.00  0.00    -0.059 A 
HETATM   20  C   UNL     1       9.460  29.652  57.873  1.00  0.00     0.007 A 
HETATM   21  C   UNL     1       9.126  28.721  56.885  1.00  0.00     0.009 A 
BRANCH  19  22
HETATM   22  C   UNL     1       8.840  31.501  59.475  1.00  0.00     0.034 C 
HETATM   23  C   UNL     1       9.169  30.760  60.763  1.00  0.00     0.010 C 
ENDBRANCH  19  22
ENDBRANCH   1  16
TORSDOF 2
ENDMDL
MODEL 7
REMARK VINA RESULT:      -7.1      2.593      6.006
REMARK  2 active torsions:
REMARK  status: ('A' for Active; 'I' for Inactive)
REMARK    1  A    between atoms: C_2  and  C_3 
REMARK    2  A    between atoms: C_6  and  C_7 
ROOT
HETATM    1  C   UNL     1       6.393  27.328  56.219  1.00  0.00     0.119 C 
HETATM    2  S   UNL     1       7.026  25.645  55.978  1.00  0.00    -0.141 SA
HETATM    3  C   UNL     1       6.521  25.271  54.276  1.00  0.00     0.136 C 
HETATM    4  C   UNL     1       6.691  23.772  54.038  1.00  0.00     0.031 C 
HETATM    5  C   UNL     1       7.372  26.059  53.296  1.00  0.00     0.236 C 
HETATM    6  O   UNL     1       8.277  25.609  52.611  1.00  0.00    -0.272 OA
HETATM    7  N   UNL     1       7.060  27.429  53.038  1.00  0.00    -0.311 N 
HETATM    8  C   UNL     1       6.120  28.152  53.735  1.00  0.00     0.134 C 
HETATM    9  C   UNL     1       5.773  28.068  55.071  1.00  0.00     0.032 C 
HETATM   10  N   UNL     1       5.375  29.168  53.201  1.00  0.00    -0.262 N 
HETATM   11  H   UNL     1       5.402  29.543  52.259  1.00  0.00     0.191 HD
HETATM   12  N   UNL     1       4.437  29.629  54.030  1.00  0.00    -0.178 NA
HETATM   13  C   UNL     1       4.682  28.999  55.183  1.00  0.00     0.062 C 
HETATM   14  C   UNL     1       3.876  29.349  56.384  1.00  0.00     0.073 C 
HETATM   15  H   UNL     1       7.510  27.819  52.217  1.00  0.00     0.170 HD
ENDROOT
BRANCH   1  16
HETATM   16  C   UNL     1       7.465  28.274  56.749  1.00  0.00    -0.040 A 
HETATM   17  C   UNL     1       8.641  28.563  56.033  1.00  0.00     0.009 A 
HETATM   18  C   UNL     1       9.564  29.498  56.512  1.00  0.00     0.007 A 
HETATM   19  C   UNL     1       9.341  30.163  57.721  1.00  0.00    -0.059 A 
HETATM   20  C   UNL     1       8.190  29.862  58.456  1.00  0.00     0.007 A 
HETATM   21  C   UNL     1       7.268  28.925  57.980  1.00  0.00     0.009 A 
BRANCH  19  22
HETATM   22  C   UNL     1      10.301  31.221  58.200  1.00  0.00     0.034 C 
HETATM   23  C   UNL     1       9.777  31.922  59.445  1.00  0.00     0.010 C 
ENDBRANCH  19  22
ENDBRANCH   1  16
TORSDOF 2
ENDMDL
MODEL 8
REMARK VINA RESULT:      -7.1      2.810      4.330
REMARK  2 active torsions:
REMARK  status: ('A' for Active; 'I' for Inactive)
REMARK    1  A    between atoms: C_2  and  C_3 
REMARK    2  A    between atoms: C_6  and  C_7 
ROOT
HETATM    1  C   UNL     1       6.489  27.533  56.396  1.00  0.00     0.119 C 
HETATM    2  S   UNL     1       4.845  27.542  55.630  1.00  0.00    -0.141 SA
HETATM    3  C   UNL     1       5.016  28.804  54.337  1.00  0.00     0.136 C 
HETATM    4  C   UNL     1       3.624  29.162  53.821  1.00  0.00     0.031 C 
HETATM    5  C   UNL     1       5.877  28.275  53.204  1.00  0.00     0.236 C 
HETATM    6  O   UNL     1       5.476  27.907  52.112  1.00  0.00    -0.272 OA
HETATM    7  N   UNL     1       7.299  28.286  53.338  1.00  0.00    -0.311 N 
HETATM    8  C   UNL     1       7.964  28.606  54.499  1.00  0.00     0.134 C 
HETATM    9  C   UNL     1       7.595  28.359  55.809  1.00  0.00     0.032 C 
HETATM   10  N   UNL     1       9.193  29.204  54.545  1.00  0.00    -0.262 N 
HETATM   11  H   UNL     1       9.790  29.482  53.774  1.00  0.00     0.191 HD
HETATM   12  N   UNL     1       9.575  29.537  55.780  1.00  0.00    -0.178 NA
HETATM   13  C   UNL     1       8.635  29.003  56.567  1.00  0.00     0.062 C 
HETATM   14  C   UNL     1       8.790  29.094  58.044  1.00  0.00     0.073 C 
HETATM   15  H   UNL     1       7.808  28.143  52.473  1.00  0.00     0.170 HD
ENDROOT
BRANCH   1  16
HETATM   16  C   UNL     1       7.071  26.127  56.491  1.00  0.00    -0.040 A 
HETATM   17  C   UNL     1       8.030  25.767  57.456  1.00  0.00     0.009 A 
HETATM   18  C   UNL     1       8.481  24.449  57.565  1.00  0.00     0.007 A 
HETATM   19  C   UNL     1       7.993  23.457  56.710  1.00  0.00    -0.059 A 
HETATM   20  C   UNL     1       7.062  23.809  55.728  1.00  0.00     0.007 A 
HETATM   21  C   UNL     1       6.612  25.127  55.615  1.00  0.00     0.009 A 
BRANCH  19  22
HETATM   22  C   UNL     1       8.427  22.024  56.876  1.00  0.00     0.034 C 
HETATM   23  C   UNL     1       8.998  21.464  55.581  1.00  0.00     0.010 C 
ENDBRANCH  19  22
ENDBRANCH   1  16
TORSDOF 2
ENDMDL
MODEL 9
REMARK VINA RESULT:      -7.0     10.247     12.582
REMARK  2 active torsions:
REMARK  status: ('A' for Active; 'I' for Inactive)
REMARK    1  A    between atoms: C_2  and  C_3 
REMARK    2  A    between atoms: C_6  and  C_7 
ROOT
HETATM    1  C   UNL     1       4.222  33.550  63.274  1.00  0.00     0.119 C 
HETATM    2  S   UNL     1       3.064  33.328  61.896  1.00  0.00    -0.141 SA
HETATM    3  C   UNL     1       2.186  34.915  61.855  1.00  0.00     0.136 C 
HETATM    4  C   UNL     1       0.954  34.766  60.963  1.00  0.00     0.031 C 
HETATM    5  C   UNL     1       3.098  36.001  61.313  1.00  0.00     0.236 C 
HETATM    6  O   UNL     1       3.041  36.494  60.197  1.00  0.00    -0.272 OA
HETATM    7  N   UNL     1       4.059  36.608  62.178  1.00  0.00    -0.311 N 
HETATM    8  C   UNL     1       4.333  36.174  63.455  1.00  0.00     0.134 C 
HETATM    9  C   UNL     1       4.333  34.884  63.953  1.00  0.00     0.032 C 
HETATM   10  N   UNL     1       4.728  36.989  64.480  1.00  0.00    -0.262 N 
HETATM   11  H   UNL     1       4.888  37.990  64.465  1.00  0.00     0.191 HD
HETATM   12  N   UNL     1       4.805  36.362  65.655  1.00  0.00    -0.178 NA
HETATM   13  C   UNL     1       4.602  35.076  65.353  1.00  0.00     0.062 C 
HETATM   14  C   UNL     1       4.717  34.053  66.428  1.00  0.00     0.073 C 
HETATM   15  H   UNL     1       4.464  37.468  61.825  1.00  0.00     0.170 HD
ENDROOT
BRANCH   1  16
HETATM   16  C   UNL     1       5.654  33.200  62.883  1.00  0.00    -0.040 A 
HETATM   17  C   UNL     1       6.637  32.865  63.832  1.00  0.00     0.009 A 
HETATM   18  C   UNL     1       7.917  32.470  63.433  1.00  0.00     0.007 A 
HETATM   19  C   UNL     1       8.252  32.407  62.077  1.00  0.00    -0.059 A 
HETATM   20  C   UNL     1       7.292  32.767  61.126  1.00  0.00     0.007 A 
HETATM   21  C   UNL     1       6.012  33.165  61.524  1.00  0.00     0.009 A 
BRANCH  19  22
HETATM   22  C   UNL     1       9.609  31.914  61.647  1.00  0.00     0.034 C 
HETATM   23  C   UNL     1       9.758  31.953  60.133  1.00  0.00     0.010 C 
ENDBRANCH  19  22
ENDBRANCH   1  16
TORSDOF 2
ENDMDL
MODEL 10
REMARK VINA RESULT:      -6.9     11.067     14.080
REMARK  2 active torsions:
REMARK  status: ('A' for Active; 'I' for Inactive)
REMARK    1  A    between atoms: C_2  and  C_3 
REMARK    2  A    between atoms: C_6  and  C_7 
ROOT
HETATM    1  C   UNL     1       5.853  34.922  63.263  1.00  0.00     0.119 C 
HETATM    2  S   UNL     1       6.020  36.606  62.609  1.00  0.00    -0.141 SA
HETATM    3  C   UNL     1       4.653  36.708  61.420  1.00  0.00     0.136 C 
HETATM    4  C   UNL     1       4.860  37.946  60.549  1.00  0.00     0.031 C 
HETATM    5  C   UNL     1       3.329  36.797  62.156  1.00  0.00     0.236 C 
HETATM    6  O   UNL     1       2.648  37.802  62.286  1.00  0.00    -0.272 OA
HETATM    7  N   UNL     1       2.730  35.607  62.671  1.00  0.00    -0.311 N 
HETATM    8  C   UNL     1       3.344  34.376  62.686  1.00  0.00     0.134 C 
HETATM    9  C   UNL     1       4.682  34.075  62.861  1.00  0.00     0.032 C 
HETATM   10  N   UNL     1       2.684  33.183  62.581  1.00  0.00    -0.262 N 
HETATM   11  H   UNL     1       1.688  33.017  62.493  1.00  0.00     0.191 HD
HETATM   12  N   UNL     1       3.502  32.132  62.486  1.00  0.00    -0.178 NA
HETATM   13  C   UNL     1       4.719  32.647  62.687  1.00  0.00     0.062 C 
HETATM   14  C   UNL     1       5.891  31.731  62.750  1.00  0.00     0.073 C 
HETATM   15  H   UNL     1       1.756  35.703  62.937  1.00  0.00     0.170 HD
ENDROOT
BRANCH   1  16
HETATM   16  C   UNL     1       5.839  34.896  64.788  1.00  0.00    -0.040 A 
HETATM   17  C   UNL     1       4.902  35.619  65.548  1.00  0.00     0.009 A 
HETATM   18  C   UNL     1       4.868  35.507  66.941  1.00  0.00     0.007 A 
HETATM   19  C   UNL     1       5.771  34.678  67.611  1.00  0.00    -0.059 A 
HETATM   20  C   UNL     1       6.726  33.977  66.868  1.00  0.00     0.007 A 
HETATM   21  C   UNL     1       6.764  34.090  65.475  1.00  0.00     0.009 A 
BRANCH  19  22
HETATM   22  C   UNL     1       5.686  34.505  69.106  1.00  0.00     0.034 C 
HETATM   23  C   UNL     1       6.821  35.230  69.813  1.00  0.00     0.010 C 
ENDBRANCH  19  22
ENDBRANCH   1  16
TORSDOF 2
ENDMDL
