MODEL 1
REMARK VINA RESULT:      -8.6      0.000      0.000
REMARK  4 active torsions:
REMARK  status: ('A' for Active; 'I' for Inactive)
REMARK    1  A    between atoms: C_2  and  O_3 
REMARK    2  A    between atoms: C_2  and  C_12 
REMARK    3  A    between atoms: O_3  and  C_4 
REMARK       I    between atoms: C_12  and  N_13 
REMARK    4  A    between atoms: N_13  and  C_14 
ROOT
HETATM    1  C   UNL     1       5.628  25.066  56.414  1.00  0.00     0.050 C 
HETATM    2  C   UNL     1       6.692  25.641  55.481  1.00  0.00     0.217 C 
ENDROOT
BRANCH   2   3
HETATM    3  O   UNL     1       7.923  24.893  55.559  1.00  0.00    -0.336 OA
BRANCH   3   4
HETATM    4  C   UNL     1       7.876  23.705  54.878  1.00  0.00     0.087 A 
HETATM    5  C   UNL     1       7.861  23.631  53.480  1.00  0.00     0.047 A 
HETATM    6 BR   UNL     1       7.921  25.184  52.392  1.00  0.00    -0.048 Br
HETATM    7  C   UNL     1       7.847  22.385  52.850  1.00  0.00     0.064 A 
HETATM    8  C   UNL     1       7.881  21.229  53.623  1.00  0.00     0.117 A 
HETATM    9  F   UNL     1       7.872  20.034  53.021  1.00  0.00    -0.206 F 
HETATM   10  C   UNL     1       7.944  21.292  55.010  1.00  0.00     0.045 A 
HETATM   11  C   UNL     1       7.953  22.535  55.640  1.00  0.00     0.041 A 
ENDBRANCH   3   4
ENDBRANCH   2   3
BRANCH   2  12
HETATM   12  C   UNL     1       7.005  27.103  55.867  1.00  0.00     0.252 C 
HETATM   13  N   UNL     1       7.979  27.180  56.849  1.00  0.00    -0.309 N 
HETATM   14  H   UNL     1       8.310  26.300  57.222  1.00  0.00     0.170 HD
HETATM   15  O   UNL     1       6.470  28.045  55.291  1.00  0.00    -0.270 OA
BRANCH  13  16
HETATM   16  C   UNL     1       8.457  28.356  57.437  1.00  0.00     0.129 A 
HETATM   17  N   UNL     1       7.808  28.923  58.469  1.00  0.00    -0.242 NA
HETATM   18  C   UNL     1       8.334  30.046  59.014  1.00  0.00     0.142 A 
HETATM   19  C   UNL     1       9.497  30.644  58.565  1.00  0.00     0.051 A 
HETATM   20 CL   UNL     1      10.109  32.064  59.305  1.00  0.00    -0.083 Cl
HETATM   21  C   UNL     1      10.159  30.059  57.495  1.00  0.00     0.029 A 
HETATM   22  C   UNL     1       9.633  28.897  56.923  1.00  0.00     0.052 A 
ENDBRANCH  13  16
ENDBRANCH   2  12
TORSDOF 4
ENDMDL
MODEL 2
REMARK VINA RESULT:      -8.4      1.797      2.066
REMARK  4 active torsions:
REMARK  status: ('A' for Active; 'I' for Inactive)
REMARK    1  A    between atoms: C_2  and  O_3 
REMARK    2  A    between atoms: C_2  and  C_12 
REMARK    3  A    between atoms: O_3  and  C_4 
REMARK       I    between atoms: C_12  and  N_13 
REMARK    4  A    between atoms: N_13  and  C_14 
ROOT
HETATM    1  C   UNL     1       5.725  25.638  55.572  1.00  0.00     0.050 C 
HETATM    2  C   UNL     1       7.182  25.233  55.792  1.00  0.00     0.217 C 
ENDROOT
BRANCH   2   3
HETATM    3  O   UNL     1       7.287  23.875  56.267  1.00  0.00    -0.336 OA
BRANCH   3   4
HETATM    4  C   UNL     1       7.631  22.986  55.283  1.00  0.00     0.087 A 
HETATM    5  C   UNL     1       8.121  21.703  55.555  1.00  0.00     0.047 A 
HETATM    6 BR   UNL     1       8.339  21.067  57.330  1.00  0.00    -0.048 Br
HETATM    7  C   UNL     1       8.420  20.835  54.503  1.00  0.00     0.064 A 
HETATM    8  C   UNL     1       8.196  21.248  53.194  1.00  0.00     0.117 A 
HETATM    9  F   UNL     1       8.479  20.415  52.184  1.00  0.00    -0.206 F 
HETATM   10  C   UNL     1       7.666  22.502  52.914  1.00  0.00     0.045 A 
HETATM   11  C   UNL     1       7.371  23.370  53.963  1.00  0.00     0.041 A 
ENDBRANCH   3   4
ENDBRANCH   2   3
BRANCH   2  12
HETATM   12  C   UNL     1       7.836  26.151  56.847  1.00  0.00     0.252 C 
HETATM   13  N   UNL     1       7.714  27.490  56.513  1.00  0.00    -0.309 N 
HETATM   14  H   UNL     1       7.280  27.691  55.621  1.00  0.00     0.170 HD
HETATM   15  O   UNL     1       8.332  25.696  57.872  1.00  0.00    -0.270 OA
BRANCH  13  16
HETATM   16  C   UNL     1       8.230  28.567  57.241  1.00  0.00     0.129 A 
HETATM   17  N   UNL     1       7.519  29.133  58.231  1.00  0.00    -0.242 NA
HETATM   18  C   UNL     1       8.083  30.155  58.918  1.00  0.00     0.142 A 
HETATM   19  C   UNL     1       9.347  30.652  58.653  1.00  0.00     0.051 A 
HETATM   20 CL   UNL     1      10.002  31.947  59.566  1.00  0.00    -0.083 Cl
HETATM   21  C   UNL     1      10.074  30.067  57.626  1.00  0.00     0.029 A 
HETATM   22  C   UNL     1       9.509  29.009  56.909  1.00  0.00     0.052 A 
ENDBRANCH  13  16
ENDBRANCH   2  12
TORSDOF 4
ENDMDL
MODEL 3
REMARK VINA RESULT:      -8.1      1.686      1.984
REMARK  4 active torsions:
REMARK  status: ('A' for Active; 'I' for Inactive)
REMARK    1  A    between atoms: C_2  and  O_3 
REMARK    2  A    between atoms: C_2  and  C_12 
REMARK    3  A    between atoms: O_3  and  C_4 
REMARK       I    between atoms: C_12  and  N_13 
REMARK    4  A    between atoms: N_13  and  C_14 
ROOT
HETATM    1  C   UNL     1       5.469  26.861  53.553  1.00  0.00     0.050 C 
HETATM    2  C   UNL     1       6.882  26.496  54.004  1.00  0.00     0.217 C 
ENDROOT
BRANCH   2   3
HETATM    3  O   UNL     1       6.866  25.470  55.017  1.00  0.00    -0.336 OA
BRANCH   3   4
HETATM    4  C   UNL     1       7.528  24.331  54.639  1.00  0.00     0.087 A 
HETATM    5  C   UNL     1       8.446  23.676  55.469  1.00  0.00     0.047 A 
HETATM    6 BR   UNL     1       8.848  24.303  57.214  1.00  0.00    -0.048 Br
HETATM    7  C   UNL     1       9.059  22.499  55.033  1.00  0.00     0.064 A 
HETATM    8  C   UNL     1       8.724  21.975  53.790  1.00  0.00     0.117 A 
HETATM    9  F   UNL     1       9.308  20.844  53.373  1.00  0.00    -0.206 F 
HETATM   10  C   UNL     1       7.779  22.592  52.979  1.00  0.00     0.045 A 
HETATM   11  C   UNL     1       7.169  23.769  53.410  1.00  0.00     0.041 A 
ENDBRANCH   3   4
ENDBRANCH   2   3
BRANCH   2  12
HETATM   12  C   UNL     1       7.586  27.735  54.601  1.00  0.00     0.252 C 
HETATM   13  N   UNL     1       7.485  27.770  55.982  1.00  0.00    -0.309 N 
HETATM   14  H   UNL     1       6.930  27.040  56.409  1.00  0.00     0.170 HD
HETATM   15  O   UNL     1       8.203  28.523  53.892  1.00  0.00    -0.270 OA
BRANCH  13  16
HETATM   16  C   UNL     1       7.984  28.778  56.814  1.00  0.00     0.129 A 
HETATM   17  N   UNL     1       7.152  29.599  57.478  1.00  0.00    -0.242 NA
HETATM   18  C   UNL     1       7.695  30.538  58.289  1.00  0.00     0.142 A 
HETATM   19  C   UNL     1       9.056  30.703  58.467  1.00  0.00     0.051 A 
HETATM   20 CL   UNL     1       9.676  31.911  59.514  1.00  0.00    -0.083 Cl
HETATM   21  C   UNL     1       9.911  29.857  57.774  1.00  0.00     0.029 A 
HETATM   22  C   UNL     1       9.368  28.879  56.936  1.00  0.00     0.052 A 
ENDBRANCH  13  16
ENDBRANCH   2  12
TORSDOF 4
ENDMDL
MODEL 4
REMARK VINA RESULT:      -8.0      5.573      7.062
REMARK  4 active torsions:
REMARK  status: ('A' for Active; 'I' for Inactive)
REMARK    1  A    between atoms: C_2  and  O_3 
REMARK    2  A    between atoms: C_2  and  C_12 
REMARK    3  A    between atoms: O_3  and  C_4 
REMARK       I    between atoms: C_12  and  N_13 
REMARK    4  A    between atoms: N_13  and  C_14 
ROOT
HETATM    1  C   UNL     1       8.158  25.207  52.080  1.00  0.00     0.050 C 
HETATM    2  C   UNL     1       6.963  24.750  52.916  1.00  0.00     0.217 C 
ENDROOT
BRANCH   2   3
HETATM    3  O   UNL     1       6.912  23.313  53.023  1.00  0.00    -0.336 OA
BRANCH   3   4
HETATM    4  C   UNL     1       7.315  22.850  54.248  1.00  0.00     0.087 A 
HETATM    5  C   UNL     1       7.935  21.607  54.424  1.00  0.00     0.047 A 
HETATM    6 BR   UNL     1       8.292  20.448  52.965  1.00  0.00    -0.048 Br
HETATM    7  C   UNL     1       8.352  21.213  55.697  1.00  0.00     0.064 A 
HETATM    8  C   UNL     1       8.173  22.077  56.772  1.00  0.00     0.117 A 
HETATM    9  F   UNL     1       8.576  21.701  57.993  1.00  0.00    -0.206 F 
HETATM   10  C   UNL     1       7.601  23.332  56.600  1.00  0.00     0.045 A 
HETATM   11  C   UNL     1       7.181  23.725  55.331  1.00  0.00     0.041 A 
ENDBRANCH   3   4
ENDBRANCH   2   3
BRANCH   2  12
HETATM   12  C   UNL     1       5.645  25.220  52.262  1.00  0.00     0.252 C 
HETATM   13  N   UNL     1       5.875  26.013  51.150  1.00  0.00    -0.309 N 
HETATM   14  H   UNL     1       6.842  26.230  50.947  1.00  0.00     0.170 HD
HETATM   15  O   UNL     1       4.555  24.848  52.682  1.00  0.00    -0.270 OA
BRANCH  13  16
HETATM   16  C   UNL     1       4.894  26.623  50.362  1.00  0.00     0.129 A 
HETATM   17  N   UNL     1       4.416  26.013  49.263  1.00  0.00    -0.242 NA
HETATM   18  C   UNL     1       3.447  26.642  48.555  1.00  0.00     0.142 A 
HETATM   19  C   UNL     1       2.927  27.877  48.896  1.00  0.00     0.051 A 
HETATM   20 CL   UNL     1       1.697  28.614  47.956  1.00  0.00    -0.083 Cl
HETATM   21  C   UNL     1       3.429  28.505  50.027  1.00  0.00     0.029 A 
HETATM   22  C   UNL     1       4.425  27.869  50.773  1.00  0.00     0.052 A 
ENDBRANCH  13  16
ENDBRANCH   2  12
TORSDOF 4
ENDMDL
MODEL 5
REMARK VINA RESULT:      -7.9      4.829      6.204
REMARK  4 active torsions:
REMARK  status: ('A' for Active; 'I' for Inactive)
REMARK    1  A    between atoms: C_2  and  O_3 
REMARK    2  A    between atoms: C_2  and  C_12 
REMARK    3  A    between atoms: O_3  and  C_4 
REMARK       I    between atoms: C_12  and  N_13 
REMARK    4  A    between atoms: N_13  and  C_14 
ROOT
HETATM    1  C   UNL     1       5.484  25.553  55.873  1.00  0.00     0.050 C 
HETATM    2  C   UNL     1       5.879  25.201  54.440  1.00  0.00     0.217 C 
ENDROOT
BRANCH   2   3
HETATM    3  O   UNL     1       7.312  25.158  54.283  1.00  0.00    -0.336 OA
BRANCH   3   4
HETATM    4  C   UNL     1       7.810  23.882  54.236  1.00  0.00     0.087 A 
HETATM    5  C   UNL     1       8.507  23.299  55.301  1.00  0.00     0.047 A 
HETATM    6 BR   UNL     1       8.813  24.226  56.928  1.00  0.00    -0.048 Br
HETATM    7  C   UNL     1       8.957  21.981  55.199  1.00  0.00     0.064 A 
HETATM    8  C   UNL     1       8.678  21.252  54.047  1.00  0.00     0.117 A 
HETATM    9  F   UNL     1       9.105  19.987  53.950  1.00  0.00    -0.206 F 
HETATM   10  C   UNL     1       7.946  21.807  53.004  1.00  0.00     0.045 A 
HETATM   11  C   UNL     1       7.500  23.123  53.103  1.00  0.00     0.041 A 
ENDBRANCH   3   4
ENDBRANCH   2   3
BRANCH   2  12
HETATM   12  C   UNL     1       5.331  26.262  53.461  1.00  0.00     0.252 C 
HETATM   13  N   UNL     1       5.685  25.987  52.151  1.00  0.00    -0.309 N 
HETATM   14  H   UNL     1       6.289  25.188  52.008  1.00  0.00     0.170 HD
HETATM   15  O   UNL     1       4.616  27.181  53.848  1.00  0.00    -0.270 OA
BRANCH  13  16
HETATM   16  C   UNL     1       5.374  26.774  51.036  1.00  0.00     0.129 A 
HETATM   17  N   UNL     1       5.659  28.088  51.019  1.00  0.00    -0.242 NA
HETATM   18  C   UNL     1       5.358  28.791  49.901  1.00  0.00     0.142 A 
HETATM   19  C   UNL     1       4.770  28.234  48.780  1.00  0.00     0.051 A 
HETATM   20 CL   UNL     1       4.420  29.183  47.395  1.00  0.00    -0.083 Cl
HETATM   21  C   UNL     1       4.472  26.879  48.806  1.00  0.00     0.029 A 
HETATM   22  C   UNL     1       4.780  26.136  49.949  1.00  0.00     0.052 A 
ENDBRANCH  13  16
ENDBRANCH   2  12
TORSDOF 4
ENDMDL
MODEL 6
REMARK VINA RESULT:      -7.8      4.177      5.200
REMARK  4 active torsions:
REMARK  status: ('A' for Active; 'I' for Inactive)
REMARK    1  A    between atoms: C_2  and  O_3 
REMARK    2  A    between atoms: C_2  and  C_12 
REMARK    3  A    between atoms: O_3  and  C_4 
REMARK       I    between atoms: C_12  and  N_13 
REMARK    4  A    between atoms: N_13  and  C_14 
ROOT
HETATM    1  C   UNL     1       5.486  25.373  56.958  1.00  0.00     0.050 C 
HETATM    2  C   UNL     1       5.935  25.170  55.512  1.00  0.00     0.217 C 
ENDROOT
BRANCH   2   3
HETATM    3  O   UNL     1       7.323  24.785  55.438  1.00  0.00    -0.336 OA
BRANCH   3   4
HETATM    4  C   UNL     1       7.515  23.584  54.806  1.00  0.00     0.087 A 
HETATM    5  C   UNL     1       7.776  23.481  53.435  1.00  0.00     0.047 A 
HETATM    6 BR   UNL     1       7.905  25.010  52.319  1.00  0.00    -0.048 Br
HETATM    7  C   UNL     1       7.996  22.226  52.862  1.00  0.00     0.064 A 
HETATM    8  C   UNL     1       7.985  21.095  53.671  1.00  0.00     0.117 A 
HETATM    9  F   UNL     1       8.200  19.892  53.123  1.00  0.00    -0.206 F 
HETATM   10  C   UNL     1       7.773  21.192  55.041  1.00  0.00     0.045 A 
HETATM   11  C   UNL     1       7.549  22.442  55.613  1.00  0.00     0.041 A 
ENDBRANCH   3   4
ENDBRANCH   2   3
BRANCH   2  12
HETATM   12  C   UNL     1       5.769  26.483  54.715  1.00  0.00     0.252 C 
HETATM   13  N   UNL     1       4.821  26.361  53.713  1.00  0.00    -0.309 N 
HETATM   14  H   UNL     1       4.413  25.443  53.591  1.00  0.00     0.170 HD
HETATM   15  O   UNL     1       6.383  27.499  55.022  1.00  0.00    -0.270 OA
BRANCH  13  16
HETATM   16  C   UNL     1       4.466  27.356  52.796  1.00  0.00     0.129 A 
HETATM   17  N   UNL     1       5.033  27.406  51.578  1.00  0.00    -0.242 NA
HETATM   18  C   UNL     1       4.629  28.377  50.725  1.00  0.00     0.142 A 
HETATM   19  C   UNL     1       3.671  29.323  51.039  1.00  0.00     0.051 A 
HETATM   20 CL   UNL     1       3.203  30.523  49.907  1.00  0.00    -0.083 Cl
HETATM   21  C   UNL     1       3.093  29.272  52.299  1.00  0.00     0.029 A 
HETATM   22  C   UNL     1       3.495  28.274  53.191  1.00  0.00     0.052 A 
ENDBRANCH  13  16
ENDBRANCH   2  12
TORSDOF 4
ENDMDL
MODEL 7
REMARK VINA RESULT:      -7.8      5.816      7.476
REMARK  4 active torsions:
REMARK  status: ('A' for Active; 'I' for Inactive)
REMARK    1  A    between atoms: C_2  and  O_3 
REMARK    2  A    between atoms: C_2  and  C_12 
REMARK    3  A    between atoms: O_3  and  C_4 
REMARK       I    between atoms: C_12  and  N_13 
REMARK    4  A    between atoms: N_13  and  C_14 
ROOT
HETATM    1  C   UNL     1       7.733  24.840  51.812  1.00  0.00     0.050 C 
HETATM    2  C   UNL     1       6.792  25.434  52.858  1.00  0.00     0.217 C 
ENDROOT
BRANCH   2   3
HETATM    3  O   UNL     1       6.287  24.420  53.751  1.00  0.00    -0.336 OA
BRANCH   3   4
HETATM    4  C   UNL     1       7.008  24.318  54.912  1.00  0.00     0.087 A 
HETATM    5  C   UNL     1       7.786  23.198  55.228  1.00  0.00     0.047 A 
HETATM    6 BR   UNL     1       7.926  21.711  54.058  1.00  0.00    -0.048 Br
HETATM    7  C   UNL     1       8.524  23.175  56.414  1.00  0.00     0.064 A 
HETATM    8  C   UNL     1       8.501  24.284  57.252  1.00  0.00     0.117 A 
HETATM    9  F   UNL     1       9.211  24.266  58.387  1.00  0.00    -0.206 F 
HETATM   10  C   UNL     1       7.769  25.420  56.925  1.00  0.00     0.045 A 
HETATM   11  C   UNL     1       7.030  25.442  55.744  1.00  0.00     0.041 A 
ENDBRANCH   3   4
ENDBRANCH   2   3
BRANCH   2  12
HETATM   12  C   UNL     1       5.580  26.097  52.169  1.00  0.00     0.252 C 
HETATM   13  N   UNL     1       5.730  26.143  50.793  1.00  0.00    -0.309 N 
HETATM   14  H   UNL     1       6.610  25.803  50.427  1.00  0.00     0.170 HD
HETATM   15  O   UNL     1       4.599  26.461  52.810  1.00  0.00    -0.270 OA
BRANCH  13  16
HETATM   16  C   UNL     1       4.827  26.712  49.888  1.00  0.00     0.129 A 
HETATM   17  N   UNL     1       4.732  28.047  49.757  1.00  0.00    -0.242 NA
HETATM   18  C   UNL     1       3.858  28.537  48.846  1.00  0.00     0.142 A 
HETATM   19  C   UNL     1       3.055  27.743  48.049  1.00  0.00     0.051 A 
HETATM   20 CL   UNL     1       1.972  28.431  46.911  1.00  0.00    -0.083 Cl
HETATM   21  C   UNL     1       3.152  26.366  48.193  1.00  0.00     0.029 A 
HETATM   22  C   UNL     1       4.052  25.842  49.125  1.00  0.00     0.052 A 
ENDBRANCH  13  16
ENDBRANCH   2  12
TORSDOF 4
ENDMDL
MODEL 8
REMARK VINA RESULT:      -7.8      6.904     10.369
REMARK  4 active torsions:
REMARK  status: ('A' for Active; 'I' for Inactive)
REMARK    1  A    between atoms: C_2  and  O_3 
REMARK    2  A    between atoms: C_2  and  C_12 
REMARK    3  A    between atoms: O_3  and  C_4 
REMARK       I    between atoms: C_12  and  N_13 
REMARK    4  A    between atoms: N_13  and  C_14 
ROOT
HETATM    1  C   UNL     1       9.533  30.652  61.867  1.00  0.00     0.050 C 
HETATM    2  C   UNL     1       8.378  31.571  61.471  1.00  0.00     0.217 C 
ENDROOT
BRANCH   2   3
HETATM    3  O   UNL     1       7.188  31.281  62.231  1.00  0.00    -0.336 OA
BRANCH   3   4
HETATM    4  C   UNL     1       6.760  32.341  62.987  1.00  0.00     0.087 A 
HETATM    5  C   UNL     1       5.504  32.936  62.819  1.00  0.00     0.047 A 
HETATM    6 BR   UNL     1       4.261  32.312  61.529  1.00  0.00    -0.048 Br
HETATM    7  C   UNL     1       5.119  33.992  63.648  1.00  0.00     0.064 A 
HETATM    8  C   UNL     1       5.979  34.418  64.654  1.00  0.00     0.117 A 
HETATM    9  F   UNL     1       5.610  35.427  65.453  1.00  0.00    -0.206 F 
HETATM   10  C   UNL     1       7.209  33.803  64.860  1.00  0.00     0.045 A 
HETATM   11  C   UNL     1       7.596  32.752  64.030  1.00  0.00     0.041 A 
ENDBRANCH   3   4
ENDBRANCH   2   3
BRANCH   2  12
HETATM   12  C   UNL     1       8.039  31.385  59.976  1.00  0.00     0.252 C 
HETATM   13  N   UNL     1       8.287  30.092  59.547  1.00  0.00    -0.309 N 
HETATM   14  H   UNL     1       8.703  29.467  60.226  1.00  0.00     0.170 HD
HETATM   15  O   UNL     1       7.547  32.293  59.314  1.00  0.00    -0.270 OA
BRANCH  13  16
HETATM   16  C   UNL     1       8.118  29.614  58.244  1.00  0.00     0.129 A 
HETATM   17  N   UNL     1       6.914  29.195  57.815  1.00  0.00    -0.242 NA
HETATM   18  C   UNL     1       6.807  28.768  56.533  1.00  0.00     0.142 A 
HETATM   19  C   UNL     1       7.867  28.734  55.645  1.00  0.00     0.051 A 
HETATM   20 CL   UNL     1       7.659  28.186  54.034  1.00  0.00    -0.083 Cl
HETATM   21  C   UNL     1       9.108  29.162  56.095  1.00  0.00     0.029 A 
HETATM   22  C   UNL     1       9.236  29.610  57.413  1.00  0.00     0.052 A 
ENDBRANCH  13  16
ENDBRANCH   2  12
TORSDOF 4
ENDMDL
MODEL 9
REMARK VINA RESULT:      -7.5      7.746     11.112
REMARK  4 active torsions:
REMARK  status: ('A' for Active; 'I' for Inactive)
REMARK    1  A    between atoms: C_2  and  O_3 
REMARK    2  A    between atoms: C_2  and  C_12 
REMARK    3  A    between atoms: O_3  and  C_4 
REMARK       I    between atoms: C_12  and  N_13 
REMARK    4  A    between atoms: N_13  and  C_14 
ROOT
HETATM    1  C   UNL     1       3.547  33.208  60.493  1.00  0.00     0.050 C 
HETATM    2  C   UNL     1       4.940  32.913  61.044  1.00  0.00     0.217 C 
ENDROOT
BRANCH   2   3
HETATM    3  O   UNL     1       5.464  34.035  61.784  1.00  0.00    -0.336 OA
BRANCH   3   4
HETATM    4  C   UNL     1       5.150  33.994  63.117  1.00  0.00     0.087 A 
HETATM    5  C   UNL     1       6.017  33.475  64.087  1.00  0.00     0.047 A 
HETATM    6 BR   UNL     1       7.729  32.791  63.639  1.00  0.00    -0.048 Br
HETATM    7  C   UNL     1       5.646  33.496  65.433  1.00  0.00     0.064 A 
HETATM    8  C   UNL     1       4.430  34.063  65.797  1.00  0.00     0.117 A 
HETATM    9  F   UNL     1       4.076  34.088  67.088  1.00  0.00    -0.206 F 
HETATM   10  C   UNL     1       3.583  34.624  64.848  1.00  0.00     0.045 A 
HETATM   11  C   UNL     1       3.950  34.599  63.504  1.00  0.00     0.041 A 
ENDBRANCH   3   4
ENDBRANCH   2   3
BRANCH   2  12
HETATM   12  C   UNL     1       5.919  32.616  59.886  1.00  0.00     0.252 C 
HETATM   13  N   UNL     1       6.921  31.740  60.270  1.00  0.00    -0.309 N 
HETATM   14  H   UNL     1       6.924  31.461  61.242  1.00  0.00     0.170 HD
HETATM   15  O   UNL     1       5.740  33.077  58.764  1.00  0.00    -0.270 OA
BRANCH  13  16
HETATM   16  C   UNL     1       7.978  31.302  59.465  1.00  0.00     0.129 A 
HETATM   17  N   UNL     1       9.036  32.096  59.226  1.00  0.00    -0.242 NA
HETATM   18  C   UNL     1      10.041  31.606  58.461  1.00  0.00     0.142 A 
HETATM   19  C   UNL     1      10.035  30.339  57.907  1.00  0.00     0.051 A 
HETATM   20 CL   UNL     1      11.344  29.781  56.951  1.00  0.00    -0.083 Cl
HETATM   21  C   UNL     1       8.937  29.527  58.151  1.00  0.00     0.029 A 
HETATM   22  C   UNL     1       7.893  30.014  58.942  1.00  0.00     0.052 A 
ENDBRANCH  13  16
ENDBRANCH   2  12
TORSDOF 4
ENDMDL
MODEL 10
REMARK VINA RESULT:      -7.5      3.859      4.446
REMARK  4 active torsions:
REMARK  status: ('A' for Active; 'I' for Inactive)
REMARK    1  A    between atoms: C_2  and  O_3 
REMARK    2  A    between atoms: C_2  and  C_12 
REMARK    3  A    between atoms: O_3  and  C_4 
REMARK       I    between atoms: C_12  and  N_13 
REMARK    4  A    between atoms: N_13  and  C_14 
ROOT
HETATM    1  C   UNL     1       7.704  25.176  52.014  1.00  0.00     0.050 C 
HETATM    2  C   UNL     1       7.642  25.418  53.521  1.00  0.00     0.217 C 
ENDROOT
BRANCH   2   3
HETATM    3  O   UNL     1       6.738  24.500  54.167  1.00  0.00    -0.336 OA
BRANCH   3   4
HETATM    4  C   UNL     1       7.382  23.512  54.866  1.00  0.00     0.087 A 
HETATM    5  C   UNL     1       7.764  23.655  56.206  1.00  0.00     0.047 A 
HETATM    6 BR   UNL     1       7.406  25.238  57.189  1.00  0.00    -0.048 Br
HETATM    7  C   UNL     1       8.387  22.595  56.867  1.00  0.00     0.064 A 
HETATM    8  C   UNL     1       8.591  21.395  56.193  1.00  0.00     0.117 A 
HETATM    9  F   UNL     1       9.185  20.376  56.828  1.00  0.00    -0.206 F 
HETATM   10  C   UNL     1       8.173  21.228  54.878  1.00  0.00     0.045 A 
HETATM   11  C   UNL     1       7.555  22.287  54.216  1.00  0.00     0.041 A 
ENDBRANCH   3   4
ENDBRANCH   2   3
BRANCH   2  12
HETATM   12  C   UNL     1       7.143  26.851  53.809  1.00  0.00     0.252 C 
HETATM   13  N   UNL     1       5.802  26.870  54.158  1.00  0.00    -0.309 N 
HETATM   14  H   UNL     1       5.318  25.982  54.122  1.00  0.00     0.170 HD
HETATM   15  O   UNL     1       7.905  27.811  53.783  1.00  0.00    -0.270 OA
BRANCH  13  16
HETATM   16  C   UNL     1       5.046  28.011  54.443  1.00  0.00     0.129 A 
HETATM   17  N   UNL     1       4.597  28.805  53.455  1.00  0.00    -0.242 NA
HETATM   18  C   UNL     1       3.847  29.882  53.793  1.00  0.00     0.142 A 
HETATM   19  C   UNL     1       3.525  30.213  55.096  1.00  0.00     0.051 A 
HETATM   20 CL   UNL     1       2.567  31.590  55.452  1.00  0.00    -0.083 Cl
HETATM   21  C   UNL     1       3.997  29.394  56.112  1.00  0.00     0.029 A 
HETATM   22  C   UNL     1       4.768  28.276  55.782  1.00  0.00     0.052 A 
ENDBRANCH  13  16
ENDBRANCH   2  12
TORSDOF 4
ENDMDL
