MODEL 1
REMARK VINA RESULT:     -10.2      0.000      0.000
REMARK  8 active torsions:
REMARK  status: ('A' for Active; 'I' for Inactive)
REMARK    1  A    between atoms: C_6  and  N_7 
REMARK    2  A    between atoms: C_6  and  C_26 
REMARK       I    between atoms: N_7  and  C_8 
REMARK    3  A    between atoms: N_7  and  C_23 
REMARK    4  A    between atoms: C_8  and  C_9 
REMARK    5  A    between atoms: C_9  and  N_10 
REMARK    6  A    between atoms: C_14  and  C_15 
REMARK       I    between atoms: C_26  and  N_27 
REMARK    7  A    between atoms: N_27  and  C_28 
REMARK    8  A    between atoms: C_31  and  N_32 
ROOT
HETATM    1  C   UNL     1       2.374  31.816  55.376  1.00  0.00     0.269 C 
HETATM    2  N   UNL     1       3.456  30.877  55.852  1.00  0.00    -0.075 N 
HETATM    3  H   UNL     1       3.213  29.952  55.460  1.00  0.00     0.279 HD
HETATM    4  C   UNL     1       4.801  31.283  55.309  1.00  0.00     0.237 C 
HETATM    5  C   UNL     1       5.902  30.338  55.789  1.00  0.00     0.069 C 
HETATM    6  C   UNL     1       5.903  30.066  57.312  1.00  0.00     0.120 C 
HETATM    7  C   UNL     1       4.465  29.712  57.763  1.00  0.00     0.069 C 
HETATM    8  C   UNL     1       3.439  30.760  57.355  1.00  0.00     0.237 C 
ENDROOT
BRANCH   6   9
HETATM    9  N   UNL     1       6.927  29.001  57.667  1.00  0.00    -0.328 N 
HETATM   10  C   UNL     1       6.854  27.610  57.503  1.00  0.00     0.239 C 
HETATM   11  O   UNL     1       7.626  26.871  58.132  1.00  0.00    -0.271 OA
BRANCH  10  12
HETATM   12  C   UNL     1       5.813  26.947  56.598  1.00  0.00     0.228 C 
BRANCH  12  13
HETATM   13  N   UNL     1       6.375  26.334  55.396  1.00  0.00    -0.347 N 
HETATM   14  C   UNL     1       5.845  26.402  54.103  1.00  0.00     0.171 C 
HETATM   15  S   UNL     1       4.348  26.922  53.621  1.00  0.00    -0.041 SA
HETATM   16  N   UNL     1       6.785  25.882  53.232  1.00  0.00    -0.357 N 
HETATM   17  C   UNL     1       7.912  25.301  53.936  1.00  0.00     0.135 C 
HETATM   18  H   UNL     1       6.632  25.810  52.233  1.00  0.00     0.162 HD
HETATM   19  C   UNL     1       7.793  25.994  55.308  1.00  0.00     0.155 C 
BRANCH  17  20
HETATM   20  C   UNL     1       7.829  23.779  54.027  1.00  0.00    -0.034 A 
HETATM   21  C   UNL     1       7.913  22.948  52.897  1.00  0.00     0.009 A 
HETATM   22  C   UNL     1       7.868  21.556  53.019  1.00  0.00     0.001 A 
HETATM   23  C   UNL     1       7.743  20.967  54.273  1.00  0.00     0.000 A 
HETATM   24  C   UNL     1       7.679  21.769  55.409  1.00  0.00     0.001 A 
HETATM   25  C   UNL     1       7.733  23.159  55.288  1.00  0.00     0.009 A 
ENDBRANCH  17  20
ENDBRANCH  12  13
ENDBRANCH  10  12
BRANCH   9  26
HETATM   26  C   UNL     1       8.235  29.456  58.164  1.00  0.00     0.088 A 
HETATM   27  C   UNL     1       9.466  29.175  57.328  1.00  0.00     0.027 A 
HETATM   28  C   UNL     1       9.071  30.586  57.619  1.00  0.00     0.027 A 
ENDBRANCH   9  26
ENDBRANCH   6   9
BRANCH   6  29
HETATM   29  C   UNL     1       6.198  31.384  58.116  1.00  0.00     0.251 C 
HETATM   30  N   UNL     1       6.220  31.200  59.491  1.00  0.00    -0.325 N 
HETATM   31  H   UNL     1       6.376  30.253  59.825  1.00  0.00     0.169 HD
HETATM   32  O   UNL     1       6.170  32.472  57.545  1.00  0.00    -0.270 OA
BRANCH  30  33
HETATM   33  C   UNL     1       5.997  32.176  60.483  1.00  0.00     0.034 A 
HETATM   34  C   UNL     1       4.922  33.058  60.481  1.00  0.00     0.032 A 
HETATM   35  C   UNL     1       4.722  33.939  61.554  1.00  0.00     0.031 A 
HETATM   36  C   UNL     1       5.570  33.970  62.671  1.00  0.00     0.030 A 
HETATM   37  C   UNL     1       6.669  33.103  62.633  1.00  0.00     0.031 A 
HETATM   38  C   UNL     1       6.879  32.215  61.563  1.00  0.00     0.032 A 
BRANCH  36  39
HETATM   39  N   UNL     1       5.328  34.866  63.707  1.00  0.00    -0.377 N 
HETATM   40  C   UNL     1       3.962  35.430  63.836  1.00  0.00     0.149 C 
HETATM   41  C   UNL     1       3.132  34.585  64.817  1.00  0.00     0.187 C 
HETATM   42  O   UNL     1       3.766  34.487  66.103  1.00  0.00    -0.388 OA
HETATM   43  C   UNL     1       5.075  33.907  65.981  1.00  0.00     0.187 C 
HETATM   44  C   UNL     1       5.969  34.719  65.030  1.00  0.00     0.149 C 
ENDBRANCH  36  39
ENDBRANCH  30  33
ENDBRANCH   6  29
TORSDOF 8
ENDMDL
MODEL 2
REMARK VINA RESULT:     -10.0      4.490      8.612
REMARK  8 active torsions:
REMARK  status: ('A' for Active; 'I' for Inactive)
REMARK    1  A    between atoms: C_6  and  N_7 
REMARK    2  A    between atoms: C_6  and  C_26 
REMARK       I    between atoms: N_7  and  C_8 
REMARK    3  A    between atoms: N_7  and  C_23 
REMARK    4  A    between atoms: C_8  and  C_9 
REMARK    5  A    between atoms: C_9  and  N_10 
REMARK    6  A    between atoms: C_14  and  C_15 
REMARK       I    between atoms: C_26  and  N_27 
REMARK    7  A    between atoms: N_27  and  C_28 
REMARK    8  A    between atoms: C_31  and  N_32 
ROOT
HETATM    1  C   UNL     1       2.999  32.336  56.171  1.00  0.00     0.269 C 
HETATM    2  N   UNL     1       3.916  31.234  56.641  1.00  0.00    -0.075 N 
HETATM    3  H   UNL     1       3.919  31.296  57.672  1.00  0.00     0.279 HD
HETATM    4  C   UNL     1       3.378  29.882  56.251  1.00  0.00     0.237 C 
HETATM    5  C   UNL     1       4.303  28.760  56.721  1.00  0.00     0.069 C 
HETATM    6  C   UNL     1       5.797  28.961  56.369  1.00  0.00     0.120 C 
HETATM    7  C   UNL     1       6.220  30.396  56.765  1.00  0.00     0.069 C 
HETATM    8  C   UNL     1       5.325  31.469  56.160  1.00  0.00     0.237 C 
ENDROOT
BRANCH   6   9
HETATM    9  N   UNL     1       6.651  27.881  57.010  1.00  0.00    -0.328 N 
HETATM   10  C   UNL     1       6.516  26.486  56.943  1.00  0.00     0.239 C 
HETATM   11  O   UNL     1       7.091  25.767  57.774  1.00  0.00    -0.271 OA
BRANCH  10  12
HETATM   12  C   UNL     1       5.636  25.800  55.896  1.00  0.00     0.228 C 
BRANCH  12  13
HETATM   13  N   UNL     1       6.386  25.105  54.851  1.00  0.00    -0.347 N 
HETATM   14  C   UNL     1       5.944  24.831  53.553  1.00  0.00     0.171 C 
HETATM   15  S   UNL     1       4.412  24.945  52.933  1.00  0.00    -0.041 SA
HETATM   16  N   UNL     1       7.024  24.362  52.827  1.00  0.00    -0.357 N 
HETATM   17  C   UNL     1       8.189  24.156  53.665  1.00  0.00     0.135 C 
HETATM   18  H   UNL     1       6.957  24.081  51.856  1.00  0.00     0.162 HD
HETATM   19  C   UNL     1       7.846  25.047  54.876  1.00  0.00     0.155 C 
BRANCH  17  20
HETATM   20  C   UNL     1       8.393  22.690  54.042  1.00  0.00    -0.034 A 
HETATM   21  C   UNL     1       8.764  22.287  55.337  1.00  0.00     0.009 A 
HETATM   22  C   UNL     1       8.910  20.933  55.658  1.00  0.00     0.001 A 
HETATM   23  C   UNL     1       8.682  19.957  54.693  1.00  0.00     0.000 A 
HETATM   24  C   UNL     1       8.294  20.332  53.410  1.00  0.00     0.001 A 
HETATM   25  C   UNL     1       8.140  21.683  53.092  1.00  0.00     0.009 A 
ENDBRANCH  17  20
ENDBRANCH  12  13
ENDBRANCH  10  12
BRANCH   9  26
HETATM   26  C   UNL     1       7.861  28.310  57.731  1.00  0.00     0.088 A 
HETATM   27  C   UNL     1       9.187  28.278  57.002  1.00  0.00     0.027 A 
HETATM   28  C   UNL     1       8.648  29.575  57.509  1.00  0.00     0.027 A 
ENDBRANCH   9  26
ENDBRANCH   6   9
BRANCH   6  29
HETATM   29  C   UNL     1       6.009  28.960  54.811  1.00  0.00     0.251 C 
HETATM   30  N   UNL     1       4.853  29.237  54.096  1.00  0.00    -0.325 N 
HETATM   31  H   UNL     1       4.108  29.716  54.594  1.00  0.00     0.169 HD
HETATM   32  O   UNL     1       7.053  28.525  54.333  1.00  0.00    -0.270 OA
BRANCH  30  33
HETATM   33  C   UNL     1       4.572  28.878  52.762  1.00  0.00     0.034 A 
HETATM   34  C   UNL     1       3.377  29.164  52.113  1.00  0.00     0.032 A 
HETATM   35  C   UNL     1       3.211  28.853  50.756  1.00  0.00     0.031 A 
HETATM   36  C   UNL     1       4.226  28.259  49.991  1.00  0.00     0.030 A 
HETATM   37  C   UNL     1       5.406  27.942  50.674  1.00  0.00     0.031 A 
HETATM   38  C   UNL     1       5.583  28.250  52.034  1.00  0.00     0.032 A 
BRANCH  36  39
HETATM   39  N   UNL     1       4.009  27.968  48.648  1.00  0.00    -0.377 N 
HETATM   40  C   UNL     1       4.546  26.692  48.115  1.00  0.00     0.149 C 
HETATM   41  C   UNL     1       3.468  25.596  48.184  1.00  0.00     0.187 C 
HETATM   42  O   UNL     1       2.275  25.979  47.481  1.00  0.00    -0.388 OA
HETATM   43  C   UNL     1       1.735  27.196  48.022  1.00  0.00     0.187 C 
HETATM   44  C   UNL     1       2.755  28.345  47.961  1.00  0.00     0.149 C 
ENDBRANCH  36  39
ENDBRANCH  30  33
ENDBRANCH   6  29
TORSDOF 8
ENDMDL
MODEL 3
REMARK VINA RESULT:      -9.7      5.847     10.027
REMARK  8 active torsions:
REMARK  status: ('A' for Active; 'I' for Inactive)
REMARK    1  A    between atoms: C_6  and  N_7 
REMARK    2  A    between atoms: C_6  and  C_26 
REMARK       I    between atoms: N_7  and  C_8 
REMARK    3  A    between atoms: N_7  and  C_23 
REMARK    4  A    between atoms: C_8  and  C_9 
REMARK    5  A    between atoms: C_9  and  N_10 
REMARK    6  A    between atoms: C_14  and  C_15 
REMARK       I    between atoms: C_26  and  N_27 
REMARK    7  A    between atoms: N_27  and  C_28 
REMARK    8  A    between atoms: C_31  and  N_32 
ROOT
HETATM    1  C   UNL     1       3.119  26.870  48.228  1.00  0.00     0.269 C 
HETATM    2  N   UNL     1       3.219  27.378  49.646  1.00  0.00    -0.075 N 
HETATM    3  H   UNL     1       2.490  26.871  50.175  1.00  0.00     0.279 HD
HETATM    4  C   UNL     1       4.559  27.040  50.247  1.00  0.00     0.237 C 
HETATM    5  C   UNL     1       4.669  27.553  51.682  1.00  0.00     0.069 C 
HETATM    6  C   UNL     1       4.256  29.032  51.874  1.00  0.00     0.120 C 
HETATM    7  C   UNL     1       2.897  29.272  51.174  1.00  0.00     0.069 C 
HETATM    8  C   UNL     1       2.898  28.849  49.711  1.00  0.00     0.237 C 
ENDROOT
BRANCH   6   9
HETATM    9  N   UNL     1       4.250  29.401  53.348  1.00  0.00    -0.328 N 
HETATM   10  C   UNL     1       5.085  28.948  54.380  1.00  0.00     0.239 C 
HETATM   11  O   UNL     1       4.745  29.098  55.563  1.00  0.00    -0.271 OA
BRANCH  10  12
HETATM   12  C   UNL     1       6.404  28.223  54.105  1.00  0.00     0.228 C 
BRANCH  12  13
HETATM   13  N   UNL     1       6.595  27.013  54.902  1.00  0.00    -0.347 N 
HETATM   14  C   UNL     1       7.298  26.914  56.107  1.00  0.00     0.171 C 
HETATM   15  S   UNL     1       8.319  28.016  56.806  1.00  0.00    -0.041 SA
HETATM   16  N   UNL     1       7.055  25.661  56.639  1.00  0.00    -0.357 N 
HETATM   17  C   UNL     1       6.307  24.821  55.723  1.00  0.00     0.135 C 
HETATM   18  H   UNL     1       7.464  25.341  57.509  1.00  0.00     0.162 HD
HETATM   19  C   UNL     1       5.677  25.881  54.796  1.00  0.00     0.155 C 
BRANCH  17  20
HETATM   20  C   UNL     1       7.193  23.827  54.976  1.00  0.00    -0.034 A 
HETATM   21  C   UNL     1       7.067  23.589  53.596  1.00  0.00     0.009 A 
HETATM   22  C   UNL     1       7.918  22.696  52.937  1.00  0.00     0.001 A 
HETATM   23  C   UNL     1       8.914  22.028  53.642  1.00  0.00     0.000 A 
HETATM   24  C   UNL     1       9.071  22.263  55.004  1.00  0.00     0.001 A 
HETATM   25  C   UNL     1       8.227  23.161  55.662  1.00  0.00     0.009 A 
ENDBRANCH  17  20
ENDBRANCH  12  13
ENDBRANCH  10  12
BRANCH   9  26
HETATM   26  C   UNL     1       3.317  30.455  53.780  1.00  0.00     0.088 A 
HETATM   27  C   UNL     1       3.881  31.800  54.186  1.00  0.00     0.027 A 
HETATM   28  C   UNL     1       2.947  31.705  53.025  1.00  0.00     0.027 A 
ENDBRANCH   9  26
ENDBRANCH   6   9
BRANCH   6  29
HETATM   29  C   UNL     1       5.221  29.990  51.085  1.00  0.00     0.251 C 
HETATM   30  N   UNL     1       4.627  31.186  50.711  1.00  0.00    -0.325 N 
HETATM   31  H   UNL     1       3.800  31.471  51.228  1.00  0.00     0.169 HD
HETATM   32  O   UNL     1       6.299  29.572  50.671  1.00  0.00    -0.270 OA
BRANCH  30  33
HETATM   33  C   UNL     1       5.013  32.032  49.650  1.00  0.00     0.034 A 
HETATM   34  C   UNL     1       4.750  31.770  48.310  1.00  0.00     0.032 A 
HETATM   35  C   UNL     1       5.088  32.707  47.323  1.00  0.00     0.031 A 
HETATM   36  C   UNL     1       5.685  33.939  47.627  1.00  0.00     0.030 A 
HETATM   37  C   UNL     1       5.978  34.164  48.977  1.00  0.00     0.031 A 
HETATM   38  C   UNL     1       5.644  33.232  49.975  1.00  0.00     0.032 A 
BRANCH  36  39
HETATM   39  N   UNL     1       6.002  34.832  46.608  1.00  0.00    -0.377 N 
HETATM   40  C   UNL     1       7.103  35.798  46.845  1.00  0.00     0.149 C 
HETATM   41  C   UNL     1       8.428  35.230  46.308  1.00  0.00     0.187 C 
HETATM   42  O   UNL     1       8.336  34.895  44.914  1.00  0.00    -0.388 OA
HETATM   43  C   UNL     1       7.293  33.931  44.690  1.00  0.00     0.187 C 
HETATM   44  C   UNL     1       5.931  34.446  45.183  1.00  0.00     0.149 C 
ENDBRANCH  36  39
ENDBRANCH  30  33
ENDBRANCH   6  29
TORSDOF 8
ENDMDL
MODEL 4
REMARK VINA RESULT:      -9.7      2.807     10.761
REMARK  8 active torsions:
REMARK  status: ('A' for Active; 'I' for Inactive)
REMARK    1  A    between atoms: C_6  and  N_7 
REMARK    2  A    between atoms: C_6  and  C_26 
REMARK       I    between atoms: N_7  and  C_8 
REMARK    3  A    between atoms: N_7  and  C_23 
REMARK    4  A    between atoms: C_8  and  C_9 
REMARK    5  A    between atoms: C_9  and  N_10 
REMARK    6  A    between atoms: C_14  and  C_15 
REMARK       I    between atoms: C_26  and  N_27 
REMARK    7  A    between atoms: N_27  and  C_28 
REMARK    8  A    between atoms: C_31  and  N_32 
ROOT
HETATM    1  C   UNL     1      10.961  29.705  57.284  1.00  0.00     0.269 C 
HETATM    2  N   UNL     1       9.487  29.924  57.048  1.00  0.00    -0.075 N 
HETATM    3  H   UNL     1       9.364  30.949  56.990  1.00  0.00     0.279 HD
HETATM    4  C   UNL     1       9.054  29.321  55.737  1.00  0.00     0.237 C 
HETATM    5  C   UNL     1       7.561  29.538  55.493  1.00  0.00     0.069 C 
HETATM    6  C   UNL     1       6.648  29.158  56.683  1.00  0.00     0.120 C 
HETATM    7  C   UNL     1       7.219  29.786  57.977  1.00  0.00     0.069 C 
HETATM    8  C   UNL     1       8.678  29.428  58.220  1.00  0.00     0.237 C 
ENDROOT
BRANCH   6   9
HETATM    9  N   UNL     1       5.208  29.552  56.404  1.00  0.00    -0.328 N 
HETATM   10  C   UNL     1       4.539  30.747  56.711  1.00  0.00     0.239 C 
HETATM   11  O   UNL     1       3.299  30.782  56.705  1.00  0.00    -0.271 OA
BRANCH  10  12
HETATM   12  C   UNL     1       5.286  32.023  57.105  1.00  0.00     0.228 C 
BRANCH  12  13
HETATM   13  N   UNL     1       4.929  32.537  58.426  1.00  0.00    -0.347 N 
HETATM   14  C   UNL     1       4.453  33.819  58.718  1.00  0.00     0.171 C 
HETATM   15  S   UNL     1       4.428  35.163  57.750  1.00  0.00    -0.041 SA
HETATM   16  N   UNL     1       4.034  33.826  60.037  1.00  0.00    -0.357 N 
HETATM   17  C   UNL     1       4.367  32.588  60.715  1.00  0.00     0.135 C 
HETATM   18  H   UNL     1       3.657  34.648  60.492  1.00  0.00     0.162 HD
HETATM   19  C   UNL     1       4.565  31.637  59.518  1.00  0.00     0.155 C 
BRANCH  17  20
HETATM   20  C   UNL     1       5.612  32.711  61.591  1.00  0.00    -0.034 A 
HETATM   21  C   UNL     1       5.666  33.556  62.713  1.00  0.00     0.009 A 
HETATM   22  C   UNL     1       6.811  33.621  63.514  1.00  0.00     0.001 A 
HETATM   23  C   UNL     1       7.921  32.839  63.212  1.00  0.00     0.000 A 
HETATM   24  C   UNL     1       7.883  31.980  62.118  1.00  0.00     0.001 A 
HETATM   25  C   UNL     1       6.737  31.909  61.323  1.00  0.00     0.009 A 
ENDBRANCH  17  20
ENDBRANCH  12  13
ENDBRANCH  10  12
BRANCH   9  26
HETATM   26  C   UNL     1       4.390  28.619  55.612  1.00  0.00     0.088 A 
HETATM   27  C   UNL     1       3.904  29.060  54.247  1.00  0.00     0.027 A 
HETATM   28  C   UNL     1       4.807  27.876  54.369  1.00  0.00     0.027 A 
ENDBRANCH   9  26
ENDBRANCH   6   9
BRANCH   6  29
HETATM   29  C   UNL     1       6.734  27.617  56.985  1.00  0.00     0.251 C 
HETATM   30  N   UNL     1       7.637  26.945  56.174  1.00  0.00    -0.325 N 
HETATM   31  H   UNL     1       8.357  27.504  55.726  1.00  0.00     0.169 HD
HETATM   32  O   UNL     1       5.900  27.086  57.713  1.00  0.00    -0.270 OA
BRANCH  30  33
HETATM   33  C   UNL     1       7.634  25.571  55.855  1.00  0.00     0.034 A 
HETATM   34  C   UNL     1       8.141  24.579  56.684  1.00  0.00     0.032 A 
HETATM   35  C   UNL     1       8.017  23.226  56.334  1.00  0.00     0.031 A 
HETATM   36  C   UNL     1       7.377  22.809  55.157  1.00  0.00     0.030 A 
HETATM   37  C   UNL     1       6.911  23.828  54.317  1.00  0.00     0.031 A 
HETATM   38  C   UNL     1       7.029  25.186  54.659  1.00  0.00     0.032 A 
BRANCH  36  39
HETATM   39  N   UNL     1       7.284  21.455  54.855  1.00  0.00    -0.377 N 
HETATM   40  C   UNL     1       7.616  21.024  53.475  1.00  0.00     0.149 C 
HETATM   41  C   UNL     1       9.093  20.600  53.395  1.00  0.00     0.187 C 
HETATM   42  O   UNL     1       9.400  19.562  54.340  1.00  0.00    -0.388 OA
HETATM   43  C   UNL     1       9.111  19.994  55.681  1.00  0.00     0.187 C 
HETATM   44  C   UNL     1       7.640  20.410  55.838  1.00  0.00     0.149 C 
ENDBRANCH  36  39
ENDBRANCH  30  33
ENDBRANCH   6  29
TORSDOF 8
ENDMDL
MODEL 5
REMARK VINA RESULT:      -9.4      6.935     10.943
REMARK  8 active torsions:
REMARK  status: ('A' for Active; 'I' for Inactive)
REMARK    1  A    between atoms: C_6  and  N_7 
REMARK    2  A    between atoms: C_6  and  C_26 
REMARK       I    between atoms: N_7  and  C_8 
REMARK    3  A    between atoms: N_7  and  C_23 
REMARK    4  A    between atoms: C_8  and  C_9 
REMARK    5  A    between atoms: C_9  and  N_10 
REMARK    6  A    between atoms: C_14  and  C_15 
REMARK       I    between atoms: C_26  and  N_27 
REMARK    7  A    between atoms: N_27  and  C_28 
REMARK    8  A    between atoms: C_31  and  N_32 
ROOT
HETATM    1  C   UNL     1       2.047  32.542  52.848  1.00  0.00     0.269 C 
HETATM    2  N   UNL     1       2.678  31.218  52.495  1.00  0.00    -0.075 N 
HETATM    3  H   UNL     1       2.302  30.540  53.178  1.00  0.00     0.279 HD
HETATM    4  C   UNL     1       2.268  30.775  51.114  1.00  0.00     0.237 C 
HETATM    5  C   UNL     1       2.906  29.435  50.749  1.00  0.00     0.069 C 
HETATM    6  C   UNL     1       4.431  29.353  51.001  1.00  0.00     0.120 C 
HETATM    7  C   UNL     1       4.736  29.881  52.423  1.00  0.00     0.069 C 
HETATM    8  C   UNL     1       4.174  31.273  52.676  1.00  0.00     0.237 C 
ENDROOT
BRANCH   6   9
HETATM    9  N   UNL     1       4.941  27.943  50.757  1.00  0.00    -0.328 N 
HETATM   10  C   UNL     1       5.300  26.955  51.687  1.00  0.00     0.239 C 
HETATM   11  O   UNL     1       5.992  25.991  51.330  1.00  0.00    -0.271 OA
BRANCH  10  12
HETATM   12  C   UNL     1       4.904  27.040  53.163  1.00  0.00     0.228 C 
BRANCH  12  13
HETATM   13  N   UNL     1       5.844  26.384  54.070  1.00  0.00    -0.347 N 
HETATM   14  C   UNL     1       7.008  26.942  54.606  1.00  0.00     0.171 C 
HETATM   15  S   UNL     1       7.786  28.338  54.169  1.00  0.00    -0.041 SA
HETATM   16  N   UNL     1       7.485  26.078  55.575  1.00  0.00    -0.357 N 
HETATM   17  C   UNL     1       6.739  24.834  55.605  1.00  0.00     0.135 C 
HETATM   18  H   UNL     1       8.330  26.255  56.105  1.00  0.00     0.162 HD
HETATM   19  C   UNL     1       5.433  25.255  54.902  1.00  0.00     0.155 C 
BRANCH  17  20
HETATM   20  C   UNL     1       7.463  23.696  54.888  1.00  0.00    -0.034 A 
HETATM   21  C   UNL     1       7.151  23.312  53.572  1.00  0.00     0.009 A 
HETATM   22  C   UNL     1       7.856  22.287  52.933  1.00  0.00     0.001 A 
HETATM   23  C   UNL     1       8.889  21.630  53.595  1.00  0.00     0.000 A 
HETATM   24  C   UNL     1       9.228  22.007  54.891  1.00  0.00     0.001 A 
HETATM   25  C   UNL     1       8.531  23.037  55.526  1.00  0.00     0.009 A 
ENDBRANCH  17  20
ENDBRANCH  12  13
ENDBRANCH  10  12
BRANCH   9  26
HETATM   26  C   UNL     1       4.986  27.469  49.365  1.00  0.00     0.088 A 
HETATM   27  C   UNL     1       4.044  26.360  48.946  1.00  0.00     0.027 A 
HETATM   28  C   UNL     1       3.953  27.700  48.293  1.00  0.00     0.027 A 
ENDBRANCH   9  26
ENDBRANCH   6   9
BRANCH   6  29
HETATM   29  C   UNL     1       5.204  30.371  50.086  1.00  0.00     0.251 C 
HETATM   30  N   UNL     1       4.396  30.993  49.146  1.00  0.00    -0.325 N 
HETATM   31  H   UNL     1       3.397  31.003  49.333  1.00  0.00     0.169 HD
HETATM   32  O   UNL     1       6.432  30.396  50.095  1.00  0.00    -0.270 OA
BRANCH  30  33
HETATM   33  C   UNL     1       4.801  31.572  47.926  1.00  0.00     0.034 A 
HETATM   34  C   UNL     1       4.625  30.974  46.684  1.00  0.00     0.032 A 
HETATM   35  C   UNL     1       4.974  31.657  45.509  1.00  0.00     0.031 A 
HETATM   36  C   UNL     1       5.498  32.958  45.523  1.00  0.00     0.030 A 
HETATM   37  C   UNL     1       5.706  33.524  46.786  1.00  0.00     0.031 A 
HETATM   38  C   UNL     1       5.359  32.850  47.969  1.00  0.00     0.032 A 
BRANCH  36  39
HETATM   39  N   UNL     1       5.831  33.589  44.329  1.00  0.00    -0.377 N 
HETATM   40  C   UNL     1       4.852  34.540  43.745  1.00  0.00     0.149 C 
HETATM   41  C   UNL     1       5.170  35.973  44.206  1.00  0.00     0.187 C 
HETATM   42  O   UNL     1       6.514  36.354  43.868  1.00  0.00    -0.388 OA
HETATM   43  C   UNL     1       7.462  35.453  44.463  1.00  0.00     0.187 C 
HETATM   44  C   UNL     1       7.217  34.001  44.024  1.00  0.00     0.149 C 
ENDBRANCH  36  39
ENDBRANCH  30  33
ENDBRANCH   6  29
TORSDOF 8
ENDMDL
MODEL 6
REMARK VINA RESULT:      -9.4      4.919     10.063
REMARK  8 active torsions:
REMARK  status: ('A' for Active; 'I' for Inactive)
REMARK    1  A    between atoms: C_6  and  N_7 
REMARK    2  A    between atoms: C_6  and  C_26 
REMARK       I    between atoms: N_7  and  C_8 
REMARK    3  A    between atoms: N_7  and  C_23 
REMARK    4  A    between atoms: C_8  and  C_9 
REMARK    5  A    between atoms: C_9  and  N_10 
REMARK    6  A    between atoms: C_14  and  C_15 
REMARK       I    between atoms: C_26  and  N_27 
REMARK    7  A    between atoms: N_27  and  C_28 
REMARK    8  A    between atoms: C_31  and  N_32 
ROOT
HETATM    1  C   UNL     1       1.277  27.321  46.990  1.00  0.00     0.269 C 
HETATM    2  N   UNL     1       1.965  28.273  47.936  1.00  0.00    -0.075 N 
HETATM    3  H   UNL     1       1.548  29.200  47.749  1.00  0.00     0.279 HD
HETATM    4  C   UNL     1       1.681  27.909  49.371  1.00  0.00     0.237 C 
HETATM    5  C   UNL     1       2.378  28.868  50.335  1.00  0.00     0.069 C 
HETATM    6  C   UNL     1       3.878  29.110  50.039  1.00  0.00     0.120 C 
HETATM    7  C   UNL     1       4.051  29.422  48.534  1.00  0.00     0.069 C 
HETATM    8  C   UNL     1       3.439  28.360  47.631  1.00  0.00     0.237 C 
ENDROOT
BRANCH   6   9
HETATM    9  N   UNL     1       4.438  30.189  50.949  1.00  0.00    -0.328 N 
HETATM   10  C   UNL     1       4.103  30.494  52.277  1.00  0.00     0.239 C 
HETATM   11  O   UNL     1       4.416  31.592  52.759  1.00  0.00    -0.271 OA
BRANCH  10  12
HETATM   12  C   UNL     1       3.311  29.528  53.162  1.00  0.00     0.228 C 
BRANCH  12  13
HETATM   13  N   UNL     1       3.807  29.435  54.534  1.00  0.00    -0.347 N 
HETATM   14  C   UNL     1       3.451  30.262  55.604  1.00  0.00     0.171 C 
HETATM   15  S   UNL     1       2.628  31.699  55.575  1.00  0.00    -0.041 SA
HETATM   16  N   UNL     1       3.969  29.707  56.760  1.00  0.00    -0.357 N 
HETATM   17  C   UNL     1       4.827  28.572  56.477  1.00  0.00     0.135 C 
HETATM   18  H   UNL     1       3.856  30.128  57.674  1.00  0.00     0.162 HD
HETATM   19  C   UNL     1       4.351  28.186  55.062  1.00  0.00     0.155 C 
BRANCH  17  20
HETATM   20  C   UNL     1       6.311  28.927  56.530  1.00  0.00    -0.034 A 
HETATM   21  C   UNL     1       6.924  29.441  57.686  1.00  0.00     0.009 A 
HETATM   22  C   UNL     1       8.293  29.724  57.712  1.00  0.00     0.001 A 
HETATM   23  C   UNL     1       9.077  29.494  56.586  1.00  0.00     0.000 A 
HETATM   24  C   UNL     1       8.496  28.967  55.437  1.00  0.00     0.001 A 
HETATM   25  C   UNL     1       7.130  28.676  55.413  1.00  0.00     0.009 A 
ENDBRANCH  17  20
ENDBRANCH  12  13
ENDBRANCH  10  12
BRANCH   9  26
HETATM   26  C   UNL     1       5.565  30.988  50.440  1.00  0.00     0.088 A 
HETATM   27  C   UNL     1       5.353  31.833  49.202  1.00  0.00     0.027 A 
HETATM   28  C   UNL     1       5.713  32.487  50.495  1.00  0.00     0.027 A 
ENDBRANCH   9  26
ENDBRANCH   6   9
BRANCH   6  29
HETATM   29  C   UNL     1       4.702  27.782  50.210  1.00  0.00     0.251 C 
HETATM   30  N   UNL     1       4.529  27.179  51.447  1.00  0.00    -0.325 N 
HETATM   31  H   UNL     1       3.694  27.431  51.969  1.00  0.00     0.169 HD
HETATM   32  O   UNL     1       5.567  27.485  49.390  1.00  0.00    -0.270 OA
BRANCH  30  33
HETATM   33  C   UNL     1       5.415  26.291  52.091  1.00  0.00     0.034 A 
HETATM   34  C   UNL     1       5.121  24.961  52.366  1.00  0.00     0.032 A 
HETATM   35  C   UNL     1       6.091  24.119  52.928  1.00  0.00     0.031 A 
HETATM   36  C   UNL     1       7.389  24.560  53.226  1.00  0.00     0.030 A 
HETATM   37  C   UNL     1       7.650  25.913  52.980  1.00  0.00     0.031 A 
HETATM   38  C   UNL     1       6.686  26.766  52.416  1.00  0.00     0.032 A 
BRANCH  36  39
HETATM   39  N   UNL     1       8.313  23.684  53.786  1.00  0.00    -0.377 N 
HETATM   40  C   UNL     1       8.427  23.641  55.265  1.00  0.00     0.149 C 
HETATM   41  C   UNL     1       7.527  22.528  55.831  1.00  0.00     0.187 C 
HETATM   42  O   UNL     1       7.842  21.248  55.259  1.00  0.00    -0.388 OA
HETATM   43  C   UNL     1       7.697  21.281  53.829  1.00  0.00     0.187 C 
HETATM   44  C   UNL     1       8.590  22.358  53.193  1.00  0.00     0.149 C 
ENDBRANCH  36  39
ENDBRANCH  30  33
ENDBRANCH   6  29
TORSDOF 8
ENDMDL
MODEL 7
REMARK VINA RESULT:      -9.3      3.837     10.075
REMARK  8 active torsions:
REMARK  status: ('A' for Active; 'I' for Inactive)
REMARK    1  A    between atoms: C_6  and  N_7 
REMARK    2  A    between atoms: C_6  and  C_26 
REMARK       I    between atoms: N_7  and  C_8 
REMARK    3  A    between atoms: N_7  and  C_23 
REMARK    4  A    between atoms: C_8  and  C_9 
REMARK    5  A    between atoms: C_9  and  N_10 
REMARK    6  A    between atoms: C_14  and  C_15 
REMARK       I    between atoms: C_26  and  N_27 
REMARK    7  A    between atoms: N_27  and  C_28 
REMARK    8  A    between atoms: C_31  and  N_32 
ROOT
HETATM    1  C   UNL     1       3.977  27.896  47.726  1.00  0.00     0.269 C 
HETATM    2  N   UNL     1       3.851  28.573  49.069  1.00  0.00    -0.075 N 
HETATM    3  H   UNL     1       3.113  29.287  48.952  1.00  0.00     0.279 HD
HETATM    4  C   UNL     1       3.401  27.597  50.125  1.00  0.00     0.237 C 
HETATM    5  C   UNL     1       3.273  28.275  51.489  1.00  0.00     0.069 C 
HETATM    6  C   UNL     1       4.498  29.124  51.907  1.00  0.00     0.120 C 
HETATM    7  C   UNL     1       4.899  30.045  50.730  1.00  0.00     0.069 C 
HETATM    8  C   UNL     1       5.129  29.285  49.431  1.00  0.00     0.237 C 
ENDROOT
BRANCH   6   9
HETATM    9  N   UNL     1       4.214  29.878  53.195  1.00  0.00    -0.328 N 
HETATM   10  C   UNL     1       4.130  29.391  54.509  1.00  0.00     0.239 C 
HETATM   11  O   UNL     1       3.579  30.072  55.387  1.00  0.00    -0.271 OA
BRANCH  10  12
HETATM   12  C   UNL     1       4.658  28.010  54.904  1.00  0.00     0.228 C 
BRANCH  12  13
HETATM   13  N   UNL     1       5.732  28.045  55.894  1.00  0.00    -0.347 N 
HETATM   14  C   UNL     1       6.011  27.066  56.853  1.00  0.00     0.171 C 
HETATM   15  S   UNL     1       5.080  25.779  57.322  1.00  0.00    -0.041 SA
HETATM   16  N   UNL     1       7.225  27.377  57.437  1.00  0.00    -0.357 N 
HETATM   17  C   UNL     1       7.721  28.667  56.997  1.00  0.00     0.135 C 
HETATM   18  H   UNL     1       7.642  26.822  58.174  1.00  0.00     0.162 HD
HETATM   19  C   UNL     1       6.928  28.860  55.689  1.00  0.00     0.155 C 
BRANCH  17  20
HETATM   20  C   UNL     1       7.469  29.775  58.017  1.00  0.00    -0.034 A 
HETATM   21  C   UNL     1       8.296  29.977  59.135  1.00  0.00     0.009 A 
HETATM   22  C   UNL     1       8.056  31.022  60.033  1.00  0.00     0.001 A 
HETATM   23  C   UNL     1       6.988  31.890  59.826  1.00  0.00     0.000 A 
HETATM   24  C   UNL     1       6.168  31.722  58.715  1.00  0.00     0.001 A 
HETATM   25  C   UNL     1       6.412  30.684  57.814  1.00  0.00     0.009 A 
ENDBRANCH  17  20
ENDBRANCH  12  13
ENDBRANCH  10  12
BRANCH   9  26
HETATM   26  C   UNL     1       4.106  31.343  53.114  1.00  0.00     0.088 A 
HETATM   27  C   UNL     1       2.843  31.945  52.534  1.00  0.00     0.027 A 
HETATM   28  C   UNL     1       3.224  32.236  53.949  1.00  0.00     0.027 A 
ENDBRANCH   9  26
ENDBRANCH   6   9
BRANCH   6  29
HETATM   29  C   UNL     1       5.772  28.220  52.083  1.00  0.00     0.251 C 
HETATM   30  N   UNL     1       5.508  26.864  51.959  1.00  0.00    -0.325 N 
HETATM   31  H   UNL     1       4.659  26.603  51.466  1.00  0.00     0.169 HD
HETATM   32  O   UNL     1       6.815  28.704  52.513  1.00  0.00    -0.270 OA
BRANCH  30  33
HETATM   33  C   UNL     1       6.264  25.798  52.490  1.00  0.00     0.034 A 
HETATM   34  C   UNL     1       7.484  25.376  51.976  1.00  0.00     0.032 A 
HETATM   35  C   UNL     1       8.217  24.368  52.618  1.00  0.00     0.031 A 
HETATM   36  C   UNL     1       7.775  23.751  53.798  1.00  0.00     0.030 A 
HETATM   37  C   UNL     1       6.524  24.162  54.275  1.00  0.00     0.031 A 
HETATM   38  C   UNL     1       5.782  25.172  53.640  1.00  0.00     0.032 A 
BRANCH  36  39
HETATM   39  N   UNL     1       8.539  22.753  54.393  1.00  0.00    -0.377 N 
HETATM   40  C   UNL     1       8.008  22.105  55.618  1.00  0.00     0.149 C 
HETATM   41  C   UNL     1       7.234  20.828  55.246  1.00  0.00     0.187 C 
HETATM   42  O   UNL     1       8.049  19.912  54.497  1.00  0.00    -0.388 OA
HETATM   43  C   UNL     1       8.534  20.530  53.293  1.00  0.00     0.187 C 
HETATM   44  C   UNL     1       9.340  21.803  53.594  1.00  0.00     0.149 C 
ENDBRANCH  36  39
ENDBRANCH  30  33
ENDBRANCH   6  29
TORSDOF 8
ENDMDL
MODEL 8
REMARK VINA RESULT:      -9.3      4.041      6.661
REMARK  8 active torsions:
REMARK  status: ('A' for Active; 'I' for Inactive)
REMARK    1  A    between atoms: C_6  and  N_7 
REMARK    2  A    between atoms: C_6  and  C_26 
REMARK       I    between atoms: N_7  and  C_8 
REMARK    3  A    between atoms: N_7  and  C_23 
REMARK    4  A    between atoms: C_8  and  C_9 
REMARK    5  A    between atoms: C_9  and  N_10 
REMARK    6  A    between atoms: C_14  and  C_15 
REMARK       I    between atoms: C_26  and  N_27 
REMARK    7  A    between atoms: N_27  and  C_28 
REMARK    8  A    between atoms: C_31  and  N_32 
ROOT
HETATM    1  C   UNL     1       4.945  33.457  48.019  1.00  0.00     0.269 C 
HETATM    2  N   UNL     1       4.978  31.982  48.333  1.00  0.00    -0.075 N 
HETATM    3  H   UNL     1       5.400  31.531  47.504  1.00  0.00     0.279 HD
HETATM    4  C   UNL     1       5.859  31.702  49.523  1.00  0.00     0.237 C 
HETATM    5  C   UNL     1       5.895  30.209  49.848  1.00  0.00     0.069 C 
HETATM    6  C   UNL     1       4.507  29.530  49.929  1.00  0.00     0.120 C 
HETATM    7  C   UNL     1       3.676  29.931  48.686  1.00  0.00     0.069 C 
HETATM    8  C   UNL     1       3.581  31.438  48.493  1.00  0.00     0.237 C 
ENDROOT
BRANCH   6   9
HETATM    9  N   UNL     1       4.652  28.028  50.100  1.00  0.00    -0.328 N 
HETATM   10  C   UNL     1       5.386  27.310  51.056  1.00  0.00     0.239 C 
HETATM   11  O   UNL     1       5.657  26.116  50.861  1.00  0.00    -0.271 OA
BRANCH  10  12
HETATM   12  C   UNL     1       5.918  27.961  52.335  1.00  0.00     0.228 C 
BRANCH  12  13
HETATM   13  N   UNL     1       6.068  27.035  53.456  1.00  0.00    -0.347 N 
HETATM   14  C   UNL     1       6.627  27.325  54.705  1.00  0.00     0.171 C 
HETATM   15  S   UNL     1       7.507  28.651  55.165  1.00  0.00    -0.041 SA
HETATM   16  N   UNL     1       6.380  26.251  55.540  1.00  0.00    -0.357 N 
HETATM   17  C   UNL     1       5.784  25.138  54.827  1.00  0.00     0.135 C 
HETATM   18  H   UNL     1       6.697  26.215  56.502  1.00  0.00     0.162 HD
HETATM   19  C   UNL     1       5.221  25.850  53.581  1.00  0.00     0.155 C 
BRANCH  17  20
HETATM   20  C   UNL     1       6.797  24.047  54.484  1.00  0.00    -0.034 A 
HETATM   21  C   UNL     1       6.985  23.575  53.174  1.00  0.00     0.009 A 
HETATM   22  C   UNL     1       7.945  22.599  52.888  1.00  0.00     0.001 A 
HETATM   23  C   UNL     1       8.739  22.080  53.906  1.00  0.00     0.000 A 
HETATM   24  C   UNL     1       8.584  22.547  55.208  1.00  0.00     0.001 A 
HETATM   25  C   UNL     1       7.632  23.528  55.492  1.00  0.00     0.009 A 
ENDBRANCH  17  20
ENDBRANCH  12  13
ENDBRANCH  10  12
BRANCH   9  26
HETATM   26  C   UNL     1       3.847  27.163  49.222  1.00  0.00     0.088 A 
HETATM   27  C   UNL     1       4.402  26.794  47.862  1.00  0.00     0.027 A 
HETATM   28  C   UNL     1       4.120  25.724  48.867  1.00  0.00     0.027 A 
ENDBRANCH   9  26
ENDBRANCH   6   9
BRANCH   6  29
HETATM   29  C   UNL     1       3.660  30.126  51.112  1.00  0.00     0.251 C 
HETATM   30  N   UNL     1       4.410  30.879  52.003  1.00  0.00    -0.325 N 
HETATM   31  H   UNL     1       5.298  31.241  51.666  1.00  0.00     0.169 HD
HETATM   32  O   UNL     1       2.510  29.740  51.300  1.00  0.00    -0.270 OA
BRANCH  30  33
HETATM   33  C   UNL     1       4.103  31.154  53.352  1.00  0.00     0.034 A 
HETATM   34  C   UNL     1       4.013  30.185  54.343  1.00  0.00     0.032 A 
HETATM   35  C   UNL     1       3.793  30.552  55.679  1.00  0.00     0.031 A 
HETATM   36  C   UNL     1       3.666  31.890  56.081  1.00  0.00     0.030 A 
HETATM   37  C   UNL     1       3.719  32.846  55.060  1.00  0.00     0.031 A 
HETATM   38  C   UNL     1       3.940  32.490  53.719  1.00  0.00     0.032 A 
BRANCH  36  39
HETATM   39  N   UNL     1       3.446  32.199  57.419  1.00  0.00    -0.377 N 
HETATM   40  C   UNL     1       4.019  31.296  58.448  1.00  0.00     0.149 C 
HETATM   41  C   UNL     1       5.395  31.817  58.899  1.00  0.00     0.187 C 
HETATM   42  O   UNL     1       5.319  33.165  59.390  1.00  0.00    -0.388 OA
HETATM   43  C   UNL     1       4.796  34.045  58.380  1.00  0.00     0.187 C 
HETATM   44  C   UNL     1       3.407  33.596  57.901  1.00  0.00     0.149 C 
ENDBRANCH  36  39
ENDBRANCH  30  33
ENDBRANCH   6  29
TORSDOF 8
ENDMDL
MODEL 9
REMARK VINA RESULT:      -9.0      3.620      6.016
REMARK  8 active torsions:
REMARK  status: ('A' for Active; 'I' for Inactive)
REMARK    1  A    between atoms: C_6  and  N_7 
REMARK    2  A    between atoms: C_6  and  C_26 
REMARK       I    between atoms: N_7  and  C_8 
REMARK    3  A    between atoms: N_7  and  C_23 
REMARK    4  A    between atoms: C_8  and  C_9 
REMARK    5  A    between atoms: C_9  and  N_10 
REMARK    6  A    between atoms: C_14  and  C_15 
REMARK       I    between atoms: C_26  and  N_27 
REMARK    7  A    between atoms: N_27  and  C_28 
REMARK    8  A    between atoms: C_31  and  N_32 
ROOT
HETATM    1  C   UNL     1       9.726  29.123  57.290  1.00  0.00     0.269 C 
HETATM    2  N   UNL     1       8.967  28.180  56.389  1.00  0.00    -0.075 N 
HETATM    3  H   UNL     1       9.672  27.782  55.747  1.00  0.00     0.279 HD
HETATM    4  C   UNL     1       8.356  27.052  57.179  1.00  0.00     0.237 C 
HETATM    5  C   UNL     1       7.583  26.095  56.272  1.00  0.00     0.069 C 
HETATM    6  C   UNL     1       6.594  26.780  55.299  1.00  0.00     0.120 C 
HETATM    7  C   UNL     1       7.315  27.950  54.587  1.00  0.00     0.069 C 
HETATM    8  C   UNL     1       7.959  28.931  55.557  1.00  0.00     0.237 C 
ENDROOT
BRANCH   6   9
HETATM    9  N   UNL     1       5.995  25.766  54.339  1.00  0.00    -0.328 N 
HETATM   10  C   UNL     1       4.875  25.890  53.503  1.00  0.00     0.239 C 
HETATM   11  O   UNL     1       4.337  24.876  53.034  1.00  0.00    -0.271 OA
BRANCH  10  12
HETATM   12  C   UNL     1       4.247  27.246  53.174  1.00  0.00     0.228 C 
BRANCH  12  13
HETATM   13  N   UNL     1       4.504  27.705  51.809  1.00  0.00    -0.347 N 
HETATM   14  C   UNL     1       4.486  29.029  51.361  1.00  0.00     0.171 C 
HETATM   15  S   UNL     1       3.912  30.378  52.133  1.00  0.00    -0.041 SA
HETATM   16  N   UNL     1       4.992  29.048  50.074  1.00  0.00    -0.357 N 
HETATM   17  C   UNL     1       5.215  27.710  49.562  1.00  0.00     0.135 C 
HETATM   18  H   UNL     1       5.071  29.895  49.524  1.00  0.00     0.162 HD
HETATM   19  C   UNL     1       5.280  26.898  50.871  1.00  0.00     0.155 C 
BRANCH  17  20
HETATM   20  C   UNL     1       4.103  27.244  48.625  1.00  0.00    -0.034 A 
HETATM   21  C   UNL     1       3.305  28.140  47.893  1.00  0.00     0.009 A 
HETATM   22  C   UNL     1       2.316  27.679  47.018  1.00  0.00     0.001 A 
HETATM   23  C   UNL     1       2.110  26.313  46.854  1.00  0.00     0.000 A 
HETATM   24  C   UNL     1       2.901  25.406  47.553  1.00  0.00     0.001 A 
HETATM   25  C   UNL     1       3.894  25.866  48.420  1.00  0.00     0.009 A 
ENDBRANCH  17  20
ENDBRANCH  12  13
ENDBRANCH  10  12
BRANCH   9  26
HETATM   26  C   UNL     1       6.717  24.497  54.154  1.00  0.00     0.088 A 
HETATM   27  C   UNL     1       7.509  24.294  52.880  1.00  0.00     0.027 A 
HETATM   28  C   UNL     1       8.208  24.286  54.200  1.00  0.00     0.027 A 
ENDBRANCH   9  26
ENDBRANCH   6   9
BRANCH   6  29
HETATM   29  C   UNL     1       5.450  27.514  56.089  1.00  0.00     0.251 C 
HETATM   30  N   UNL     1       5.464  28.892  55.927  1.00  0.00    -0.325 N 
HETATM   31  H   UNL     1       5.950  29.255  55.112  1.00  0.00     0.169 HD
HETATM   32  O   UNL     1       4.792  26.904  56.926  1.00  0.00    -0.270 OA
BRANCH  30  33
HETATM   33  C   UNL     1       4.922  29.856  56.802  1.00  0.00     0.034 A 
HETATM   34  C   UNL     1       3.560  30.082  56.964  1.00  0.00     0.032 A 
HETATM   35  C   UNL     1       3.099  30.997  57.922  1.00  0.00     0.031 A 
HETATM   36  C   UNL     1       3.968  31.710  58.760  1.00  0.00     0.030 A 
HETATM   37  C   UNL     1       5.336  31.498  58.551  1.00  0.00     0.031 A 
HETATM   38  C   UNL     1       5.809  30.583  57.595  1.00  0.00     0.032 A 
BRANCH  36  39
HETATM   39  N   UNL     1       3.459  32.609  59.692  1.00  0.00    -0.377 N 
HETATM   40  C   UNL     1       3.980  32.544  61.080  1.00  0.00     0.149 C 
HETATM   41  C   UNL     1       5.143  33.536  61.254  1.00  0.00     0.187 C 
HETATM   42  O   UNL     1       4.752  34.877  60.918  1.00  0.00    -0.388 OA
HETATM   43  C   UNL     1       4.282  34.946  59.562  1.00  0.00     0.187 C 
HETATM   44  C   UNL     1       3.098  33.994  59.324  1.00  0.00     0.149 C 
ENDBRANCH  36  39
ENDBRANCH  30  33
ENDBRANCH   6  29
TORSDOF 8
ENDMDL
MODEL 10
REMARK VINA RESULT:      -9.0      7.713     11.559
REMARK  8 active torsions:
REMARK  status: ('A' for Active; 'I' for Inactive)
REMARK    1  A    between atoms: C_6  and  N_7 
REMARK    2  A    between atoms: C_6  and  C_26 
REMARK       I    between atoms: N_7  and  C_8 
REMARK    3  A    between atoms: N_7  and  C_23 
REMARK    4  A    between atoms: C_8  and  C_9 
REMARK    5  A    between atoms: C_9  and  N_10 
REMARK    6  A    between atoms: C_14  and  C_15 
REMARK       I    between atoms: C_26  and  N_27 
REMARK    7  A    between atoms: N_27  and  C_28 
REMARK    8  A    between atoms: C_31  and  N_32 
ROOT
HETATM    1  C   UNL     1       3.181  33.194  52.194  1.00  0.00     0.269 C 
HETATM    2  N   UNL     1       3.257  31.803  51.613  1.00  0.00    -0.075 N 
HETATM    3  H   UNL     1       3.411  31.174  52.419  1.00  0.00     0.279 HD
HETATM    4  C   UNL     1       1.956  31.420  50.956  1.00  0.00     0.237 C 
HETATM    5  C   UNL     1       2.027  30.013  50.364  1.00  0.00     0.069 C 
HETATM    6  C   UNL     1       3.272  29.742  49.485  1.00  0.00     0.120 C 
HETATM    7  C   UNL     1       4.535  30.222  50.238  1.00  0.00     0.069 C 
HETATM    8  C   UNL     1       4.443  31.672  50.692  1.00  0.00     0.237 C 
ENDROOT
BRANCH   6   9
HETATM    9  N   UNL     1       3.332  28.281  49.073  1.00  0.00    -0.328 N 
HETATM   10  C   UNL     1       4.310  27.317  49.360  1.00  0.00     0.239 C 
HETATM   11  O   UNL     1       4.370  26.276  48.689  1.00  0.00    -0.271 OA
BRANCH  10  12
HETATM   12  C   UNL     1       5.356  27.517  50.459  1.00  0.00     0.228 C 
BRANCH  12  13
HETATM   13  N   UNL     1       5.126  26.708  51.654  1.00  0.00    -0.347 N 
HETATM   14  C   UNL     1       4.580  27.148  52.864  1.00  0.00     0.171 C 
HETATM   15  S   UNL     1       4.315  28.701  53.378  1.00  0.00    -0.041 SA
HETATM   16  N   UNL     1       4.332  26.036  53.648  1.00  0.00    -0.357 N 
HETATM   17  C   UNL     1       4.856  24.824  53.047  1.00  0.00     0.135 C 
HETATM   18  H   UNL     1       3.945  26.094  54.582  1.00  0.00     0.162 HD
HETATM   19  C   UNL     1       4.983  25.256  51.572  1.00  0.00     0.155 C 
BRANCH  17  20
HETATM   20  C   UNL     1       6.185  24.389  53.658  1.00  0.00    -0.034 A 
HETATM   21  C   UNL     1       6.536  24.677  54.989  1.00  0.00     0.009 A 
HETATM   22  C   UNL     1       7.748  24.235  55.529  1.00  0.00     0.001 A 
HETATM   23  C   UNL     1       8.630  23.491  54.751  1.00  0.00     0.000 A 
HETATM   24  C   UNL     1       8.295  23.177  53.437  1.00  0.00     0.001 A 
HETATM   25  C   UNL     1       7.081  23.611  52.901  1.00  0.00     0.009 A 
ENDBRANCH  17  20
ENDBRANCH  12  13
ENDBRANCH  10  12
BRANCH   9  26
HETATM   26  C   UNL     1       2.171  27.730  48.355  1.00  0.00     0.088 A 
HETATM   27  C   UNL     1       1.977  28.099  46.900  1.00  0.00     0.027 A 
HETATM   28  C   UNL     1       2.186  26.671  47.283  1.00  0.00     0.027 A 
ENDBRANCH   9  26
ENDBRANCH   6   9
BRANCH   6  29
HETATM   29  C   UNL     1       3.266  30.660  48.208  1.00  0.00     0.251 C 
HETATM   30  N   UNL     1       4.500  30.742  47.581  1.00  0.00    -0.325 N 
HETATM   31  H   UNL     1       5.165  29.998  47.774  1.00  0.00     0.169 HD
HETATM   32  O   UNL     1       2.301  31.384  47.976  1.00  0.00    -0.270 OA
BRANCH  30  33
HETATM   33  C   UNL     1       4.960  31.777  46.741  1.00  0.00     0.034 A 
HETATM   34  C   UNL     1       4.644  31.884  45.392  1.00  0.00     0.032 A 
HETATM   35  C   UNL     1       5.068  32.995  44.648  1.00  0.00     0.031 A 
HETATM   36  C   UNL     1       5.807  34.043  45.214  1.00  0.00     0.030 A 
HETATM   37  C   UNL     1       6.149  33.895  46.564  1.00  0.00     0.031 A 
HETATM   38  C   UNL     1       5.729  32.787  47.320  1.00  0.00     0.032 A 
BRANCH  36  39
HETATM   39  N   UNL     1       6.205  35.121  44.430  1.00  0.00    -0.377 N 
HETATM   40  C   UNL     1       5.537  36.428  44.650  1.00  0.00     0.149 C 
HETATM   41  C   UNL     1       6.351  37.276  45.642  1.00  0.00     0.187 C 
HETATM   42  O   UNL     1       7.704  37.464  45.195  1.00  0.00    -0.388 OA
HETATM   43  C   UNL     1       8.361  36.198  45.017  1.00  0.00     0.187 C 
HETATM   44  C   UNL     1       7.611  35.306  44.015  1.00  0.00     0.149 C 
ENDBRANCH  36  39
ENDBRANCH  30  33
ENDBRANCH   6  29
TORSDOF 8
ENDMDL
