MODEL 1
REMARK VINA RESULT:      -9.3      0.000      0.000
REMARK  4 active torsions:
REMARK  status: ('A' for Active; 'I' for Inactive)
REMARK    1  A    between atoms: C_3  and  O_4 
REMARK    2  A    between atoms: O_4  and  C_5 
REMARK    3  A    between atoms: C_11  and  C_12 
REMARK    4  A    between atoms: C_23  and  N_24 
ROOT
HETATM    1  C   UNL     1       6.842  28.212  55.331  1.00  0.00     0.244 A 
HETATM    2  N   UNL     1       7.366  28.913  56.480  1.00  0.00    -0.151 N 
HETATM    3  C   UNL     1       6.526  29.376  57.460  1.00  0.00     0.734 A 
HETATM    4  N   UNL     1       7.221  30.034  58.361  1.00  0.00    -0.060 NA
HETATM    5  C   UNL     1       8.525  30.021  57.932  1.00  0.00     0.103 A 
HETATM    6  C   UNL     1       8.648  29.321  56.735  1.00  0.00     0.083 A 
HETATM    7  C   UNL     1       9.661  30.598  58.514  1.00  0.00     0.034 A 
HETATM    8  C   UNL     1      10.894  30.452  57.869  1.00  0.00     0.002 A 
HETATM    9  C   UNL     1      10.992  29.745  56.668  1.00  0.00     0.002 A 
HETATM   10  C   UNL     1       9.868  29.162  56.071  1.00  0.00     0.033 A 
HETATM   11  N   UNL     1       5.192  29.162  57.442  1.00  0.00    -0.033 NA
HETATM   12  C   UNL     1       4.668  28.568  56.433  1.00  0.00     0.193 A 
HETATM   13  N   UNL     1       5.385  28.092  55.329  1.00  0.00    -0.339 N 
HETATM   14  H   UNL     1       4.931  27.532  54.626  1.00  0.00     0.164 HD
ENDROOT
BRANCH   1  15
HETATM   15  C   UNL     1       7.393  26.802  55.192  1.00  0.00    -0.014 A 
HETATM   16  C   UNL     1       7.779  26.050  56.316  1.00  0.00     0.020 A 
HETATM   17  C   UNL     1       8.224  24.726  56.186  1.00  0.00    -0.027 A 
HETATM   18  C   UNL     1       8.265  24.147  54.910  1.00  0.00     0.086 A 
HETATM   19  C   UNL     1       8.581  23.936  57.415  1.00  0.00     0.051 C 
HETATM   20  C   UNL     1       7.843  24.857  53.775  1.00  0.00    -0.027 A 
HETATM   21  C   UNL     1       7.840  24.232  52.407  1.00  0.00     0.051 C 
HETATM   22  C   UNL     1       7.433  26.190  53.926  1.00  0.00     0.020 A 
BRANCH  18  23
HETATM   23  O   UNL     1       8.630  22.830  54.798  1.00  0.00    -0.289 OA
BRANCH  23  24
HETATM   24  C   UNL     1       7.487  21.984  54.853  1.00  0.00     0.505 C 
HETATM   25  F   UNL     1       7.497  21.220  53.733  1.00  0.00    -0.184 F 
HETATM   26  F   UNL     1       7.643  21.141  55.904  1.00  0.00    -0.184 F 
ENDBRANCH  23  24
ENDBRANCH  18  23
ENDBRANCH   1  15
BRANCH  12  27
HETATM   27  N   UNL     1       3.346  28.320  56.333  1.00  0.00    -0.272 NA
HETATM   28  H   UNL     1       2.861  29.100  55.895  1.00  0.00     0.127 HD
HETATM   29  H   UNL     1       3.080  27.443  55.906  1.00  0.00     0.127 HD
ENDBRANCH  12  27
TORSDOF 4
ENDMDL
MODEL 2
REMARK VINA RESULT:      -9.3      0.498      1.764
REMARK  4 active torsions:
REMARK  status: ('A' for Active; 'I' for Inactive)
REMARK    1  A    between atoms: C_3  and  O_4 
REMARK    2  A    between atoms: O_4  and  C_5 
REMARK    3  A    between atoms: C_11  and  C_12 
REMARK    4  A    between atoms: C_23  and  N_24 
ROOT
HETATM    1  C   UNL     1       6.561  28.502  55.241  1.00  0.00     0.244 A 
HETATM    2  N   UNL     1       7.172  29.093  56.408  1.00  0.00    -0.151 N 
HETATM    3  C   UNL     1       6.402  29.534  57.454  1.00  0.00     0.734 A 
HETATM    4  N   UNL     1       7.171  30.090  58.364  1.00  0.00    -0.060 NA
HETATM    5  C   UNL     1       8.453  30.033  57.876  1.00  0.00     0.103 A 
HETATM    6  C   UNL     1       8.485  29.411  56.631  1.00  0.00     0.083 A 
HETATM    7  C   UNL     1       9.645  30.504  58.443  1.00  0.00     0.034 A 
HETATM    8  C   UNL     1      10.839  30.334  57.734  1.00  0.00     0.002 A 
HETATM    9  C   UNL     1      10.845  29.706  56.486  1.00  0.00     0.002 A 
HETATM   10  C   UNL     1       9.665  29.229  55.904  1.00  0.00     0.033 A 
HETATM   11  N   UNL     1       5.058  29.397  57.483  1.00  0.00    -0.033 NA
HETATM   12  C   UNL     1       4.458  28.904  56.461  1.00  0.00     0.193 A 
HETATM   13  N   UNL     1       5.100  28.464  55.297  1.00  0.00    -0.339 N 
HETATM   14  H   UNL     1       4.585  27.980  54.580  1.00  0.00     0.164 HD
ENDROOT
BRANCH   1  15
HETATM   15  C   UNL     1       7.021  27.077  54.984  1.00  0.00    -0.014 A 
HETATM   16  C   UNL     1       7.231  26.596  53.679  1.00  0.00     0.020 A 
HETATM   17  C   UNL     1       7.720  25.301  53.452  1.00  0.00    -0.027 A 
HETATM   18  C   UNL     1       8.017  24.485  54.553  1.00  0.00     0.086 A 
HETATM   19  C   UNL     1       7.978  24.838  52.044  1.00  0.00     0.051 C 
HETATM   20  C   UNL     1       7.861  24.954  55.867  1.00  0.00    -0.027 A 
HETATM   21  C   UNL     1       8.220  24.105  57.056  1.00  0.00     0.051 C 
HETATM   22  C   UNL     1       7.341  26.241  56.069  1.00  0.00     0.020 A 
BRANCH  18  23
HETATM   23  O   UNL     1       8.563  23.249  54.326  1.00  0.00    -0.289 OA
BRANCH  23  24
HETATM   24  C   UNL     1       7.547  22.288  54.066  1.00  0.00     0.505 C 
HETATM   25  F   UNL     1       7.943  21.566  52.988  1.00  0.00    -0.184 F 
HETATM   26  F   UNL     1       7.503  21.433  55.117  1.00  0.00    -0.184 F 
ENDBRANCH  23  24
ENDBRANCH  18  23
ENDBRANCH   1  15
BRANCH  12  27
HETATM   27  N   UNL     1       3.122  28.737  56.406  1.00  0.00    -0.272 NA
HETATM   28  H   UNL     1       2.643  29.455  56.946  1.00  0.00     0.127 HD
HETATM   29  H   UNL     1       2.713  28.645  55.485  1.00  0.00     0.127 HD
ENDBRANCH  12  27
TORSDOF 4
ENDMDL
MODEL 3
REMARK VINA RESULT:      -9.1      1.311      2.400
REMARK  4 active torsions:
REMARK  status: ('A' for Active; 'I' for Inactive)
REMARK    1  A    between atoms: C_3  and  O_4 
REMARK    2  A    between atoms: O_4  and  C_5 
REMARK    3  A    between atoms: C_11  and  C_12 
REMARK    4  A    between atoms: C_23  and  N_24 
ROOT
HETATM    1  C   UNL     1       6.756  27.459  54.259  1.00  0.00     0.244 A 
HETATM    2  N   UNL     1       6.571  28.309  55.412  1.00  0.00    -0.151 N 
HETATM    3  C   UNL     1       5.338  28.837  55.702  1.00  0.00     0.734 A 
HETATM    4  N   UNL     1       5.432  29.625  56.749  1.00  0.00    -0.060 NA
HETATM    5  C   UNL     1       6.754  29.629  57.116  1.00  0.00     0.103 A 
HETATM    6  C   UNL     1       7.505  28.806  56.280  1.00  0.00     0.083 A 
HETATM    7  C   UNL     1       7.391  30.322  58.154  1.00  0.00     0.034 A 
HETATM    8  C   UNL     1       8.771  30.166  58.319  1.00  0.00     0.002 A 
HETATM    9  C   UNL     1       9.503  29.335  57.468  1.00  0.00     0.002 A 
HETATM   10  C   UNL     1       8.886  28.635  56.425  1.00  0.00     0.033 A 
HETATM   11  N   UNL     1       4.233  28.557  54.977  1.00  0.00    -0.033 NA
HETATM   12  C   UNL     1       4.343  27.829  53.926  1.00  0.00     0.193 A 
HETATM   13  N   UNL     1       5.541  27.268  53.469  1.00  0.00    -0.339 N 
HETATM   14  H   UNL     1       5.540  26.611  52.705  1.00  0.00     0.164 HD
ENDROOT
BRANCH   1  15
HETATM   15  C   UNL     1       7.262  26.071  54.618  1.00  0.00    -0.014 A 
HETATM   16  C   UNL     1       7.384  25.061  53.647  1.00  0.00     0.020 A 
HETATM   17  C   UNL     1       7.914  23.803  53.971  1.00  0.00    -0.027 A 
HETATM   18  C   UNL     1       8.342  23.566  55.286  1.00  0.00     0.086 A 
HETATM   19  C   UNL     1       8.076  22.763  52.897  1.00  0.00     0.051 C 
HETATM   20  C   UNL     1       8.275  24.570  56.265  1.00  0.00    -0.027 A 
HETATM   21  C   UNL     1       8.772  24.342  57.666  1.00  0.00     0.051 C 
HETATM   22  C   UNL     1       7.711  25.809  55.924  1.00  0.00     0.020 A 
BRANCH  18  23
HETATM   23  O   UNL     1       8.927  22.361  55.579  1.00  0.00    -0.289 OA
BRANCH  23  24
HETATM   24  C   UNL     1       7.968  21.447  56.096  1.00  0.00     0.505 C 
HETATM   25  F   UNL     1       7.942  20.376  55.264  1.00  0.00    -0.184 F 
HETATM   26  F   UNL     1       8.420  21.002  57.294  1.00  0.00    -0.184 F 
ENDBRANCH  23  24
ENDBRANCH  18  23
ENDBRANCH   1  15
BRANCH  12  27
HETATM   27  N   UNL     1       3.292  27.506  53.145  1.00  0.00    -0.272 NA
HETATM   28  H   UNL     1       3.505  26.695  52.566  1.00  0.00     0.127 HD
HETATM   29  H   UNL     1       2.400  27.395  53.607  1.00  0.00     0.127 HD
ENDBRANCH  12  27
TORSDOF 4
ENDMDL
MODEL 4
REMARK VINA RESULT:      -8.9      2.909      4.565
REMARK  4 active torsions:
REMARK  status: ('A' for Active; 'I' for Inactive)
REMARK    1  A    between atoms: C_3  and  O_4 
REMARK    2  A    between atoms: O_4  and  C_5 
REMARK    3  A    between atoms: C_11  and  C_12 
REMARK    4  A    between atoms: C_23  and  N_24 
ROOT
HETATM    1  C   UNL     1       5.003  26.231  54.982  1.00  0.00     0.244 A 
HETATM    2  N   UNL     1       5.080  27.176  53.893  1.00  0.00    -0.151 N 
HETATM    3  C   UNL     1       5.053  28.527  54.135  1.00  0.00     0.734 A 
HETATM    4  N   UNL     1       5.068  29.179  52.994  1.00  0.00    -0.060 NA
HETATM    5  C   UNL     1       5.070  28.229  52.003  1.00  0.00     0.103 A 
HETATM    6  C   UNL     1       5.071  26.946  52.544  1.00  0.00     0.083 A 
HETATM    7  C   UNL     1       5.062  28.391  50.611  1.00  0.00     0.034 A 
HETATM    8  C   UNL     1       5.054  27.250  49.802  1.00  0.00     0.002 A 
HETATM    9  C   UNL     1       5.056  25.973  50.368  1.00  0.00     0.002 A 
HETATM   10  C   UNL     1       5.063  25.790  51.756  1.00  0.00     0.033 A 
HETATM   11  N   UNL     1       5.010  29.046  55.382  1.00  0.00    -0.033 NA
HETATM   12  C   UNL     1       4.913  28.253  56.386  1.00  0.00     0.193 A 
HETATM   13  N   UNL     1       4.869  26.857  56.296  1.00  0.00    -0.339 N 
HETATM   14  H   UNL     1       4.910  26.289  57.127  1.00  0.00     0.164 HD
ENDROOT
BRANCH   1  15
HETATM   15  C   UNL     1       6.211  25.313  55.061  1.00  0.00    -0.014 A 
HETATM   16  C   UNL     1       7.101  25.362  56.150  1.00  0.00     0.020 A 
HETATM   17  C   UNL     1       8.177  24.468  56.249  1.00  0.00    -0.027 A 
HETATM   18  C   UNL     1       8.350  23.501  55.247  1.00  0.00     0.086 A 
HETATM   19  C   UNL     1       9.079  24.518  57.451  1.00  0.00     0.051 C 
HETATM   20  C   UNL     1       7.452  23.399  54.173  1.00  0.00    -0.027 A 
HETATM   21  C   UNL     1       7.600  22.337  53.118  1.00  0.00     0.051 C 
HETATM   22  C   UNL     1       6.402  24.325  54.079  1.00  0.00     0.020 A 
BRANCH  18  23
HETATM   23  O   UNL     1       9.358  22.584  55.388  1.00  0.00    -0.289 OA
BRANCH  23  24
HETATM   24  C   UNL     1       8.838  21.319  55.781  1.00  0.00     0.505 C 
HETATM   25  F   UNL     1       9.877  20.447  55.808  1.00  0.00    -0.184 F 
HETATM   26  F   UNL     1       8.387  21.432  57.055  1.00  0.00    -0.184 F 
ENDBRANCH  23  24
ENDBRANCH  18  23
ENDBRANCH   1  15
BRANCH  12  27
HETATM   27  N   UNL     1       4.860  28.689  57.661  1.00  0.00    -0.272 NA
HETATM   28  H   UNL     1       5.794  28.867  58.024  1.00  0.00     0.127 HD
HETATM   29  H   UNL     1       4.245  29.469  57.849  1.00  0.00     0.127 HD
ENDBRANCH  12  27
TORSDOF 4
ENDMDL
MODEL 5
REMARK VINA RESULT:      -8.5      4.038      6.678
REMARK  4 active torsions:
REMARK  status: ('A' for Active; 'I' for Inactive)
REMARK    1  A    between atoms: C_3  and  O_4 
REMARK    2  A    between atoms: O_4  and  C_5 
REMARK    3  A    between atoms: C_11  and  C_12 
REMARK    4  A    between atoms: C_23  and  N_24 
ROOT
HETATM    1  C   UNL     1       5.389  26.063  54.395  1.00  0.00     0.244 A 
HETATM    2  N   UNL     1       6.391  25.115  53.966  1.00  0.00    -0.151 N 
HETATM    3  C   UNL     1       6.621  24.896  52.632  1.00  0.00     0.734 A 
HETATM    4  N   UNL     1       7.522  23.950  52.490  1.00  0.00    -0.060 NA
HETATM    5  C   UNL     1       7.850  23.533  53.756  1.00  0.00     0.103 A 
HETATM    6  C   UNL     1       7.142  24.250  54.716  1.00  0.00     0.083 A 
HETATM    7  C   UNL     1       8.744  22.533  54.162  1.00  0.00     0.034 A 
HETATM    8  C   UNL     1       8.897  22.285  55.531  1.00  0.00     0.002 A 
HETATM    9  C   UNL     1       8.176  23.019  56.475  1.00  0.00     0.002 A 
HETATM   10  C   UNL     1       7.278  24.021  56.089  1.00  0.00     0.033 A 
HETATM   11  N   UNL     1       5.980  25.577  51.656  1.00  0.00    -0.033 NA
HETATM   12  C   UNL     1       5.060  26.412  51.978  1.00  0.00     0.193 A 
HETATM   13  N   UNL     1       4.671  26.700  53.292  1.00  0.00    -0.339 N 
HETATM   14  H   UNL     1       4.026  27.449  53.482  1.00  0.00     0.164 HD
ENDROOT
BRANCH   1  15
HETATM   15  C   UNL     1       5.958  27.186  55.247  1.00  0.00    -0.014 A 
HETATM   16  C   UNL     1       7.295  27.601  55.116  1.00  0.00     0.020 A 
HETATM   17  C   UNL     1       7.796  28.682  55.857  1.00  0.00    -0.027 A 
HETATM   18  C   UNL     1       6.934  29.363  56.730  1.00  0.00     0.086 A 
HETATM   19  C   UNL     1       9.217  29.130  55.655  1.00  0.00     0.051 C 
HETATM   20  C   UNL     1       5.583  29.000  56.847  1.00  0.00    -0.027 A 
HETATM   21  C   UNL     1       4.638  29.751  57.744  1.00  0.00     0.051 C 
HETATM   22  C   UNL     1       5.114  27.896  56.119  1.00  0.00     0.020 A 
BRANCH  18  23
HETATM   23  O   UNL     1       7.409  30.463  57.395  1.00  0.00    -0.289 OA
BRANCH  23  24
HETATM   24  C   UNL     1       7.874  30.107  58.692  1.00  0.00     0.505 C 
HETATM   25  F   UNL     1       9.205  30.367  58.728  1.00  0.00    -0.184 F 
HETATM   26  F   UNL     1       7.287  30.938  59.588  1.00  0.00    -0.184 F 
ENDBRANCH  23  24
ENDBRANCH  18  23
ENDBRANCH   1  15
BRANCH  12  27
HETATM   27  N   UNL     1       4.369  27.128  51.069  1.00  0.00    -0.272 NA
HETATM   28  H   UNL     1       4.901  27.232  50.207  1.00  0.00     0.127 HD
HETATM   29  H   UNL     1       3.424  26.825  50.875  1.00  0.00     0.127 HD
ENDBRANCH  12  27
TORSDOF 4
ENDMDL
MODEL 6
REMARK VINA RESULT:      -8.3      5.527      8.453
REMARK  4 active torsions:
REMARK  status: ('A' for Active; 'I' for Inactive)
REMARK    1  A    between atoms: C_3  and  O_4 
REMARK    2  A    between atoms: O_4  and  C_5 
REMARK    3  A    between atoms: C_11  and  C_12 
REMARK    4  A    between atoms: C_23  and  N_24 
ROOT
HETATM    1  C   UNL     1       8.641  30.963  57.705  1.00  0.00     0.244 A 
HETATM    2  N   UNL     1       8.050  29.753  57.182  1.00  0.00    -0.151 N 
HETATM    3  C   UNL     1       8.840  28.727  56.730  1.00  0.00     0.734 A 
HETATM    4  N   UNL     1       8.083  27.769  56.244  1.00  0.00    -0.060 NA
HETATM    5  C   UNL     1       6.786  28.205  56.356  1.00  0.00     0.103 A 
HETATM    6  C   UNL     1       6.733  29.466  56.943  1.00  0.00     0.083 A 
HETATM    7  C   UNL     1       5.596  27.575  55.967  1.00  0.00     0.034 A 
HETATM    8  C   UNL     1       4.383  28.238  56.181  1.00  0.00     0.002 A 
HETATM    9  C   UNL     1       4.356  29.504  56.772  1.00  0.00     0.002 A 
HETATM   10  C   UNL     1       5.533  30.149  57.167  1.00  0.00     0.033 A 
HETATM   11  N   UNL     1      10.189  28.758  56.795  1.00  0.00    -0.033 NA
HETATM   12  C   UNL     1      10.769  29.819  57.226  1.00  0.00     0.193 A 
HETATM   13  N   UNL     1      10.102  30.968  57.665  1.00  0.00    -0.339 N 
HETATM   14  H   UNL     1      10.611  31.721  58.100  1.00  0.00     0.164 HD
ENDROOT
BRANCH   1  15
HETATM   15  C   UNL     1       8.245  31.245  59.145  1.00  0.00    -0.014 A 
HETATM   16  C   UNL     1       7.179  32.107  59.459  1.00  0.00     0.020 A 
HETATM   17  C   UNL     1       6.777  32.310  60.787  1.00  0.00    -0.027 A 
HETATM   18  C   UNL     1       7.447  31.624  61.811  1.00  0.00     0.086 A 
HETATM   19  C   UNL     1       5.601  33.200  61.082  1.00  0.00     0.051 C 
HETATM   20  C   UNL     1       8.484  30.723  61.525  1.00  0.00    -0.027 A 
HETATM   21  C   UNL     1       9.179  29.948  62.610  1.00  0.00     0.051 C 
HETATM   22  C   UNL     1       8.889  30.561  60.192  1.00  0.00     0.020 A 
BRANCH  18  23
HETATM   23  O   UNL     1       7.001  31.770  63.099  1.00  0.00    -0.289 OA
BRANCH  23  24
HETATM   24  C   UNL     1       7.507  32.969  63.675  1.00  0.00     0.505 C 
HETATM   25  F   UNL     1       7.402  32.844  65.022  1.00  0.00    -0.184 F 
HETATM   26  F   UNL     1       8.830  33.043  63.390  1.00  0.00    -0.184 F 
ENDBRANCH  23  24
ENDBRANCH  18  23
ENDBRANCH   1  15
BRANCH  12  27
HETATM   27  N   UNL     1      12.110  29.935  57.318  1.00  0.00    -0.272 NA
HETATM   28  H   UNL     1      12.399  30.045  58.288  1.00  0.00     0.127 HD
HETATM   29  H   UNL     1      12.660  29.224  56.855  1.00  0.00     0.127 HD
ENDBRANCH  12  27
TORSDOF 4
ENDMDL
MODEL 7
REMARK VINA RESULT:      -8.1      3.934      6.652
REMARK  4 active torsions:
REMARK  status: ('A' for Active; 'I' for Inactive)
REMARK    1  A    between atoms: C_3  and  O_4 
REMARK    2  A    between atoms: O_4  and  C_5 
REMARK    3  A    between atoms: C_11  and  C_12 
REMARK    4  A    between atoms: C_23  and  N_24 
ROOT
HETATM    1  C   UNL     1       6.179  27.983  55.427  1.00  0.00     0.244 A 
HETATM    2  N   UNL     1       6.890  26.818  54.956  1.00  0.00    -0.151 N 
HETATM    3  C   UNL     1       7.077  26.608  53.613  1.00  0.00     0.734 A 
HETATM    4  N   UNL     1       7.687  25.458  53.428  1.00  0.00    -0.060 NA
HETATM    5  C   UNL     1       7.863  24.907  54.672  1.00  0.00     0.103 A 
HETATM    6  C   UNL     1       7.360  25.745  55.664  1.00  0.00     0.083 A 
HETATM    7  C   UNL     1       8.439  23.681  55.032  1.00  0.00     0.034 A 
HETATM    8  C   UNL     1       8.492  23.335  56.386  1.00  0.00     0.002 A 
HETATM    9  C   UNL     1       7.981  24.193  57.363  1.00  0.00     0.002 A 
HETATM   10  C   UNL     1       7.401  25.421  57.024  1.00  0.00     0.033 A 
HETATM   11  N   UNL     1       6.667  27.485  52.671  1.00  0.00    -0.033 NA
HETATM   12  C   UNL     1       6.006  28.524  53.030  1.00  0.00     0.193 A 
HETATM   13  N   UNL     1       5.685  28.845  54.355  1.00  0.00    -0.339 N 
HETATM   14  H   UNL     1       5.267  29.733  54.579  1.00  0.00     0.164 HD
ENDROOT
BRANCH   1  15
HETATM   15  C   UNL     1       7.018  28.864  56.339  1.00  0.00    -0.014 A 
HETATM   16  C   UNL     1       8.423  28.849  56.284  1.00  0.00     0.020 A 
HETATM   17  C   UNL     1       9.190  29.712  57.081  1.00  0.00    -0.027 A 
HETATM   18  C   UNL     1       8.532  30.613  57.932  1.00  0.00     0.086 A 
HETATM   19  C   UNL     1      10.689  29.703  56.961  1.00  0.00     0.051 C 
HETATM   20  C   UNL     1       7.131  30.682  57.974  1.00  0.00    -0.027 A 
HETATM   21  C   UNL     1       6.415  31.675  58.847  1.00  0.00     0.051 C 
HETATM   22  C   UNL     1       6.387  29.787  57.191  1.00  0.00     0.020 A 
BRANCH  18  23
HETATM   23  O   UNL     1       9.285  31.504  58.652  1.00  0.00    -0.289 OA
BRANCH  23  24
HETATM   24  C   UNL     1       9.622  30.966  59.926  1.00  0.00     0.505 C 
HETATM   25  F   UNL     1       9.445  31.953  60.839  1.00  0.00    -0.184 F 
HETATM   26  F   UNL     1       8.723  29.995  60.219  1.00  0.00    -0.184 F 
ENDBRANCH  23  24
ENDBRANCH  18  23
ENDBRANCH   1  15
BRANCH  12  27
HETATM   27  N   UNL     1       5.556  29.446  52.154  1.00  0.00    -0.272 NA
HETATM   28  H   UNL     1       6.159  30.266  52.148  1.00  0.00     0.127 HD
HETATM   29  H   UNL     1       5.372  29.126  51.213  1.00  0.00     0.127 HD
ENDBRANCH  12  27
TORSDOF 4
ENDMDL
MODEL 8
REMARK VINA RESULT:      -8.0      5.243      7.169
REMARK  4 active torsions:
REMARK  status: ('A' for Active; 'I' for Inactive)
REMARK    1  A    between atoms: C_3  and  O_4 
REMARK    2  A    between atoms: O_4  and  C_5 
REMARK    3  A    between atoms: C_11  and  C_12 
REMARK    4  A    between atoms: C_23  and  N_24 
ROOT
HETATM    1  C   UNL     1       5.756  28.502  52.609  1.00  0.00     0.244 A 
HETATM    2  N   UNL     1       5.862  27.314  53.424  1.00  0.00    -0.151 N 
HETATM    3  C   UNL     1       5.474  27.330  54.740  1.00  0.00     0.734 A 
HETATM    4  N   UNL     1       5.726  26.163  55.288  1.00  0.00    -0.060 NA
HETATM    5  C   UNL     1       6.317  25.396  54.315  1.00  0.00     0.103 A 
HETATM    6  C   UNL     1       6.424  26.103  53.120  1.00  0.00     0.083 A 
HETATM    7  C   UNL     1       6.800  24.082  54.385  1.00  0.00     0.034 A 
HETATM    8  C   UNL     1       7.379  23.518  53.243  1.00  0.00     0.002 A 
HETATM    9  C   UNL     1       7.474  24.248  52.055  1.00  0.00     0.002 A 
HETATM   10  C   UNL     1       6.999  25.561  51.966  1.00  0.00     0.033 A 
HETATM   11  N   UNL     1       4.927  28.417  55.328  1.00  0.00    -0.033 NA
HETATM   12  C   UNL     1       4.833  29.508  54.660  1.00  0.00     0.193 A 
HETATM   13  N   UNL     1       5.240  29.665  53.330  1.00  0.00    -0.339 N 
HETATM   14  H   UNL     1       5.032  30.512  52.827  1.00  0.00     0.164 HD
ENDROOT
BRANCH   1  15
HETATM   15  C   UNL     1       4.861  28.313  51.395  1.00  0.00    -0.014 A 
HETATM   16  C   UNL     1       3.525  28.756  51.392  1.00  0.00     0.020 A 
HETATM   17  C   UNL     1       2.725  28.639  50.246  1.00  0.00    -0.027 A 
HETATM   18  C   UNL     1       3.281  28.083  49.084  1.00  0.00     0.086 A 
HETATM   19  C   UNL     1       1.317  29.167  50.263  1.00  0.00     0.051 C 
HETATM   20  C   UNL     1       4.623  27.675  49.044  1.00  0.00    -0.027 A 
HETATM   21  C   UNL     1       5.244  27.120  47.791  1.00  0.00     0.051 C 
HETATM   22  C   UNL     1       5.394  27.773  50.212  1.00  0.00     0.020 A 
BRANCH  18  23
HETATM   23  O   UNL     1       2.517  28.039  47.947  1.00  0.00    -0.289 OA
BRANCH  23  24
HETATM   24  C   UNL     1       1.875  26.776  47.819  1.00  0.00     0.505 C 
HETATM   25  F   UNL     1       0.538  27.003  47.808  1.00  0.00    -0.184 F 
HETATM   26  F   UNL     1       2.196  26.266  46.604  1.00  0.00    -0.184 F 
ENDBRANCH  23  24
ENDBRANCH  18  23
ENDBRANCH   1  15
BRANCH  12  27
HETATM   27  N   UNL     1       4.305  30.638  55.173  1.00  0.00    -0.272 NA
HETATM   28  H   UNL     1       3.340  30.757  54.874  1.00  0.00     0.127 HD
HETATM   29  H   UNL     1       4.393  30.767  56.172  1.00  0.00     0.127 HD
ENDBRANCH  12  27
TORSDOF 4
ENDMDL
MODEL 9
REMARK VINA RESULT:      -8.0      8.682     10.944
REMARK  4 active torsions:
REMARK  status: ('A' for Active; 'I' for Inactive)
REMARK    1  A    between atoms: C_3  and  O_4 
REMARK    2  A    between atoms: O_4  and  C_5 
REMARK    3  A    between atoms: C_11  and  C_12 
REMARK    4  A    between atoms: C_23  and  N_24 
ROOT
HETATM    1  C   UNL     1       4.503  32.302  60.578  1.00  0.00     0.244 A 
HETATM    2  N   UNL     1       5.865  32.216  60.105  1.00  0.00    -0.151 N 
HETATM    3  C   UNL     1       6.137  32.155  58.761  1.00  0.00     0.734 A 
HETATM    4  N   UNL     1       7.431  32.015  58.580  1.00  0.00    -0.060 NA
HETATM    5  C   UNL     1       7.994  31.951  59.831  1.00  0.00     0.103 A 
HETATM    6  C   UNL     1       7.022  32.069  60.821  1.00  0.00     0.083 A 
HETATM    7  C   UNL     1       9.336  31.782  60.197  1.00  0.00     0.034 A 
HETATM    8  C   UNL     1       9.660  31.737  61.558  1.00  0.00     0.002 A 
HETATM    9  C   UNL     1       8.667  31.858  62.533  1.00  0.00     0.002 A 
HETATM   10  C   UNL     1       7.321  32.027  62.186  1.00  0.00     0.033 A 
HETATM   11  N   UNL     1       5.175  32.227  57.815  1.00  0.00    -0.033 NA
HETATM   12  C   UNL     1       3.945  32.277  58.178  1.00  0.00     0.193 A 
HETATM   13  N   UNL     1       3.507  32.286  59.508  1.00  0.00    -0.339 N 
HETATM   14  H   UNL     1       2.536  32.444  59.725  1.00  0.00     0.164 HD
ENDROOT
BRANCH   1  15
HETATM   15  C   UNL     1       4.235  33.553  61.399  1.00  0.00    -0.014 A 
HETATM   16  C   UNL     1       3.899  33.477  62.763  1.00  0.00     0.020 A 
HETATM   17  C   UNL     1       3.719  34.637  63.531  1.00  0.00    -0.027 A 
HETATM   18  C   UNL     1       3.896  35.888  62.922  1.00  0.00     0.086 A 
HETATM   19  C   UNL     1       3.408  34.518  64.998  1.00  0.00     0.051 C 
HETATM   20  C   UNL     1       4.276  35.994  61.576  1.00  0.00    -0.027 A 
HETATM   21  C   UNL     1       4.513  37.328  60.924  1.00  0.00     0.051 C 
HETATM   22  C   UNL     1       4.419  34.820  60.820  1.00  0.00     0.020 A 
BRANCH  18  23
HETATM   23  O   UNL     1       3.791  37.015  63.696  1.00  0.00    -0.289 OA
BRANCH  23  24
HETATM   24  C   UNL     1       5.051  37.357  64.262  1.00  0.00     0.505 C 
HETATM   25  F   UNL     1       5.339  38.622  63.869  1.00  0.00    -0.184 F 
HETATM   26  F   UNL     1       4.908  37.387  65.610  1.00  0.00    -0.184 F 
ENDBRANCH  23  24
ENDBRANCH  18  23
ENDBRANCH   1  15
BRANCH  12  27
HETATM   27  N   UNL     1       2.924  32.345  57.299  1.00  0.00    -0.272 NA
HETATM   28  H   UNL     1       3.264  32.544  56.361  1.00  0.00     0.127 HD
HETATM   29  H   UNL     1       2.279  31.566  57.292  1.00  0.00     0.127 HD
ENDBRANCH  12  27
TORSDOF 4
ENDMDL
MODEL 10
REMARK VINA RESULT:      -7.9      4.063      6.476
REMARK  4 active torsions:
REMARK  status: ('A' for Active; 'I' for Inactive)
REMARK    1  A    between atoms: C_3  and  O_4 
REMARK    2  A    between atoms: O_4  and  C_5 
REMARK    3  A    between atoms: C_11  and  C_12 
REMARK    4  A    between atoms: C_23  and  N_24 
ROOT
HETATM    1  C   UNL     1       7.795  26.723  54.939  1.00  0.00     0.244 A 
HETATM    2  N   UNL     1       7.737  25.358  55.408  1.00  0.00    -0.151 N 
HETATM    3  C   UNL     1       7.764  25.077  56.750  1.00  0.00     0.734 A 
HETATM    4  N   UNL     1       7.768  23.775  56.928  1.00  0.00    -0.060 NA
HETATM    5  C   UNL     1       7.778  23.212  55.676  1.00  0.00     0.103 A 
HETATM    6  C   UNL     1       7.766  24.193  54.689  1.00  0.00     0.083 A 
HETATM    7  C   UNL     1       7.808  21.861  55.305  1.00  0.00     0.034 A 
HETATM    8  C   UNL     1       7.825  21.538  53.944  1.00  0.00     0.002 A 
HETATM    9  C   UNL     1       7.811  22.541  52.972  1.00  0.00     0.002 A 
HETATM   10  C   UNL     1       7.782  23.896  53.322  1.00  0.00     0.033 A 
HETATM   11  N   UNL     1       7.789  26.039  57.699  1.00  0.00    -0.033 NA
HETATM   12  C   UNL     1       7.869  27.268  57.340  1.00  0.00     0.193 A 
HETATM   13  N   UNL     1       7.911  27.709  56.012  1.00  0.00    -0.339 N 
HETATM   14  H   UNL     1       7.855  28.691  55.797  1.00  0.00     0.164 HD
ENDROOT
BRANCH   1  15
HETATM   15  C   UNL     1       6.582  27.121  54.114  1.00  0.00    -0.014 A 
HETATM   16  C   UNL     1       5.679  28.102  54.563  1.00  0.00     0.020 A 
HETATM   17  C   UNL     1       4.599  28.512  53.767  1.00  0.00    -0.027 A 
HETATM   18  C   UNL     1       4.436  27.939  52.497  1.00  0.00     0.086 A 
HETATM   19  C   UNL     1       3.681  29.598  54.259  1.00  0.00     0.051 C 
HETATM   20  C   UNL     1       5.348  26.993  52.004  1.00  0.00    -0.027 A 
HETATM   21  C   UNL     1       5.210  26.406  50.626  1.00  0.00     0.051 C 
HETATM   22  C   UNL     1       6.401  26.575  52.831  1.00  0.00     0.020 A 
BRANCH  18  23
HETATM   23  O   UNL     1       3.423  28.398  51.696  1.00  0.00    -0.289 OA
BRANCH  23  24
HETATM   24  C   UNL     1       3.889  29.432  50.836  1.00  0.00     0.505 C 
HETATM   25  F   UNL     1       3.521  29.101  49.573  1.00  0.00    -0.184 F 
HETATM   26  F   UNL     1       3.224  30.570  51.153  1.00  0.00    -0.184 F 
ENDBRANCH  23  24
ENDBRANCH  18  23
ENDBRANCH   1  15
BRANCH  12  27
HETATM   27  N   UNL     1       7.904  28.288  58.222  1.00  0.00    -0.272 NA
HETATM   28  H   UNL     1       7.657  27.970  59.157  1.00  0.00     0.127 HD
HETATM   29  H   UNL     1       8.750  28.842  58.241  1.00  0.00     0.127 HD
ENDBRANCH  12  27
TORSDOF 4
ENDMDL
