MODEL 1
REMARK VINA RESULT:     -10.0      0.000      0.000
REMARK  3 active torsions:
REMARK  status: ('A' for Active; 'I' for Inactive)
REMARK    1  A    between atoms: C_9  and  C_10 
REMARK       I    between atoms: C_10  and  N_11 
REMARK    2  A    between atoms: N_11  and  C_12 
REMARK    3  A    between atoms: C_14  and  C_15 
ROOT
HETATM    1  C   UNL     1       7.199  27.379  55.557  1.00  0.00     0.252 C 
HETATM    2  N   UNL     1       7.756  27.567  56.808  1.00  0.00    -0.325 N 
HETATM    3  O   UNL     1       7.525  27.957  54.522  1.00  0.00    -0.270 OA
HETATM    4  H   UNL     1       7.479  26.886  57.508  1.00  0.00     0.169 HD
ENDROOT
BRANCH   2   5
HETATM    5  C   UNL     1       8.526  28.654  57.260  1.00  0.00     0.035 A 
HETATM    6  C   UNL     1       8.216  29.404  58.396  1.00  0.00     0.042 A 
HETATM    7  C   UNL     1       9.083  30.411  58.855  1.00  0.00    -0.021 A 
HETATM    8  C   UNL     1      10.263  30.665  58.143  1.00  0.00     0.012 A 
HETATM    9  C   UNL     1      10.572  29.929  57.000  1.00  0.00     0.003 A 
HETATM   10  C   UNL     1       9.708  28.926  56.562  1.00  0.00     0.029 A 
BRANCH   7  11
HETATM   11  C   UNL     1       8.788  31.157  60.067  1.00  0.00     0.010 A 
HETATM   12  C   UNL     1       9.155  30.920  61.413  1.00  0.00     0.152 A 
HETATM   13  N   UNL     1       8.683  31.847  62.251  1.00  0.00    -0.187 NA
HETATM   14  N   UNL     1       8.008  32.682  61.444  1.00  0.00    -0.289 N 
HETATM   15  H   UNL     1       7.546  33.485  61.858  1.00  0.00     0.188 HD
HETATM   16  C   UNL     1       8.042  32.315  60.131  1.00  0.00     0.123 A 
ENDBRANCH   7  11
ENDBRANCH   2   5
BRANCH   1  17
HETATM   17  C   UNL     1       6.002  26.398  55.570  1.00  0.00     0.225 C 
HETATM   18  C   UNL     1       6.199  25.388  56.710  1.00  0.00     0.083 C 
HETATM   19  C   UNL     1       6.814  24.290  55.925  1.00  0.00    -0.021 A 
HETATM   20  C   UNL     1       6.527  24.477  54.586  1.00  0.00     0.076 A 
HETATM   21  C   UNL     1       7.574  23.215  56.342  1.00  0.00     0.017 A 
HETATM   22  C   UNL     1       6.961  23.605  53.611  1.00  0.00     0.044 A 
HETATM   23  O   UNL     1       5.865  25.656  54.330  1.00  0.00    -0.336 OA
HETATM   24  C   UNL     1       7.752  22.512  54.001  1.00  0.00    -0.053 A 
HETATM   25  C   UNL     1       8.070  22.323  55.374  1.00  0.00    -0.055 A 
HETATM   26  C   UNL     1       8.284  21.584  52.943  1.00  0.00     0.049 C 
HETATM   27  C   UNL     1       8.969  21.198  55.816  1.00  0.00     0.049 C 
ENDBRANCH   1  17
TORSDOF 3
ENDMDL
MODEL 2
REMARK VINA RESULT:      -9.8      5.707      9.025
REMARK  3 active torsions:
REMARK  status: ('A' for Active; 'I' for Inactive)
REMARK    1  A    between atoms: C_9  and  C_10 
REMARK       I    between atoms: C_10  and  N_11 
REMARK    2  A    between atoms: N_11  and  C_12 
REMARK    3  A    between atoms: C_14  and  C_15 
ROOT
HETATM    1  C   UNL     1       5.847  26.396  52.808  1.00  0.00     0.252 C 
HETATM    2  N   UNL     1       5.743  27.053  51.595  1.00  0.00    -0.325 N 
HETATM    3  O   UNL     1       4.914  25.968  53.484  1.00  0.00    -0.270 OA
HETATM    4  H   UNL     1       6.621  27.183  51.101  1.00  0.00     0.169 HD
ENDROOT
BRANCH   2   5
HETATM    5  C   UNL     1       4.614  27.684  51.045  1.00  0.00     0.035 A 
HETATM    6  C   UNL     1       4.011  27.289  49.849  1.00  0.00     0.042 A 
HETATM    7  C   UNL     1       2.821  27.893  49.407  1.00  0.00    -0.021 A 
HETATM    8  C   UNL     1       2.251  28.914  50.179  1.00  0.00     0.012 A 
HETATM    9  C   UNL     1       2.855  29.323  51.367  1.00  0.00     0.003 A 
HETATM   10  C   UNL     1       4.029  28.708  51.799  1.00  0.00     0.029 A 
BRANCH   7  11
HETATM   11  C   UNL     1       2.164  27.448  48.189  1.00  0.00     0.010 A 
HETATM   12  C   UNL     1       0.969  27.882  47.569  1.00  0.00     0.152 A 
HETATM   13  N   UNL     1       0.694  27.215  46.445  1.00  0.00    -0.187 NA
HETATM   14  N   UNL     1       1.713  26.345  46.342  1.00  0.00    -0.289 N 
HETATM   15  H   UNL     1       1.726  25.711  45.550  1.00  0.00     0.188 HD
HETATM   16  C   UNL     1       2.618  26.445  47.357  1.00  0.00     0.123 A 
ENDBRANCH   7  11
ENDBRANCH   2   5
BRANCH   1  17
HETATM   17  C   UNL     1       7.302  26.316  53.329  1.00  0.00     0.225 C 
HETATM   18  C   UNL     1       8.130  25.456  52.362  1.00  0.00     0.083 C 
HETATM   19  C   UNL     1       8.028  24.162  53.079  1.00  0.00    -0.021 A 
HETATM   20  C   UNL     1       7.669  24.401  54.392  1.00  0.00     0.076 A 
HETATM   21  C   UNL     1       8.224  22.874  52.622  1.00  0.00     0.017 A 
HETATM   22  C   UNL     1       7.507  23.384  55.308  1.00  0.00     0.044 A 
HETATM   23  O   UNL     1       7.397  25.725  54.651  1.00  0.00    -0.336 OA
HETATM   24  C   UNL     1       7.681  22.061  54.870  1.00  0.00    -0.053 A 
HETATM   25  C   UNL     1       8.029  21.804  53.515  1.00  0.00    -0.055 A 
HETATM   26  C   UNL     1       7.448  20.935  55.842  1.00  0.00     0.049 C 
HETATM   27  C   UNL     1       8.159  20.394  52.999  1.00  0.00     0.049 C 
ENDBRANCH   1  17
TORSDOF 3
ENDMDL
MODEL 3
REMARK VINA RESULT:      -9.5      6.127      8.425
REMARK  3 active torsions:
REMARK  status: ('A' for Active; 'I' for Inactive)
REMARK    1  A    between atoms: C_9  and  C_10 
REMARK       I    between atoms: C_10  and  N_11 
REMARK    2  A    between atoms: N_11  and  C_12 
REMARK    3  A    between atoms: C_14  and  C_15 
ROOT
HETATM    1  C   UNL     1       5.623  25.897  52.298  1.00  0.00     0.252 C 
HETATM    2  N   UNL     1       5.658  26.203  50.950  1.00  0.00    -0.325 N 
HETATM    3  O   UNL     1       4.621  25.623  52.955  1.00  0.00    -0.270 OA
HETATM    4  H   UNL     1       6.587  26.236  50.542  1.00  0.00     0.169 HD
ENDROOT
BRANCH   2   5
HETATM    5  C   UNL     1       4.595  26.612  50.127  1.00  0.00     0.035 A 
HETATM    6  C   UNL     1       3.992  27.870  50.207  1.00  0.00     0.042 A 
HETATM    7  C   UNL     1       3.005  28.257  49.285  1.00  0.00    -0.021 A 
HETATM    8  C   UNL     1       2.617  27.353  48.286  1.00  0.00     0.012 A 
HETATM    9  C   UNL     1       3.205  26.091  48.208  1.00  0.00     0.003 A 
HETATM   10  C   UNL     1       4.191  25.724  49.123  1.00  0.00     0.029 A 
BRANCH   7  11
HETATM   11  C   UNL     1       2.414  29.584  49.335  1.00  0.00     0.010 A 
HETATM   12  C   UNL     1       2.726  30.765  48.619  1.00  0.00     0.152 A 
HETATM   13  N   UNL     1       1.944  31.796  48.951  1.00  0.00    -0.187 NA
HETATM   14  N   UNL     1       1.129  31.280  49.886  1.00  0.00    -0.289 N 
HETATM   15  H   UNL     1       0.430  31.885  50.304  1.00  0.00     0.188 HD
HETATM   16  C   UNL     1       1.367  29.963  50.150  1.00  0.00     0.123 A 
ENDBRANCH   7  11
ENDBRANCH   2   5
BRANCH   1  17
HETATM   17  C   UNL     1       7.005  26.025  52.982  1.00  0.00     0.225 C 
HETATM   18  C   UNL     1       8.034  25.214  52.180  1.00  0.00     0.083 C 
HETATM   19  C   UNL     1       7.994  23.963  52.976  1.00  0.00    -0.021 A 
HETATM   20  C   UNL     1       7.456  24.236  54.220  1.00  0.00     0.076 A 
HETATM   21  C   UNL     1       8.387  22.682  52.641  1.00  0.00     0.017 A 
HETATM   22  C   UNL     1       7.302  23.264  55.185  1.00  0.00     0.044 A 
HETATM   23  O   UNL     1       7.008  25.530  54.347  1.00  0.00    -0.336 OA
HETATM   24  C   UNL     1       7.675  21.947  54.868  1.00  0.00    -0.053 A 
HETATM   25  C   UNL     1       8.209  21.653  53.583  1.00  0.00    -0.055 A 
HETATM   26  C   UNL     1       7.456  20.863  55.889  1.00  0.00     0.049 C 
HETATM   27  C   UNL     1       8.557  20.240  53.191  1.00  0.00     0.049 C 
ENDBRANCH   1  17
TORSDOF 3
ENDMDL
MODEL 4
REMARK VINA RESULT:      -9.2      3.552      5.763
REMARK  3 active torsions:
REMARK  status: ('A' for Active; 'I' for Inactive)
REMARK    1  A    between atoms: C_9  and  C_10 
REMARK       I    between atoms: C_10  and  N_11 
REMARK    2  A    between atoms: N_11  and  C_12 
REMARK    3  A    between atoms: C_14  and  C_15 
ROOT
HETATM    1  C   UNL     1       8.003  30.584  59.590  1.00  0.00     0.252 C 
HETATM    2  N   UNL     1       7.060  31.466  60.086  1.00  0.00    -0.325 N 
HETATM    3  O   UNL     1       8.806  29.931  60.252  1.00  0.00    -0.270 OA
HETATM    4  H   UNL     1       6.373  31.785  59.410  1.00  0.00     0.169 HD
ENDROOT
BRANCH   2   5
HETATM    5  C   UNL     1       7.029  32.079  61.350  1.00  0.00     0.035 A 
HETATM    6  C   UNL     1       5.868  32.589  61.936  1.00  0.00     0.042 A 
HETATM    7  C   UNL     1       5.883  33.095  63.247  1.00  0.00    -0.021 A 
HETATM    8  C   UNL     1       7.089  33.095  63.960  1.00  0.00     0.012 A 
HETATM    9  C   UNL     1       8.255  32.600  63.377  1.00  0.00     0.003 A 
HETATM   10  C   UNL     1       8.223  32.091  62.079  1.00  0.00     0.029 A 
BRANCH   7  11
HETATM   11  C   UNL     1       4.665  33.578  63.876  1.00  0.00     0.010 A 
HETATM   12  C   UNL     1       4.386  33.908  65.224  1.00  0.00     0.152 A 
HETATM   13  N   UNL     1       3.129  34.321  65.409  1.00  0.00    -0.187 NA
HETATM   14  N   UNL     1       2.595  34.253  64.178  1.00  0.00    -0.289 N 
HETATM   15  H   UNL     1       1.624  34.520  64.060  1.00  0.00     0.188 HD
HETATM   16  C   UNL     1       3.471  33.817  63.228  1.00  0.00     0.123 A 
ENDBRANCH   7  11
ENDBRANCH   2   5
BRANCH   1  17
HETATM   17  C   UNL     1       8.039  30.546  58.043  1.00  0.00     0.225 C 
HETATM   18  C   UNL     1       6.621  30.271  57.519  1.00  0.00     0.083 C 
HETATM   19  C   UNL     1       6.733  28.803  57.345  1.00  0.00    -0.021 A 
HETATM   20  C   UNL     1       8.070  28.455  57.293  1.00  0.00     0.076 A 
HETATM   21  C   UNL     1       5.747  27.840  57.249  1.00  0.00     0.017 A 
HETATM   22  C   UNL     1       8.486  27.151  57.126  1.00  0.00     0.044 A 
HETATM   23  O   UNL     1       8.918  29.513  57.524  1.00  0.00    -0.336 OA
HETATM   24  C   UNL     1       7.507  26.147  57.044  1.00  0.00    -0.053 A 
HETATM   25  C   UNL     1       6.130  26.492  57.119  1.00  0.00    -0.055 A 
HETATM   26  C   UNL     1       7.946  24.712  56.923  1.00  0.00     0.049 C 
HETATM   27  C   UNL     1       5.060  25.432  57.099  1.00  0.00     0.049 C 
ENDBRANCH   1  17
TORSDOF 3
ENDMDL
MODEL 5
REMARK VINA RESULT:      -9.0      1.994      2.717
REMARK  3 active torsions:
REMARK  status: ('A' for Active; 'I' for Inactive)
REMARK    1  A    between atoms: C_9  and  C_10 
REMARK       I    between atoms: C_10  and  N_11 
REMARK    2  A    between atoms: N_11  and  C_12 
REMARK    3  A    between atoms: C_14  and  C_15 
ROOT
HETATM    1  C   UNL     1       6.847  28.500  56.959  1.00  0.00     0.252 C 
HETATM    2  N   UNL     1       7.748  28.624  58.002  1.00  0.00    -0.325 N 
HETATM    3  O   UNL     1       6.623  29.339  56.090  1.00  0.00    -0.270 OA
HETATM    4  H   UNL     1       7.924  27.770  58.521  1.00  0.00     0.169 HD
ENDROOT
BRANCH   2   5
HETATM    5  C   UNL     1       8.323  29.800  58.514  1.00  0.00     0.035 A 
HETATM    6  C   UNL     1       7.863  30.454  59.659  1.00  0.00     0.042 A 
HETATM    7  C   UNL     1       8.546  31.565  60.180  1.00  0.00    -0.021 A 
HETATM    8  C   UNL     1       9.696  32.024  59.522  1.00  0.00     0.012 A 
HETATM    9  C   UNL     1      10.153  31.385  58.370  1.00  0.00     0.003 A 
HETATM   10  C   UNL     1       9.471  30.277  57.871  1.00  0.00     0.029 A 
BRANCH   7  11
HETATM   11  C   UNL     1       8.099  32.214  61.401  1.00  0.00     0.010 A 
HETATM   12  C   UNL     1       7.079  33.171  61.623  1.00  0.00     0.152 A 
HETATM   13  N   UNL     1       6.972  33.528  62.906  1.00  0.00    -0.187 NA
HETATM   14  N   UNL     1       7.928  32.804  63.512  1.00  0.00    -0.289 N 
HETATM   15  H   UNL     1       8.047  32.907  64.514  1.00  0.00     0.188 HD
HETATM   16  C   UNL     1       8.627  32.002  62.658  1.00  0.00     0.123 A 
ENDBRANCH   7  11
ENDBRANCH   2   5
BRANCH   1  17
HETATM   17  C   UNL     1       6.027  27.189  57.024  1.00  0.00     0.225 C 
HETATM   18  C   UNL     1       6.972  25.999  56.798  1.00  0.00     0.083 C 
HETATM   19  C   UNL     1       6.749  25.816  55.343  1.00  0.00    -0.021 A 
HETATM   20  C   UNL     1       5.564  26.432  54.987  1.00  0.00     0.076 A 
HETATM   21  C   UNL     1       7.522  25.172  54.398  1.00  0.00     0.017 A 
HETATM   22  C   UNL     1       5.087  26.421  53.694  1.00  0.00     0.044 A 
HETATM   23  O   UNL     1       4.980  27.129  56.020  1.00  0.00    -0.336 OA
HETATM   24  C   UNL     1       5.860  25.789  52.706  1.00  0.00    -0.053 A 
HETATM   25  C   UNL     1       7.092  25.172  53.059  1.00  0.00    -0.055 A 
HETATM   26  C   UNL     1       5.385  25.820  51.279  1.00  0.00     0.049 C 
HETATM   27  C   UNL     1       7.974  24.543  52.012  1.00  0.00     0.049 C 
ENDBRANCH   1  17
TORSDOF 3
ENDMDL
MODEL 6
REMARK VINA RESULT:      -8.8      5.206      8.592
REMARK  3 active torsions:
REMARK  status: ('A' for Active; 'I' for Inactive)
REMARK    1  A    between atoms: C_9  and  C_10 
REMARK       I    between atoms: C_10  and  N_11 
REMARK    2  A    between atoms: N_11  and  C_12 
REMARK    3  A    between atoms: C_14  and  C_15 
ROOT
HETATM    1  C   UNL     1       5.089  27.904  52.600  1.00  0.00     0.252 C 
HETATM    2  N   UNL     1       6.212  27.431  53.254  1.00  0.00    -0.325 N 
HETATM    3  O   UNL     1       3.920  27.671  52.903  1.00  0.00    -0.270 OA
HETATM    4  H   UNL     1       7.086  27.861  52.970  1.00  0.00     0.169 HD
ENDROOT
BRANCH   2   5
HETATM    5  C   UNL     1       6.305  26.342  54.138  1.00  0.00     0.035 A 
HETATM    6  C   UNL     1       6.774  25.080  53.766  1.00  0.00     0.042 A 
HETATM    7  C   UNL     1       6.943  24.063  54.721  1.00  0.00    -0.021 A 
HETATM    8  C   UNL     1       6.619  24.328  56.059  1.00  0.00     0.012 A 
HETATM    9  C   UNL     1       6.138  25.582  56.435  1.00  0.00     0.003 A 
HETATM   10  C   UNL     1       5.985  26.585  55.478  1.00  0.00     0.029 A 
BRANCH   7  11
HETATM   11  C   UNL     1       7.480  22.766  54.346  1.00  0.00     0.010 A 
HETATM   12  C   UNL     1       7.865  22.251  53.085  1.00  0.00     0.152 A 
HETATM   13  N   UNL     1       8.318  20.996  53.151  1.00  0.00    -0.187 NA
HETATM   14  N   UNL     1       8.221  20.699  54.458  1.00  0.00    -0.289 N 
HETATM   15  H   UNL     1       8.509  19.776  54.765  1.00  0.00     0.188 HD
HETATM   16  C   UNL     1       7.728  21.722  55.214  1.00  0.00     0.123 A 
ENDBRANCH   7  11
ENDBRANCH   2   5
BRANCH   1  17
HETATM   17  C   UNL     1       5.428  28.721  51.330  1.00  0.00     0.225 C 
HETATM   18  C   UNL     1       4.188  29.525  50.909  1.00  0.00     0.083 C 
HETATM   19  C   UNL     1       3.650  28.582  49.899  1.00  0.00    -0.021 A 
HETATM   20  C   UNL     1       4.657  27.721  49.503  1.00  0.00     0.076 A 
HETATM   21  C   UNL     1       2.379  28.473  49.371  1.00  0.00     0.017 A 
HETATM   22  C   UNL     1       4.456  26.736  48.560  1.00  0.00     0.044 A 
HETATM   23  O   UNL     1       5.825  27.886  50.211  1.00  0.00    -0.336 OA
HETATM   24  C   UNL     1       3.168  26.588  48.018  1.00  0.00    -0.053 A 
HETATM   25  C   UNL     1       2.121  27.454  48.436  1.00  0.00    -0.055 A 
HETATM   26  C   UNL     1       2.917  25.478  47.033  1.00  0.00     0.049 C 
HETATM   27  C   UNL     1       0.716  27.279  47.921  1.00  0.00     0.049 C 
ENDBRANCH   1  17
TORSDOF 3
ENDMDL
MODEL 7
REMARK VINA RESULT:      -8.7      2.157      2.612
REMARK  3 active torsions:
REMARK  status: ('A' for Active; 'I' for Inactive)
REMARK    1  A    between atoms: C_9  and  C_10 
REMARK       I    between atoms: C_10  and  N_11 
REMARK    2  A    between atoms: N_11  and  C_12 
REMARK    3  A    between atoms: C_14  and  C_15 
ROOT
HETATM    1  C   UNL     1       7.058  27.534  54.493  1.00  0.00     0.252 C 
HETATM    2  N   UNL     1       6.735  27.645  55.833  1.00  0.00    -0.325 N 
HETATM    3  O   UNL     1       7.916  28.182  53.896  1.00  0.00    -0.270 OA
HETATM    4  H   UNL     1       6.125  26.916  56.188  1.00  0.00     0.169 HD
ENDROOT
BRANCH   2   5
HETATM    5  C   UNL     1       7.023  28.707  56.708  1.00  0.00     0.035 A 
HETATM    6  C   UNL     1       6.087  29.670  57.092  1.00  0.00     0.042 A 
HETATM    7  C   UNL     1       6.407  30.644  58.053  1.00  0.00    -0.021 A 
HETATM    8  C   UNL     1       7.691  30.648  58.614  1.00  0.00     0.012 A 
HETATM    9  C   UNL     1       8.635  29.698  58.225  1.00  0.00     0.003 A 
HETATM   10  C   UNL     1       8.300  28.730  57.279  1.00  0.00     0.029 A 
BRANCH   7  11
HETATM   11  C   UNL     1       5.418  31.614  58.492  1.00  0.00     0.010 A 
HETATM   12  C   UNL     1       4.018  31.667  58.293  1.00  0.00     0.152 A 
HETATM   13  N   UNL     1       3.451  32.734  58.862  1.00  0.00    -0.187 NA
HETATM   14  N   UNL     1       4.489  33.374  59.427  1.00  0.00    -0.289 N 
HETATM   15  H   UNL     1       4.307  34.236  59.929  1.00  0.00     0.188 HD
HETATM   16  C   UNL     1       5.684  32.745  59.237  1.00  0.00     0.123 A 
ENDBRANCH   7  11
ENDBRANCH   2   5
BRANCH   1  17
HETATM   17  C   UNL     1       6.145  26.543  53.731  1.00  0.00     0.225 C 
HETATM   18  C   UNL     1       5.492  25.590  54.744  1.00  0.00     0.083 C 
HETATM   19  C   UNL     1       6.449  24.463  54.630  1.00  0.00    -0.021 A 
HETATM   20  C   UNL     1       7.151  24.583  53.446  1.00  0.00     0.076 A 
HETATM   21  C   UNL     1       6.698  23.416  55.496  1.00  0.00     0.017 A 
HETATM   22  C   UNL     1       8.108  23.670  53.060  1.00  0.00     0.044 A 
HETATM   23  O   UNL     1       6.867  25.742  52.760  1.00  0.00    -0.336 OA
HETATM   24  C   UNL     1       8.398  22.604  53.929  1.00  0.00    -0.053 A 
HETATM   25  C   UNL     1       7.697  22.484  55.160  1.00  0.00    -0.055 A 
HETATM   26  C   UNL     1       9.484  21.633  53.552  1.00  0.00     0.049 C 
HETATM   27  C   UNL     1       8.030  21.390  56.141  1.00  0.00     0.049 C 
ENDBRANCH   1  17
TORSDOF 3
ENDMDL
MODEL 8
REMARK VINA RESULT:      -8.6      2.735      8.917
REMARK  3 active torsions:
REMARK  status: ('A' for Active; 'I' for Inactive)
REMARK    1  A    between atoms: C_9  and  C_10 
REMARK       I    between atoms: C_10  and  N_11 
REMARK    2  A    between atoms: N_11  and  C_12 
REMARK    3  A    between atoms: C_14  and  C_15 
ROOT
HETATM    1  C   UNL     1       7.675  28.981  57.697  1.00  0.00     0.252 C 
HETATM    2  N   UNL     1       8.389  27.908  57.195  1.00  0.00    -0.325 N 
HETATM    3  O   UNL     1       6.492  28.972  58.033  1.00  0.00    -0.270 OA
HETATM    4  H   UNL     1       9.392  28.052  57.133  1.00  0.00     0.169 HD
ENDROOT
BRANCH   2   5
HETATM    5  C   UNL     1       7.888  26.723  56.630  1.00  0.00     0.035 A 
HETATM    6  C   UNL     1       7.211  26.671  55.409  1.00  0.00     0.042 A 
HETATM    7  C   UNL     1       6.828  25.441  54.848  1.00  0.00    -0.021 A 
HETATM    8  C   UNL     1       7.123  24.258  55.540  1.00  0.00     0.012 A 
HETATM    9  C   UNL     1       7.786  24.303  56.766  1.00  0.00     0.003 A 
HETATM   10  C   UNL     1       8.169  25.530  57.306  1.00  0.00     0.029 A 
BRANCH   7  11
HETATM   11  C   UNL     1       6.171  25.382  53.553  1.00  0.00     0.010 A 
HETATM   12  C   UNL     1       6.611  25.786  52.270  1.00  0.00     0.152 A 
HETATM   13  N   UNL     1       5.704  25.564  51.315  1.00  0.00    -0.187 NA
HETATM   14  N   UNL     1       4.675  25.018  51.984  1.00  0.00    -0.289 N 
HETATM   15  H   UNL     1       3.844  24.759  51.462  1.00  0.00     0.188 HD
HETATM   16  C   UNL     1       4.904  24.886  53.322  1.00  0.00     0.123 A 
ENDBRANCH   7  11
ENDBRANCH   2   5
BRANCH   1  17
HETATM   17  C   UNL     1       8.494  30.294  57.722  1.00  0.00     0.225 C 
HETATM   18  C   UNL     1       9.468  30.251  58.909  1.00  0.00     0.083 C 
HETATM   19  C   UNL     1       8.646  30.996  59.892  1.00  0.00    -0.021 A 
HETATM   20  C   UNL     1       7.680  31.719  59.218  1.00  0.00     0.076 A 
HETATM   21  C   UNL     1       8.725  31.036  61.271  1.00  0.00     0.017 A 
HETATM   22  C   UNL     1       6.770  32.522  59.872  1.00  0.00     0.044 A 
HETATM   23  O   UNL     1       7.662  31.475  57.864  1.00  0.00    -0.336 OA
HETATM   24  C   UNL     1       6.813  32.568  61.275  1.00  0.00    -0.053 A 
HETATM   25  C   UNL     1       7.789  31.811  61.979  1.00  0.00    -0.055 A 
HETATM   26  C   UNL     1       5.787  33.391  62.008  1.00  0.00     0.049 C 
HETATM   27  C   UNL     1       7.819  31.789  63.485  1.00  0.00     0.049 C 
ENDBRANCH   1  17
TORSDOF 3
ENDMDL
MODEL 9
REMARK VINA RESULT:      -8.6      6.799      9.662
REMARK  3 active torsions:
REMARK  status: ('A' for Active; 'I' for Inactive)
REMARK    1  A    between atoms: C_9  and  C_10 
REMARK       I    between atoms: C_10  and  N_11 
REMARK    2  A    between atoms: N_11  and  C_12 
REMARK    3  A    between atoms: C_14  and  C_15 
ROOT
HETATM    1  C   UNL     1       4.737  26.354  49.469  1.00  0.00     0.252 C 
HETATM    2  N   UNL     1       5.567  27.143  50.245  1.00  0.00    -0.325 N 
HETATM    3  O   UNL     1       4.005  25.453  49.873  1.00  0.00    -0.270 OA
HETATM    4  H   UNL     1       5.967  27.944  49.767  1.00  0.00     0.169 HD
ENDROOT
BRANCH   2   5
HETATM    5  C   UNL     1       6.033  26.890  51.546  1.00  0.00     0.035 A 
HETATM    6  C   UNL     1       6.610  25.681  51.943  1.00  0.00     0.042 A 
HETATM    7  C   UNL     1       7.152  25.528  53.229  1.00  0.00    -0.021 A 
HETATM    8  C   UNL     1       7.095  26.606  54.123  1.00  0.00     0.012 A 
HETATM    9  C   UNL     1       6.509  27.812  53.739  1.00  0.00     0.003 A 
HETATM   10  C   UNL     1       5.984  27.953  52.455  1.00  0.00     0.029 A 
BRANCH   7  11
HETATM   11  C   UNL     1       7.799  24.288  53.626  1.00  0.00     0.010 A 
HETATM   12  C   UNL     1       8.340  23.881  54.869  1.00  0.00     0.152 A 
HETATM   13  N   UNL     1       8.856  22.649  54.833  1.00  0.00    -0.187 NA
HETATM   14  N   UNL     1       8.651  22.263  53.562  1.00  0.00    -0.289 N 
HETATM   15  H   UNL     1       8.967  21.340  53.283  1.00  0.00     0.188 HD
HETATM   16  C   UNL     1       8.022  23.204  52.802  1.00  0.00     0.123 A 
ENDBRANCH   7  11
ENDBRANCH   2   5
BRANCH   1  17
HETATM   17  C   UNL     1       4.874  26.642  47.954  1.00  0.00     0.225 C 
HETATM   18  C   UNL     1       4.847  28.162  47.732  1.00  0.00     0.083 C 
HETATM   19  C   UNL     1       3.406  28.310  47.413  1.00  0.00    -0.021 A 
HETATM   20  C   UNL     1       2.897  27.081  47.040  1.00  0.00     0.076 A 
HETATM   21  C   UNL     1       2.596  29.428  47.454  1.00  0.00     0.017 A 
HETATM   22  C   UNL     1       1.579  26.909  46.675  1.00  0.00     0.044 A 
HETATM   23  O   UNL     1       3.803  26.054  47.169  1.00  0.00    -0.336 OA
HETATM   24  C   UNL     1       0.725  28.024  46.724  1.00  0.00    -0.053 A 
HETATM   25  C   UNL     1       1.235  29.288  47.128  1.00  0.00    -0.055 A 
HETATM   26  C   UNL     1      -0.730  27.841  46.388  1.00  0.00     0.049 C 
HETATM   27  C   UNL     1       0.331  30.487  47.253  1.00  0.00     0.049 C 
ENDBRANCH   1  17
TORSDOF 3
ENDMDL
MODEL 10
REMARK VINA RESULT:      -8.3      5.286     10.586
REMARK  3 active torsions:
REMARK  status: ('A' for Active; 'I' for Inactive)
REMARK    1  A    between atoms: C_9  and  C_10 
REMARK       I    between atoms: C_10  and  N_11 
REMARK    2  A    between atoms: N_11  and  C_12 
REMARK    3  A    between atoms: C_14  and  C_15 
ROOT
HETATM    1  C   UNL     1       4.658  32.886  60.329  1.00  0.00     0.252 C 
HETATM    2  N   UNL     1       5.471  31.964  60.962  1.00  0.00    -0.325 N 
HETATM    3  O   UNL     1       4.929  33.515  59.309  1.00  0.00    -0.270 OA
HETATM    4  H   UNL     1       5.019  31.420  61.690  1.00  0.00     0.169 HD
ENDROOT
BRANCH   2   5
HETATM    5  C   UNL     1       6.860  31.796  60.825  1.00  0.00     0.035 A 
HETATM    6  C   UNL     1       7.462  31.187  59.721  1.00  0.00     0.042 A 
HETATM    7  C   UNL     1       8.861  31.144  59.594  1.00  0.00    -0.021 A 
HETATM    8  C   UNL     1       9.651  31.712  60.603  1.00  0.00     0.012 A 
HETATM    9  C   UNL     1       9.057  32.310  61.714  1.00  0.00     0.003 A 
HETATM   10  C   UNL     1       7.668  32.354  61.822  1.00  0.00     0.029 A 
BRANCH   7  11
HETATM   11  C   UNL     1       9.488  30.558  58.422  1.00  0.00     0.010 A 
HETATM   12  C   UNL     1      10.656  30.928  57.712  1.00  0.00     0.152 A 
HETATM   13  N   UNL     1      10.907  30.128  56.672  1.00  0.00    -0.187 NA
HETATM   14  N   UNL     1       9.898  29.242  56.710  1.00  0.00    -0.289 N 
HETATM   15  H   UNL     1       9.868  28.516  56.001  1.00  0.00     0.188 HD
HETATM   16  C   UNL     1       9.026  29.454  57.736  1.00  0.00     0.123 A 
ENDBRANCH   7  11
ENDBRANCH   2   5
BRANCH   1  17
HETATM   17  C   UNL     1       3.339  33.153  61.095  1.00  0.00     0.225 C 
HETATM   18  C   UNL     1       3.057  34.663  61.087  1.00  0.00     0.083 C 
HETATM   19  C   UNL     1       3.642  35.002  62.407  1.00  0.00    -0.021 A 
HETATM   20  C   UNL     1       3.742  33.851  63.165  1.00  0.00     0.076 A 
HETATM   21  C   UNL     1       4.066  36.218  62.907  1.00  0.00     0.017 A 
HETATM   22  C   UNL     1       4.244  33.856  64.449  1.00  0.00     0.044 A 
HETATM   23  O   UNL     1       3.390  32.713  62.478  1.00  0.00    -0.336 OA
HETATM   24  C   UNL     1       4.700  35.074  64.979  1.00  0.00    -0.053 A 
HETATM   25  C   UNL     1       4.622  36.260  64.198  1.00  0.00    -0.055 A 
HETATM   26  C   UNL     1       5.308  35.087  66.356  1.00  0.00     0.049 C 
HETATM   27  C   UNL     1       5.163  37.568  64.714  1.00  0.00     0.049 C 
ENDBRANCH   1  17
TORSDOF 3
ENDMDL
