MODEL 1
REMARK VINA RESULT:      -9.5      0.000      0.000
REMARK  3 active torsions:
REMARK  status: ('A' for Active; 'I' for Inactive)
REMARK    1  A    between atoms: C_6  and  O_7 
REMARK    2  A    between atoms: O_7  and  C_8 
REMARK       I    between atoms: N_10  and  C_11 
REMARK       I    between atoms: C_11  and  N_12 
REMARK    3  A    between atoms: N_12  and  C_13 
ROOT
HETATM    1  C   UNL     1       7.128  25.650  53.758  1.00  0.00     0.148 C 
HETATM    2  C   UNL     1       7.617  27.097  53.932  1.00  0.00     0.160 C 
HETATM    3  N   UNL     1       6.924  27.581  55.123  1.00  0.00    -0.331 N 
HETATM    4  C   UNL     1       7.418  28.667  55.822  1.00  0.00     0.323 C 
HETATM    5  N   UNL     1       6.791  28.888  57.027  1.00  0.00    -0.309 N 
HETATM    6  O   UNL     1       8.347  29.331  55.370  1.00  0.00    -0.247 OA
HETATM    7  C   UNL     1       5.852  26.674  55.495  1.00  0.00     0.130 C 
HETATM    8  C   UNL     1       5.700  25.741  54.301  1.00  0.00     0.054 C 
HETATM    9  H   UNL     1       6.036  28.264  57.253  1.00  0.00     0.170 HD
ENDROOT
BRANCH   5  10
HETATM   10  C   UNL     1       7.110  29.840  58.019  1.00  0.00     0.037 A 
HETATM   11  C   UNL     1       8.163  29.696  58.929  1.00  0.00     0.043 A 
HETATM   12  C   UNL     1       8.386  30.689  59.907  1.00  0.00    -0.006 A 
HETATM   13  C   UNL     1       7.548  31.802  59.943  1.00  0.00     0.042 A 
HETATM   14  C   UNL     1       9.334  30.847  60.956  1.00  0.00     0.030 A 
HETATM   15  N   UNL     1       7.976  32.599  60.982  1.00  0.00    -0.365 N 
HETATM   16  C   UNL     1       6.493  31.977  59.045  1.00  0.00     0.033 A 
HETATM   17  H   UNL     1       7.548  33.476  61.245  1.00  0.00     0.165 HD
HETATM   18  C   UNL     1       9.056  32.029  61.601  1.00  0.00     0.089 A 
HETATM   19  C   UNL     1       6.293  30.977  58.086  1.00  0.00     0.032 A 
ENDBRANCH   5  10
BRANCH   1  20
HETATM   20  O   UNL     1       7.947  24.816  54.586  1.00  0.00    -0.344 OA
BRANCH  20  21
HETATM   21  C   UNL     1       7.921  23.463  54.410  1.00  0.00     0.070 A 
HETATM   22  C   UNL     1       7.893  22.499  55.414  1.00  0.00     0.060 A 
HETATM   23  C   UNL     1       7.894  21.144  55.071  1.00  0.00     0.036 A 
HETATM   24  C   UNL     1       7.917  20.744  53.736  1.00  0.00     0.024 A 
HETATM   25 CL   UNL     1       7.876  19.952  56.314  1.00  0.00    -0.084 Cl
HETATM   26  C   UNL     1       7.934  21.706  52.731  1.00  0.00     0.004 A 
HETATM   27  C   UNL     1       7.936  23.060  53.070  1.00  0.00     0.037 A 
ENDBRANCH  20  21
ENDBRANCH   1  20
TORSDOF 3
ENDMDL
MODEL 2
REMARK VINA RESULT:      -9.3      4.083      7.485
REMARK  3 active torsions:
REMARK  status: ('A' for Active; 'I' for Inactive)
REMARK    1  A    between atoms: C_6  and  O_7 
REMARK    2  A    between atoms: O_7  and  C_8 
REMARK       I    between atoms: N_10  and  C_11 
REMARK       I    between atoms: C_11  and  N_12 
REMARK    3  A    between atoms: N_12  and  C_13 
ROOT
HETATM    1  C   UNL     1       7.548  24.941  56.599  1.00  0.00     0.148 C 
HETATM    2  C   UNL     1       6.205  24.822  55.863  1.00  0.00     0.160 C 
HETATM    3  N   UNL     1       6.166  25.981  54.975  1.00  0.00    -0.331 N 
HETATM    4  C   UNL     1       5.330  25.986  53.874  1.00  0.00     0.323 C 
HETATM    5  N   UNL     1       5.540  27.042  53.016  1.00  0.00    -0.309 N 
HETATM    6  O   UNL     1       4.501  25.093  53.714  1.00  0.00    -0.247 OA
HETATM    7  C   UNL     1       7.208  26.930  55.327  1.00  0.00     0.130 C 
HETATM    8  C   UNL     1       7.722  26.459  56.680  1.00  0.00     0.054 C 
HETATM    9  H   UNL     1       6.248  27.700  53.292  1.00  0.00     0.170 HD
ENDROOT
BRANCH   5  10
HETATM   10  C   UNL     1       4.934  27.290  51.766  1.00  0.00     0.037 A 
HETATM   11  C   UNL     1       5.142  26.503  50.628  1.00  0.00     0.043 A 
HETATM   12  C   UNL     1       4.514  26.849  49.412  1.00  0.00    -0.006 A 
HETATM   13  C   UNL     1       3.691  27.972  49.371  1.00  0.00     0.042 A 
HETATM   14  C   UNL     1       4.517  26.286  48.105  1.00  0.00     0.030 A 
HETATM   15  N   UNL     1       3.219  28.084  48.083  1.00  0.00    -0.365 N 
HETATM   16  C   UNL     1       3.459  28.773  50.492  1.00  0.00     0.033 A 
HETATM   17  H   UNL     1       2.599  28.814  47.761  1.00  0.00     0.165 HD
HETATM   18  C   UNL     1       3.713  27.068  47.309  1.00  0.00     0.089 A 
HETATM   19  C   UNL     1       4.094  28.409  51.685  1.00  0.00     0.032 A 
ENDBRANCH   5  10
BRANCH   1  20
HETATM   20  O   UNL     1       8.551  24.347  55.765  1.00  0.00    -0.344 OA
BRANCH  20  21
HETATM   21  C   UNL     1       8.501  23.009  55.504  1.00  0.00     0.070 A 
HETATM   22  C   UNL     1       8.493  22.412  54.245  1.00  0.00     0.060 A 
HETATM   23  C   UNL     1       8.413  21.020  54.143  1.00  0.00     0.036 A 
HETATM   24  C   UNL     1       8.347  20.221  55.282  1.00  0.00     0.024 A 
HETATM   25 CL   UNL     1       8.387  20.284  52.586  1.00  0.00    -0.084 Cl
HETATM   26  C   UNL     1       8.365  20.815  56.541  1.00  0.00     0.004 A 
HETATM   27  C   UNL     1       8.442  22.204  56.647  1.00  0.00     0.037 A 
ENDBRANCH  20  21
ENDBRANCH   1  20
TORSDOF 3
ENDMDL
MODEL 3
REMARK VINA RESULT:      -9.2      3.159      9.038
REMARK  3 active torsions:
REMARK  status: ('A' for Active; 'I' for Inactive)
REMARK    1  A    between atoms: C_6  and  O_7 
REMARK    2  A    between atoms: O_7  and  C_8 
REMARK       I    between atoms: N_10  and  C_11 
REMARK       I    between atoms: C_11  and  N_12 
REMARK    3  A    between atoms: N_12  and  C_13 
ROOT
HETATM    1  C   UNL     1       5.620  29.591  56.833  1.00  0.00     0.148 C 
HETATM    2  C   UNL     1       5.264  28.120  57.100  1.00  0.00     0.160 C 
HETATM    3  N   UNL     1       5.725  27.406  55.913  1.00  0.00    -0.331 N 
HETATM    4  C   UNL     1       5.959  26.044  55.967  1.00  0.00     0.323 C 
HETATM    5  N   UNL     1       6.579  25.538  54.846  1.00  0.00    -0.309 N 
HETATM    6  O   UNL     1       5.639  25.393  56.958  1.00  0.00    -0.247 OA
HETATM    7  C   UNL     1       6.042  28.339  54.846  1.00  0.00     0.130 C 
HETATM    8  C   UNL     1       5.471  29.671  55.312  1.00  0.00     0.054 C 
HETATM    9  H   UNL     1       6.767  26.197  54.111  1.00  0.00     0.170 HD
ENDROOT
BRANCH   5  10
HETATM   10  C   UNL     1       7.044  24.225  54.620  1.00  0.00     0.037 A 
HETATM   11  C   UNL     1       7.333  23.313  55.641  1.00  0.00     0.043 A 
HETATM   12  C   UNL     1       7.824  22.029  55.315  1.00  0.00    -0.006 A 
HETATM   13  C   UNL     1       8.006  21.694  53.975  1.00  0.00     0.042 A 
HETATM   14  C   UNL     1       8.213  20.897  56.085  1.00  0.00     0.030 A 
HETATM   15  N   UNL     1       8.493  20.407  53.940  1.00  0.00    -0.365 N 
HETATM   16  C   UNL     1       7.720  22.581  52.934  1.00  0.00     0.033 A 
HETATM   17  H   UNL     1       8.722  19.904  53.095  1.00  0.00     0.165 HD
HETATM   18  C   UNL     1       8.621  19.916  55.212  1.00  0.00     0.089 A 
HETATM   19  C   UNL     1       7.236  23.848  53.284  1.00  0.00     0.032 A 
ENDBRANCH   5  10
BRANCH   1  20
HETATM   20  O   UNL     1       6.983  29.784  57.232  1.00  0.00    -0.344 OA
BRANCH  20  21
HETATM   21  C   UNL     1       7.254  30.458  58.387  1.00  0.00     0.070 A 
HETATM   22  C   UNL     1       8.229  30.129  59.326  1.00  0.00     0.060 A 
HETATM   23  C   UNL     1       8.368  30.909  60.478  1.00  0.00     0.036 A 
HETATM   24  C   UNL     1       7.550  32.015  60.697  1.00  0.00     0.024 A 
HETATM   25 CL   UNL     1       9.562  30.491  61.647  1.00  0.00    -0.084 Cl
HETATM   26  C   UNL     1       6.582  32.351  59.754  1.00  0.00     0.004 A 
HETATM   27  C   UNL     1       6.438  31.574  58.605  1.00  0.00     0.037 A 
ENDBRANCH  20  21
ENDBRANCH   1  20
TORSDOF 3
ENDMDL
MODEL 4
REMARK VINA RESULT:      -9.1      4.089      7.681
REMARK  3 active torsions:
REMARK  status: ('A' for Active; 'I' for Inactive)
REMARK    1  A    between atoms: C_6  and  O_7 
REMARK    2  A    between atoms: O_7  and  C_8 
REMARK       I    between atoms: N_10  and  C_11 
REMARK       I    between atoms: C_11  and  N_12 
REMARK    3  A    between atoms: N_12  and  C_13 
ROOT
HETATM    1  C   UNL     1       7.285  25.170  56.317  1.00  0.00     0.148 C 
HETATM    2  C   UNL     1       5.985  24.991  55.517  1.00  0.00     0.160 C 
HETATM    3  N   UNL     1       5.965  26.117  54.587  1.00  0.00    -0.331 N 
HETATM    4  C   UNL     1       5.188  26.063  53.444  1.00  0.00     0.323 C 
HETATM    5  N   UNL     1       5.417  27.094  52.562  1.00  0.00    -0.309 N 
HETATM    6  O   UNL     1       4.391  25.143  53.274  1.00  0.00    -0.247 OA
HETATM    7  C   UNL     1       6.963  27.105  54.958  1.00  0.00     0.130 C 
HETATM    8  C   UNL     1       7.417  26.694  56.352  1.00  0.00     0.054 C 
HETATM    9  H   UNL     1       6.093  27.779  52.850  1.00  0.00     0.170 HD
ENDROOT
BRANCH   5  10
HETATM   10  C   UNL     1       4.872  27.283  51.274  1.00  0.00     0.037 A 
HETATM   11  C   UNL     1       4.117  28.401  50.903  1.00  0.00     0.043 A 
HETATM   12  C   UNL     1       3.586  28.487  49.598  1.00  0.00    -0.006 A 
HETATM   13  C   UNL     1       3.830  27.450  48.699  1.00  0.00     0.042 A 
HETATM   14  C   UNL     1       2.793  29.452  48.916  1.00  0.00     0.030 A 
HETATM   15  N   UNL     1       3.202  27.779  47.519  1.00  0.00    -0.365 N 
HETATM   16  C   UNL     1       4.585  26.325  49.038  1.00  0.00     0.033 A 
HETATM   17  H   UNL     1       3.207  27.205  46.688  1.00  0.00     0.165 HD
HETATM   18  C   UNL     1       2.572  28.989  47.640  1.00  0.00     0.089 A 
HETATM   19  C   UNL     1       5.099  26.264  50.339  1.00  0.00     0.032 A 
ENDBRANCH   5  10
BRANCH   1  20
HETATM   20  O   UNL     1       8.344  24.574  55.557  1.00  0.00    -0.344 OA
BRANCH  20  21
HETATM   21  C   UNL     1       8.363  23.222  55.376  1.00  0.00     0.070 A 
HETATM   22  C   UNL     1       8.372  22.551  54.156  1.00  0.00     0.060 A 
HETATM   23  C   UNL     1       8.365  21.153  54.137  1.00  0.00     0.036 A 
HETATM   24  C   UNL     1       8.356  20.421  55.323  1.00  0.00     0.024 A 
HETATM   25 CL   UNL     1       8.360  20.325  52.627  1.00  0.00    -0.084 Cl
HETATM   26  C   UNL     1       8.357  21.091  56.543  1.00  0.00     0.004 A 
HETATM   27  C   UNL     1       8.361  22.486  56.566  1.00  0.00     0.037 A 
ENDBRANCH  20  21
ENDBRANCH   1  20
TORSDOF 3
ENDMDL
MODEL 5
REMARK VINA RESULT:      -8.7      2.676      4.071
REMARK  3 active torsions:
REMARK  status: ('A' for Active; 'I' for Inactive)
REMARK    1  A    between atoms: C_6  and  O_7 
REMARK    2  A    between atoms: O_7  and  C_8 
REMARK       I    between atoms: N_10  and  C_11 
REMARK       I    between atoms: C_11  and  N_12 
REMARK    3  A    between atoms: N_12  and  C_13 
ROOT
HETATM    1  C   UNL     1       8.319  28.175  56.370  1.00  0.00     0.148 C 
HETATM    2  C   UNL     1       9.085  29.192  57.230  1.00  0.00     0.160 C 
HETATM    3  N   UNL     1       8.045  29.952  57.919  1.00  0.00    -0.331 N 
HETATM    4  C   UNL     1       8.344  30.653  59.073  1.00  0.00     0.323 C 
HETATM    5  N   UNL     1       7.239  31.152  59.726  1.00  0.00    -0.309 N 
HETATM    6  O   UNL     1       9.507  30.774  59.447  1.00  0.00    -0.247 OA
HETATM    7  C   UNL     1       6.744  29.690  57.328  1.00  0.00     0.130 C 
HETATM    8  C   UNL     1       7.048  28.955  56.029  1.00  0.00     0.054 C 
HETATM    9  H   UNL     1       6.352  30.980  59.286  1.00  0.00     0.170 HD
ENDROOT
BRANCH   5  10
HETATM   10  C   UNL     1       7.184  31.821  60.967  1.00  0.00     0.037 A 
HETATM   11  C   UNL     1       6.436  32.982  61.194  1.00  0.00     0.043 A 
HETATM   12  C   UNL     1       6.467  33.599  62.464  1.00  0.00    -0.006 A 
HETATM   13  C   UNL     1       7.244  33.032  63.472  1.00  0.00     0.042 A 
HETATM   14  C   UNL     1       5.850  34.756  63.014  1.00  0.00     0.030 A 
HETATM   15  N   UNL     1       7.102  33.824  64.589  1.00  0.00    -0.365 N 
HETATM   16  C   UNL     1       7.995  31.870  63.277  1.00  0.00     0.033 A 
HETATM   17  H   UNL     1       7.558  33.654  65.474  1.00  0.00     0.165 HD
HETATM   18  C   UNL     1       6.260  34.871  64.322  1.00  0.00     0.089 A 
HETATM   19  C   UNL     1       7.948  31.279  62.008  1.00  0.00     0.032 A 
ENDBRANCH   5  10
BRANCH   1  20
HETATM   20  O   UNL     1       8.027  27.043  57.200  1.00  0.00    -0.344 OA
BRANCH  20  21
HETATM   21  C   UNL     1       7.998  25.796  56.648  1.00  0.00     0.070 A 
HETATM   22  C   UNL     1       7.489  25.458  55.396  1.00  0.00     0.060 A 
HETATM   23  C   UNL     1       7.509  24.123  54.980  1.00  0.00     0.036 A 
HETATM   24  C   UNL     1       8.038  23.127  55.798  1.00  0.00     0.024 A 
HETATM   25 CL   UNL     1       6.864  23.704  53.440  1.00  0.00    -0.084 Cl
HETATM   26  C   UNL     1       8.557  23.464  57.045  1.00  0.00     0.004 A 
HETATM   27  C   UNL     1       8.536  24.795  57.464  1.00  0.00     0.037 A 
ENDBRANCH  20  21
ENDBRANCH   1  20
TORSDOF 3
ENDMDL
MODEL 6
REMARK VINA RESULT:      -8.7      1.362      1.787
REMARK  3 active torsions:
REMARK  status: ('A' for Active; 'I' for Inactive)
REMARK    1  A    between atoms: C_6  and  O_7 
REMARK    2  A    between atoms: O_7  and  C_8 
REMARK       I    between atoms: N_10  and  C_11 
REMARK       I    between atoms: C_11  and  N_12 
REMARK    3  A    between atoms: N_12  and  C_13 
ROOT
HETATM    1  C   UNL     1       5.763  26.475  53.558  1.00  0.00     0.148 C 
HETATM    2  C   UNL     1       6.916  27.373  54.035  1.00  0.00     0.160 C 
HETATM    3  N   UNL     1       6.290  28.327  54.946  1.00  0.00    -0.331 N 
HETATM    4  C   UNL     1       7.055  29.005  55.878  1.00  0.00     0.323 C 
HETATM    5  N   UNL     1       6.318  29.713  56.799  1.00  0.00    -0.309 N 
HETATM    6  O   UNL     1       8.281  28.933  55.850  1.00  0.00    -0.247 OA
HETATM    7  C   UNL     1       4.844  28.276  54.825  1.00  0.00     0.130 C 
HETATM    8  C   UNL     1       4.587  27.455  53.569  1.00  0.00     0.054 C 
HETATM    9  H   UNL     1       5.320  29.684  56.681  1.00  0.00     0.170 HD
ENDROOT
BRANCH   5  10
HETATM   10  C   UNL     1       6.776  30.425  57.927  1.00  0.00     0.037 A 
HETATM   11  C   UNL     1       7.839  30.006  58.736  1.00  0.00     0.043 A 
HETATM   12  C   UNL     1       8.205  30.771  59.864  1.00  0.00    -0.006 A 
HETATM   13  C   UNL     1       7.500  31.939  60.148  1.00  0.00     0.042 A 
HETATM   14  C   UNL     1       9.202  30.632  60.870  1.00  0.00     0.030 A 
HETATM   15  N   UNL     1       8.050  32.480  61.289  1.00  0.00    -0.365 N 
HETATM   16  C   UNL     1       6.439  32.386  59.356  1.00  0.00     0.033 A 
HETATM   17  H   UNL     1       7.732  33.331  61.730  1.00  0.00     0.165 HD
HETATM   18  C   UNL     1       9.081  31.696  61.733  1.00  0.00     0.089 A 
HETATM   19  C   UNL     1       6.095  31.608  58.244  1.00  0.00     0.032 A 
ENDBRANCH   5  10
BRANCH   1  20
HETATM   20  O   UNL     1       5.588  25.443  54.537  1.00  0.00    -0.344 OA
BRANCH  20  21
HETATM   21  C   UNL     1       6.534  24.467  54.659  1.00  0.00     0.070 A 
HETATM   22  C   UNL     1       6.886  23.532  53.688  1.00  0.00     0.060 A 
HETATM   23  C   UNL     1       7.863  22.574  53.976  1.00  0.00     0.036 A 
HETATM   24  C   UNL     1       8.494  22.545  55.218  1.00  0.00     0.024 A 
HETATM   25 CL   UNL     1       8.286  21.408  52.781  1.00  0.00    -0.084 Cl
HETATM   26  C   UNL     1       8.150  23.485  56.185  1.00  0.00     0.004 A 
HETATM   27  C   UNL     1       7.174  24.441  55.903  1.00  0.00     0.037 A 
ENDBRANCH  20  21
ENDBRANCH   1  20
TORSDOF 3
ENDMDL
MODEL 7
REMARK VINA RESULT:      -8.6      1.422      2.107
REMARK  3 active torsions:
REMARK  status: ('A' for Active; 'I' for Inactive)
REMARK    1  A    between atoms: C_6  and  O_7 
REMARK    2  A    between atoms: O_7  and  C_8 
REMARK       I    between atoms: N_10  and  C_11 
REMARK       I    between atoms: C_11  and  N_12 
REMARK    3  A    between atoms: N_12  and  C_13 
ROOT
HETATM    1  C   UNL     1       7.118  27.331  54.074  1.00  0.00     0.148 C 
HETATM    2  C   UNL     1       8.136  28.219  54.806  1.00  0.00     0.160 C 
HETATM    3  N   UNL     1       7.334  29.021  55.726  1.00  0.00    -0.331 N 
HETATM    4  C   UNL     1       7.924  29.616  56.826  1.00  0.00     0.323 C 
HETATM    5  N   UNL     1       7.026  30.166  57.713  1.00  0.00    -0.309 N 
HETATM    6  O   UNL     1       9.145  29.610  56.960  1.00  0.00    -0.247 OA
HETATM    7  C   UNL     1       5.923  28.913  55.401  1.00  0.00     0.130 C 
HETATM    8  C   UNL     1       5.888  28.241  54.035  1.00  0.00     0.054 C 
HETATM    9  H   UNL     1       6.057  30.102  57.456  1.00  0.00     0.170 HD
ENDROOT
BRANCH   5  10
HETATM   10  C   UNL     1       7.285  30.755  58.969  1.00  0.00     0.037 A 
HETATM   11  C   UNL     1       6.507  31.777  59.526  1.00  0.00     0.043 A 
HETATM   12  C   UNL     1       6.863  32.325  60.777  1.00  0.00    -0.006 A 
HETATM   13  C   UNL     1       7.987  31.832  61.437  1.00  0.00     0.042 A 
HETATM   14  C   UNL     1       6.311  33.347  61.600  1.00  0.00     0.030 A 
HETATM   15  N   UNL     1       8.109  32.536  62.614  1.00  0.00    -0.365 N 
HETATM   16  C   UNL     1       8.778  30.809  60.909  1.00  0.00     0.033 A 
HETATM   17  H   UNL     1       8.842  32.392  63.295  1.00  0.00     0.165 HD
HETATM   18  C   UNL     1       7.099  33.455  62.722  1.00  0.00     0.089 A 
HETATM   19  C   UNL     1       8.404  30.283  59.666  1.00  0.00     0.032 A 
ENDBRANCH   5  10
BRANCH   1  20
HETATM   20  O   UNL     1       6.885  26.178  54.892  1.00  0.00    -0.344 OA
BRANCH  20  21
HETATM   21  C   UNL     1       7.210  24.941  54.417  1.00  0.00     0.070 A 
HETATM   22  C   UNL     1       7.253  23.758  55.152  1.00  0.00     0.060 A 
HETATM   23  C   UNL     1       7.632  22.568  54.522  1.00  0.00     0.036 A 
HETATM   24  C   UNL     1       7.960  22.548  53.168  1.00  0.00     0.024 A 
HETATM   25 CL   UNL     1       7.701  21.110  55.435  1.00  0.00    -0.084 Cl
HETATM   26  C   UNL     1       7.907  23.727  52.430  1.00  0.00     0.004 A 
HETATM   27  C   UNL     1       7.533  24.917  53.056  1.00  0.00     0.037 A 
ENDBRANCH  20  21
ENDBRANCH   1  20
TORSDOF 3
ENDMDL
MODEL 8
REMARK VINA RESULT:      -8.5      5.934      8.900
REMARK  3 active torsions:
REMARK  status: ('A' for Active; 'I' for Inactive)
REMARK    1  A    between atoms: C_6  and  O_7 
REMARK    2  A    between atoms: O_7  and  C_8 
REMARK       I    between atoms: N_10  and  C_11 
REMARK       I    between atoms: C_11  and  N_12 
REMARK    3  A    between atoms: N_12  and  C_13 
ROOT
HETATM    1  C   UNL     1       5.271  28.694  51.698  1.00  0.00     0.148 C 
HETATM    2  C   UNL     1       6.337  28.189  52.683  1.00  0.00     0.160 C 
HETATM    3  N   UNL     1       5.913  26.834  53.025  1.00  0.00    -0.331 N 
HETATM    4  C   UNL     1       6.823  25.929  53.540  1.00  0.00     0.323 C 
HETATM    5  N   UNL     1       6.345  24.642  53.625  1.00  0.00    -0.309 N 
HETATM    6  O   UNL     1       7.952  26.293  53.861  1.00  0.00    -0.247 OA
HETATM    7  C   UNL     1       4.551  26.597  52.579  1.00  0.00     0.130 C 
HETATM    8  C   UNL     1       4.019  27.973  52.204  1.00  0.00     0.054 C 
HETATM    9  H   UNL     1       5.392  24.505  53.335  1.00  0.00     0.170 HD
ENDROOT
BRANCH   5  10
HETATM   10  C   UNL     1       7.037  23.474  54.009  1.00  0.00     0.037 A 
HETATM   11  C   UNL     1       7.281  23.113  55.339  1.00  0.00     0.043 A 
HETATM   12  C   UNL     1       8.011  21.938  55.624  1.00  0.00    -0.006 A 
HETATM   13  C   UNL     1       8.472  21.155  54.567  1.00  0.00     0.042 A 
HETATM   14  C   UNL     1       8.430  21.304  56.826  1.00  0.00     0.030 A 
HETATM   15  N   UNL     1       9.148  20.089  55.116  1.00  0.00    -0.365 N 
HETATM   16  C   UNL     1       8.237  21.486  53.230  1.00  0.00     0.033 A 
HETATM   17  H   UNL     1       9.595  19.357  54.581  1.00  0.00     0.165 HD
HETATM   18  C   UNL     1       9.128  20.170  56.483  1.00  0.00     0.089 A 
HETATM   19  C   UNL     1       7.512  22.656  52.975  1.00  0.00     0.032 A 
ENDBRANCH   5  10
BRANCH   1  20
HETATM   20  O   UNL     1       5.641  28.237  50.391  1.00  0.00    -0.344 OA
BRANCH  20  21
HETATM   21  C   UNL     1       4.738  28.317  49.372  1.00  0.00     0.070 A 
HETATM   22  C   UNL     1       4.135  29.477  48.891  1.00  0.00     0.060 A 
HETATM   23  C   UNL     1       3.205  29.391  47.850  1.00  0.00     0.036 A 
HETATM   24  C   UNL     1       2.878  28.161  47.283  1.00  0.00     0.024 A 
HETATM   25 CL   UNL     1       2.448  30.823  47.267  1.00  0.00    -0.084 Cl
HETATM   26  C   UNL     1       3.487  27.002  47.755  1.00  0.00     0.004 A 
HETATM   27  C   UNL     1       4.414  27.084  48.795  1.00  0.00     0.037 A 
ENDBRANCH  20  21
ENDBRANCH   1  20
TORSDOF 3
ENDMDL
MODEL 9
REMARK VINA RESULT:      -8.5      5.213      8.935
REMARK  3 active torsions:
REMARK  status: ('A' for Active; 'I' for Inactive)
REMARK    1  A    between atoms: C_6  and  O_7 
REMARK    2  A    between atoms: O_7  and  C_8 
REMARK       I    between atoms: N_10  and  C_11 
REMARK       I    between atoms: C_11  and  N_12 
REMARK    3  A    between atoms: N_12  and  C_13 
ROOT
HETATM    1  C   UNL     1       6.627  26.449  54.634  1.00  0.00     0.148 C 
HETATM    2  C   UNL     1       5.518  27.317  54.021  1.00  0.00     0.160 C 
HETATM    3  N   UNL     1       5.629  27.097  52.581  1.00  0.00    -0.331 N 
HETATM    4  C   UNL     1       4.558  27.368  51.751  1.00  0.00     0.323 C 
HETATM    5  N   UNL     1       4.727  26.928  50.458  1.00  0.00    -0.309 N 
HETATM    6  O   UNL     1       3.560  27.939  52.184  1.00  0.00    -0.247 OA
HETATM    7  C   UNL     1       6.877  26.426  52.262  1.00  0.00     0.130 C 
HETATM    8  C   UNL     1       7.698  26.500  53.542  1.00  0.00     0.054 C 
HETATM    9  H   UNL     1       5.607  26.489  50.252  1.00  0.00     0.170 HD
ENDROOT
BRANCH   5  10
HETATM   10  C   UNL     1       3.799  26.956  49.394  1.00  0.00     0.037 A 
HETATM   11  C   UNL     1       3.049  28.084  49.043  1.00  0.00     0.043 A 
HETATM   12  C   UNL     1       2.122  28.006  47.981  1.00  0.00    -0.006 A 
HETATM   13  C   UNL     1       1.975  26.801  47.298  1.00  0.00     0.042 A 
HETATM   14  C   UNL     1       1.221  28.934  47.387  1.00  0.00     0.030 A 
HETATM   15  N   UNL     1       1.016  26.996  46.330  1.00  0.00    -0.365 N 
HETATM   16  C   UNL     1       2.715  25.660  47.621  1.00  0.00     0.033 A 
HETATM   17  H   UNL     1       0.702  26.286  45.683  1.00  0.00     0.165 HD
HETATM   18  C   UNL     1       0.554  28.284  46.375  1.00  0.00     0.089 A 
HETATM   19  C   UNL     1       3.627  25.764  48.679  1.00  0.00     0.032 A 
ENDBRANCH   5  10
BRANCH   1  20
HETATM   20  O   UNL     1       6.103  25.123  54.786  1.00  0.00    -0.344 OA
BRANCH  20  21
HETATM   21  C   UNL     1       6.962  24.076  54.946  1.00  0.00     0.070 A 
HETATM   22  C   UNL     1       7.262  23.100  53.998  1.00  0.00     0.060 A 
HETATM   23  C   UNL     1       8.150  22.071  54.324  1.00  0.00     0.036 A 
HETATM   24  C   UNL     1       8.744  22.011  55.583  1.00  0.00     0.024 A 
HETATM   25 CL   UNL     1       8.508  20.856  53.157  1.00  0.00    -0.084 Cl
HETATM   26  C   UNL     1       8.453  22.991  56.528  1.00  0.00     0.004 A 
HETATM   27  C   UNL     1       7.566  24.018  56.207  1.00  0.00     0.037 A 
ENDBRANCH  20  21
ENDBRANCH   1  20
TORSDOF 3
ENDMDL
MODEL 10
REMARK VINA RESULT:      -8.3      5.924      9.163
REMARK  3 active torsions:
REMARK  status: ('A' for Active; 'I' for Inactive)
REMARK    1  A    between atoms: C_6  and  O_7 
REMARK    2  A    between atoms: O_7  and  C_8 
REMARK       I    between atoms: N_10  and  C_11 
REMARK       I    between atoms: C_11  and  N_12 
REMARK    3  A    between atoms: N_12  and  C_13 
ROOT
HETATM    1  C   UNL     1       4.460  28.903  51.672  1.00  0.00     0.148 C 
HETATM    2  C   UNL     1       5.834  28.434  52.175  1.00  0.00     0.160 C 
HETATM    3  N   UNL     1       5.545  27.276  53.017  1.00  0.00    -0.331 N 
HETATM    4  C   UNL     1       6.536  26.352  53.294  1.00  0.00     0.323 C 
HETATM    5  N   UNL     1       6.081  25.216  53.923  1.00  0.00    -0.309 N 
HETATM    6  O   UNL     1       7.701  26.569  52.970  1.00  0.00    -0.247 OA
HETATM    7  C   UNL     1       4.123  27.195  53.304  1.00  0.00     0.130 C 
HETATM    8  C   UNL     1       3.558  28.535  52.853  1.00  0.00     0.054 C 
HETATM    9  H   UNL     1       5.099  25.192  54.135  1.00  0.00     0.170 HD
ENDROOT
BRANCH   5  10
HETATM   10  C   UNL     1       6.803  24.050  54.255  1.00  0.00     0.037 A 
HETATM   11  C   UNL     1       7.112  23.036  53.340  1.00  0.00     0.043 A 
HETATM   12  C   UNL     1       7.813  21.890  53.774  1.00  0.00    -0.006 A 
HETATM   13  C   UNL     1       8.190  21.794  55.112  1.00  0.00     0.042 A 
HETATM   14  C   UNL     1       8.268  20.708  53.127  1.00  0.00     0.030 A 
HETATM   15  N   UNL     1       8.843  20.592  55.265  1.00  0.00    -0.365 N 
HETATM   16  C   UNL     1       7.902  22.791  56.047  1.00  0.00     0.033 A 
HETATM   17  H   UNL     1       9.225  20.254  56.138  1.00  0.00     0.165 HD
HETATM   18  C   UNL     1       8.896  19.927  54.069  1.00  0.00     0.089 A 
HETATM   19  C   UNL     1       7.204  23.917  55.591  1.00  0.00     0.032 A 
ENDBRANCH   5  10
BRANCH   1  20
HETATM   20  O   UNL     1       4.138  28.125  50.511  1.00  0.00    -0.344 OA
BRANCH  20  21
HETATM   21  C   UNL     1       3.179  28.572  49.650  1.00  0.00     0.070 A 
HETATM   22  C   UNL     1       2.344  27.784  48.862  1.00  0.00     0.060 A 
HETATM   23  C   UNL     1       1.424  28.396  48.005  1.00  0.00     0.036 A 
HETATM   24  C   UNL     1       1.326  29.784  47.934  1.00  0.00     0.024 A 
HETATM   25 CL   UNL     1       0.403  27.420  47.019  1.00  0.00    -0.084 Cl
HETATM   26  C   UNL     1       2.153  30.573  48.728  1.00  0.00     0.004 A 
HETATM   27  C   UNL     1       3.074  29.966  49.582  1.00  0.00     0.037 A 
ENDBRANCH  20  21
ENDBRANCH   1  20
TORSDOF 3
ENDMDL
