MODEL 1
REMARK VINA RESULT:     -10.8      0.000      0.000
REMARK  7 active torsions:
REMARK  status: ('A' for Active; 'I' for Inactive)
REMARK    1  A    between atoms: C_3  and  C_4 
REMARK    2  A    between atoms: N_5  and  C_6 
REMARK    3  A    between atoms: C_9  and  N_10 
REMARK       I    between atoms: N_10  and  C_11 
REMARK       I    between atoms: C_11  and  N_12 
REMARK    4  A    between atoms: N_12  and  C_13 
REMARK    5  A    between atoms: C_15  and  C_16 
REMARK    6  A    between atoms: C_32  and  C_33 
REMARK    7  A    between atoms: C_33  and  N_34 
ROOT
HETATM    1  C   UNL     1       8.217  30.203  58.793  1.00  0.00     0.169 C 
HETATM    2  C   UNL     1       7.495  31.540  58.823  1.00  0.00     0.179 C 
HETATM    3  C   UNL     1       7.512  31.966  60.284  1.00  0.00     0.177 C 
HETATM    4  C   UNL     1       6.053  32.186  60.660  1.00  0.00     0.141 C 
HETATM    5  C   UNL     1       5.336  32.199  59.312  1.00  0.00     0.196 C 
HETATM    6  O   UNL     1       6.122  31.387  58.421  1.00  0.00    -0.379 OA
HETATM    7  O   UNL     1       8.079  30.878  61.038  1.00  0.00    -0.379 OA
HETATM    8  C   UNL     1       8.953  30.191  60.128  1.00  0.00     0.198 C 
ENDROOT
BRANCH   1   9
HETATM    9  N   UNL     1       9.039  30.028  57.624  1.00  0.00    -0.221 N 
HETATM   10  C   UNL     1       8.781  29.382  56.432  1.00  0.00     0.182 A 
HETATM   11  N   UNL     1       9.794  29.652  55.624  1.00  0.00    -0.108 NA
HETATM   12  N   UNL     1      10.672  30.429  56.322  1.00  0.00    -0.023 NA
HETATM   13  N   UNL     1      10.216  30.674  57.536  1.00  0.00    -0.043 NA
BRANCH  10  14
HETATM   14  C   UNL     1       7.604  28.614  56.023  1.00  0.00     0.014 A 
HETATM   15  C   UNL     1       6.368  29.189  55.715  1.00  0.00     0.015 A 
HETATM   16  C   UNL     1       5.278  28.389  55.360  1.00  0.00     0.002 A 
HETATM   17  C   UNL     1       5.396  27.000  55.339  1.00  0.00     0.009 A 
HETATM   18  C   UNL     1       6.606  26.392  55.692  1.00  0.00    -0.032 A 
HETATM   19  C   UNL     1       7.700  27.210  56.020  1.00  0.00     0.024 A 
BRANCH  18  20
HETATM   20  C   UNL     1       6.736  24.894  55.722  1.00  0.00     0.273 C 
BRANCH  20  21
HETATM   21  N   UNL     1       7.925  24.387  54.953  1.00  0.00    -0.067 N 
HETATM   22  H   UNL     1       8.731  24.944  55.262  1.00  0.00     0.280 HD
HETATM   23  C   UNL     1       7.796  24.559  53.452  1.00  0.00     0.235 C 
HETATM   24  C   UNL     1       7.829  23.150  52.897  1.00  0.00     0.029 C 
HETATM   25  C   UNL     1       8.733  22.417  53.866  1.00  0.00     0.029 C 
HETATM   26  C   UNL     1       8.265  22.931  55.213  1.00  0.00     0.235 C 
ENDBRANCH  20  21
ENDBRANCH  18  20
ENDBRANCH  10  14
ENDBRANCH   1   9
BRANCH   4  27
HETATM   27  N   UNL     1       5.826  33.349  61.514  1.00  0.00    -0.334 N 
HETATM   28  C   UNL     1       5.530  33.213  62.856  1.00  0.00     0.321 C 
HETATM   29  N   UNL     1       5.248  34.429  63.434  1.00  0.00    -0.309 N 
HETATM   30  O   UNL     1       5.542  32.120  63.409  1.00  0.00    -0.247 OA
HETATM   31  H   UNL     1       5.271  35.232  62.824  1.00  0.00     0.170 HD
HETATM   32  H   UNL     1       5.423  34.153  61.052  1.00  0.00     0.164 HD
BRANCH  29  33
HETATM   33  C   UNL     1       4.936  34.688  64.785  1.00  0.00     0.037 A 
HETATM   34  C   UNL     1       5.843  34.540  65.838  1.00  0.00     0.045 A 
HETATM   35  C   UNL     1       5.472  34.837  67.162  1.00  0.00     0.050 A 
HETATM   36  C   UNL     1       4.163  35.266  67.424  1.00  0.00     0.016 A 
HETATM   37  C   UNL     1       3.251  35.412  66.381  1.00  0.00     0.003 A 
HETATM   38  C   UNL     1       3.638  35.131  65.070  1.00  0.00     0.029 A 
BRANCH  35  39
HETATM   39  C   UNL     1       6.457  34.679  68.294  1.00  0.00     0.417 C 
HETATM   40  F   UNL     1       6.562  35.783  69.085  1.00  0.00    -0.166 F 
HETATM   41  F   UNL     1       6.128  33.656  69.133  1.00  0.00    -0.166 F 
HETATM   42  F   UNL     1       7.717  34.413  67.854  1.00  0.00    -0.166 F 
ENDBRANCH  35  39
ENDBRANCH  29  33
ENDBRANCH   4  27
TORSDOF 7
ENDMDL
MODEL 2
REMARK VINA RESULT:     -10.8      5.561     12.313
REMARK  7 active torsions:
REMARK  status: ('A' for Active; 'I' for Inactive)
REMARK    1  A    between atoms: C_3  and  C_4 
REMARK    2  A    between atoms: N_5  and  C_6 
REMARK    3  A    between atoms: C_9  and  N_10 
REMARK       I    between atoms: N_10  and  C_11 
REMARK       I    between atoms: C_11  and  N_12 
REMARK    4  A    between atoms: N_12  and  C_13 
REMARK    5  A    between atoms: C_15  and  C_16 
REMARK    6  A    between atoms: C_32  and  C_33 
REMARK    7  A    between atoms: C_33  and  N_34 
ROOT
HETATM    1  C   UNL     1       4.717  30.710  57.620  1.00  0.00     0.169 C 
HETATM    2  C   UNL     1       6.014  30.195  57.017  1.00  0.00     0.179 C 
HETATM    3  C   UNL     1       5.601  29.030  56.128  1.00  0.00     0.177 C 
HETATM    4  C   UNL     1       6.407  27.837  56.623  1.00  0.00     0.141 C 
HETATM    5  C   UNL     1       7.461  28.470  57.530  1.00  0.00     0.196 C 
HETATM    6  O   UNL     1       6.886  29.686  58.042  1.00  0.00    -0.379 OA
HETATM    7  O   UNL     1       4.192  28.818  56.330  1.00  0.00    -0.379 OA
HETATM    8  C   UNL     1       3.659  30.098  56.708  1.00  0.00     0.198 C 
ENDROOT
BRANCH   1   9
HETATM    9  N   UNL     1       4.680  32.143  57.748  1.00  0.00    -0.221 N 
HETATM   10  C   UNL     1       5.288  32.981  58.660  1.00  0.00     0.182 A 
HETATM   11  N   UNL     1       5.075  34.219  58.245  1.00  0.00    -0.108 NA
HETATM   12  N   UNL     1       4.322  34.140  57.109  1.00  0.00    -0.023 NA
HETATM   13  N   UNL     1       4.087  32.881  56.791  1.00  0.00    -0.043 NA
BRANCH  10  14
HETATM   14  C   UNL     1       6.110  32.649  59.826  1.00  0.00     0.014 A 
HETATM   15  C   UNL     1       7.448  32.256  59.749  1.00  0.00     0.015 A 
HETATM   16  C   UNL     1       8.162  31.927  60.905  1.00  0.00     0.002 A 
HETATM   17  C   UNL     1       7.541  31.953  62.153  1.00  0.00     0.009 A 
HETATM   18  C   UNL     1       6.188  32.295  62.258  1.00  0.00    -0.032 A 
HETATM   19  C   UNL     1       5.491  32.650  61.090  1.00  0.00     0.024 A 
BRANCH  18  20
HETATM   20  C   UNL     1       5.490  32.282  63.589  1.00  0.00     0.273 C 
BRANCH  20  21
HETATM   21  N   UNL     1       5.594  33.589  64.326  1.00  0.00    -0.067 N 
HETATM   22  H   UNL     1       5.349  34.324  63.650  1.00  0.00     0.280 HD
HETATM   23  C   UNL     1       6.988  33.887  64.843  1.00  0.00     0.235 C 
HETATM   24  C   UNL     1       6.835  33.954  66.349  1.00  0.00     0.029 C 
HETATM   25  C   UNL     1       5.434  34.498  66.531  1.00  0.00     0.029 C 
HETATM   26  C   UNL     1       4.638  33.726  65.497  1.00  0.00     0.235 C 
ENDBRANCH  20  21
ENDBRANCH  18  20
ENDBRANCH  10  14
ENDBRANCH   1   9
BRANCH   4  27
HETATM   27  N   UNL     1       6.916  26.976  55.559  1.00  0.00    -0.334 N 
HETATM   28  C   UNL     1       6.997  25.606  55.715  1.00  0.00     0.321 C 
HETATM   29  N   UNL     1       7.605  25.013  54.632  1.00  0.00    -0.309 N 
HETATM   30  O   UNL     1       6.557  25.046  56.710  1.00  0.00    -0.247 OA
HETATM   31  H   UNL     1       7.922  25.632  53.901  1.00  0.00     0.170 HD
HETATM   32  H   UNL     1       7.614  27.396  54.961  1.00  0.00     0.164 HD
BRANCH  29  33
HETATM   33  C   UNL     1       7.834  23.638  54.421  1.00  0.00     0.037 A 
HETATM   34  C   UNL     1       8.193  22.742  55.431  1.00  0.00     0.045 A 
HETATM   35  C   UNL     1       8.385  21.375  55.155  1.00  0.00     0.050 A 
HETATM   36  C   UNL     1       8.234  20.918  53.838  1.00  0.00     0.016 A 
HETATM   37  C   UNL     1       7.879  21.805  52.824  1.00  0.00     0.003 A 
HETATM   38  C   UNL     1       7.675  23.155  53.116  1.00  0.00     0.029 A 
BRANCH  35  39
HETATM   39  C   UNL     1       8.770  20.413  56.251  1.00  0.00     0.417 C 
HETATM   40  F   UNL     1      10.098  20.106  56.266  1.00  0.00    -0.166 F 
HETATM   41  F   UNL     1       8.491  20.898  57.494  1.00  0.00    -0.166 F 
HETATM   42  F   UNL     1       8.112  19.225  56.156  1.00  0.00    -0.166 F 
ENDBRANCH  35  39
ENDBRANCH  29  33
ENDBRANCH   4  27
TORSDOF 7
ENDMDL
MODEL 3
REMARK VINA RESULT:     -10.7      5.603     11.395
REMARK  7 active torsions:
REMARK  status: ('A' for Active; 'I' for Inactive)
REMARK    1  A    between atoms: C_3  and  C_4 
REMARK    2  A    between atoms: N_5  and  C_6 
REMARK    3  A    between atoms: C_9  and  N_10 
REMARK       I    between atoms: N_10  and  C_11 
REMARK       I    between atoms: C_11  and  N_12 
REMARK    4  A    between atoms: N_12  and  C_13 
REMARK    5  A    between atoms: C_15  and  C_16 
REMARK    6  A    between atoms: C_32  and  C_33 
REMARK    7  A    between atoms: C_33  and  N_34 
ROOT
HETATM    1  C   UNL     1       3.924  31.284  57.451  1.00  0.00     0.169 C 
HETATM    2  C   UNL     1       5.370  31.016  57.063  1.00  0.00     0.179 C 
HETATM    3  C   UNL     1       5.352  29.647  56.397  1.00  0.00     0.177 C 
HETATM    4  C   UNL     1       6.347  28.802  57.181  1.00  0.00     0.141 C 
HETATM    5  C   UNL     1       7.105  29.830  58.019  1.00  0.00     0.196 C 
HETATM    6  O   UNL     1       6.204  30.931  58.232  1.00  0.00    -0.379 OA
HETATM    7  O   UNL     1       4.018  29.125  56.530  1.00  0.00    -0.379 OA
HETATM    8  C   UNL     1       3.158  30.275  56.603  1.00  0.00     0.198 C 
ENDROOT
BRANCH   1   9
HETATM    9  N   UNL     1       3.538  32.661  57.285  1.00  0.00    -0.221 N 
HETATM   10  C   UNL     1       3.436  33.683  58.207  1.00  0.00     0.182 A 
HETATM   11  N   UNL     1       3.206  34.793  57.523  1.00  0.00    -0.108 NA
HETATM   12  N   UNL     1       3.141  34.449  56.204  1.00  0.00    -0.023 NA
HETATM   13  N   UNL     1       3.355  33.156  56.047  1.00  0.00    -0.043 NA
BRANCH  10  14
HETATM   14  C   UNL     1       3.628  33.653  59.658  1.00  0.00     0.014 A 
HETATM   15  C   UNL     1       2.621  33.941  60.583  1.00  0.00     0.015 A 
HETATM   16  C   UNL     1       2.886  33.919  61.955  1.00  0.00     0.002 A 
HETATM   17  C   UNL     1       4.169  33.642  62.425  1.00  0.00     0.009 A 
HETATM   18  C   UNL     1       5.211  33.399  61.522  1.00  0.00    -0.032 A 
HETATM   19  C   UNL     1       4.922  33.397  60.147  1.00  0.00     0.024 A 
BRANCH  18  20
HETATM   20  C   UNL     1       6.610  33.146  62.010  1.00  0.00     0.273 C 
BRANCH  20  21
HETATM   21  N   UNL     1       7.337  32.099  61.211  1.00  0.00    -0.067 N 
HETATM   22  H   UNL     1       6.634  31.656  60.606  1.00  0.00     0.280 HD
HETATM   23  C   UNL     1       7.961  31.010  62.062  1.00  0.00     0.235 C 
HETATM   24  C   UNL     1       9.449  31.118  61.795  1.00  0.00     0.029 C 
HETATM   25  C   UNL     1       9.510  31.589  60.357  1.00  0.00     0.029 C 
HETATM   26  C   UNL     1       8.425  32.645  60.304  1.00  0.00     0.235 C 
ENDBRANCH  20  21
ENDBRANCH  18  20
ENDBRANCH  10  14
ENDBRANCH   1   9
BRANCH   4  27
HETATM   27  N   UNL     1       7.169  27.924  56.352  1.00  0.00    -0.334 N 
HETATM   28  C   UNL     1       6.845  26.595  56.165  1.00  0.00     0.321 C 
HETATM   29  N   UNL     1       7.814  25.939  55.443  1.00  0.00    -0.309 N 
HETATM   30  O   UNL     1       5.806  26.120  56.604  1.00  0.00    -0.247 OA
HETATM   31  H   UNL     1       8.618  26.485  55.171  1.00  0.00     0.170 HD
HETATM   32  H   UNL     1       8.155  28.146  56.334  1.00  0.00     0.164 HD
BRANCH  29  33
HETATM   33  C   UNL     1       7.815  24.590  55.031  1.00  0.00     0.037 A 
HETATM   34  C   UNL     1       8.044  23.512  55.890  1.00  0.00     0.045 A 
HETATM   35  C   UNL     1       8.008  22.187  55.417  1.00  0.00     0.050 A 
HETATM   36  C   UNL     1       7.762  21.955  54.057  1.00  0.00     0.016 A 
HETATM   37  C   UNL     1       7.537  23.024  53.192  1.00  0.00     0.003 A 
HETATM   38  C   UNL     1       7.558  24.332  53.679  1.00  0.00     0.029 A 
BRANCH  35  39
HETATM   39  C   UNL     1       8.252  21.027  56.351  1.00  0.00     0.417 C 
HETATM   40  F   UNL     1       8.302  21.385  57.665  1.00  0.00    -0.166 F 
HETATM   41  F   UNL     1       7.280  20.075  56.266  1.00  0.00    -0.166 F 
HETATM   42  F   UNL     1       9.426  20.389  56.092  1.00  0.00    -0.166 F 
ENDBRANCH  35  39
ENDBRANCH  29  33
ENDBRANCH   4  27
TORSDOF 7
ENDMDL
MODEL 4
REMARK VINA RESULT:     -10.6      5.194     12.085
REMARK  7 active torsions:
REMARK  status: ('A' for Active; 'I' for Inactive)
REMARK    1  A    between atoms: C_3  and  C_4 
REMARK    2  A    between atoms: N_5  and  C_6 
REMARK    3  A    between atoms: C_9  and  N_10 
REMARK       I    between atoms: N_10  and  C_11 
REMARK       I    between atoms: C_11  and  N_12 
REMARK    4  A    between atoms: N_12  and  C_13 
REMARK    5  A    between atoms: C_15  and  C_16 
REMARK    6  A    between atoms: C_32  and  C_33 
REMARK    7  A    between atoms: C_33  and  N_34 
ROOT
HETATM    1  C   UNL     1       8.428  30.679  58.661  1.00  0.00     0.169 C 
HETATM    2  C   UNL     1       7.822  29.374  58.168  1.00  0.00     0.179 C 
HETATM    3  C   UNL     1       8.530  29.083  56.853  1.00  0.00     0.177 C 
HETATM    4  C   UNL     1       7.423  28.945  55.817  1.00  0.00     0.141 C 
HETATM    5  C   UNL     1       6.156  28.834  56.664  1.00  0.00     0.196 C 
HETATM    6  O   UNL     1       6.420  29.536  57.892  1.00  0.00    -0.379 OA
HETATM    7  O   UNL     1       9.370  30.215  56.560  1.00  0.00    -0.379 OA
HETATM    8  C   UNL     1       9.704  30.788  57.834  1.00  0.00     0.198 C 
ENDROOT
BRANCH   1   9
HETATM    9  N   UNL     1       8.602  30.720  60.089  1.00  0.00    -0.221 N 
HETATM   10  C   UNL     1       7.861  31.351  61.068  1.00  0.00     0.182 A 
HETATM   11  N   UNL     1       8.337  30.941  62.232  1.00  0.00    -0.108 NA
HETATM   12  N   UNL     1       9.374  30.094  61.969  1.00  0.00    -0.023 NA
HETATM   13  N   UNL     1       9.535  29.942  60.668  1.00  0.00    -0.043 NA
BRANCH  10  14
HETATM   14  C   UNL     1       6.700  32.233  60.934  1.00  0.00     0.014 A 
HETATM   15  C   UNL     1       5.946  32.356  59.764  1.00  0.00     0.015 A 
HETATM   16  C   UNL     1       4.866  33.242  59.701  1.00  0.00     0.002 A 
HETATM   17  C   UNL     1       4.542  34.043  60.796  1.00  0.00     0.009 A 
HETATM   18  C   UNL     1       5.308  33.978  61.965  1.00  0.00    -0.032 A 
HETATM   19  C   UNL     1       6.373  33.064  62.022  1.00  0.00     0.024 A 
BRANCH  18  20
HETATM   20  C   UNL     1       5.003  34.869  63.137  1.00  0.00     0.273 C 
BRANCH  20  21
HETATM   21  N   UNL     1       4.540  34.113  64.352  1.00  0.00    -0.067 N 
HETATM   22  H   UNL     1       4.439  33.132  64.063  1.00  0.00     0.280 HD
HETATM   23  C   UNL     1       3.195  34.575  64.880  1.00  0.00     0.235 C 
HETATM   24  C   UNL     1       3.484  35.083  66.278  1.00  0.00     0.029 C 
HETATM   25  C   UNL     1       4.624  34.198  66.739  1.00  0.00     0.029 C 
HETATM   26  C   UNL     1       5.515  34.136  65.514  1.00  0.00     0.235 C 
ENDBRANCH  20  21
ENDBRANCH  18  20
ENDBRANCH  10  14
ENDBRANCH   1   9
BRANCH   4  27
HETATM   27  N   UNL     1       7.638  27.873  54.850  1.00  0.00    -0.334 N 
HETATM   28  C   UNL     1       7.585  26.544  55.221  1.00  0.00     0.321 C 
HETATM   29  N   UNL     1       7.926  25.717  54.175  1.00  0.00    -0.309 N 
HETATM   30  O   UNL     1       7.260  26.205  56.351  1.00  0.00    -0.247 OA
HETATM   31  H   UNL     1       8.183  26.169  53.311  1.00  0.00     0.170 HD
HETATM   32  H   UNL     1       8.268  28.096  54.091  1.00  0.00     0.164 HD
BRANCH  29  33
HETATM   33  C   UNL     1       7.954  24.307  54.167  1.00  0.00     0.037 A 
HETATM   34  C   UNL     1       8.151  23.524  55.308  1.00  0.00     0.045 A 
HETATM   35  C   UNL     1       8.145  22.119  55.234  1.00  0.00     0.050 A 
HETATM   36  C   UNL     1       7.961  21.503  53.988  1.00  0.00     0.016 A 
HETATM   37  C   UNL     1       7.768  22.275  52.845  1.00  0.00     0.003 A 
HETATM   38  C   UNL     1       7.759  23.668  52.937  1.00  0.00     0.029 A 
BRANCH  35  39
HETATM   39  C   UNL     1       8.356  21.279  56.469  1.00  0.00     0.417 C 
HETATM   40  F   UNL     1       7.401  20.323  56.649  1.00  0.00    -0.166 F 
HETATM   41  F   UNL     1       9.544  20.611  56.451  1.00  0.00    -0.166 F 
HETATM   42  F   UNL     1       8.361  22.022  57.609  1.00  0.00    -0.166 F 
ENDBRANCH  35  39
ENDBRANCH  29  33
ENDBRANCH   4  27
TORSDOF 7
ENDMDL
MODEL 5
REMARK VINA RESULT:     -10.5      5.639     11.995
REMARK  7 active torsions:
REMARK  status: ('A' for Active; 'I' for Inactive)
REMARK    1  A    between atoms: C_3  and  C_4 
REMARK    2  A    between atoms: N_5  and  C_6 
REMARK    3  A    between atoms: C_9  and  N_10 
REMARK       I    between atoms: N_10  and  C_11 
REMARK       I    between atoms: C_11  and  N_12 
REMARK    4  A    between atoms: N_12  and  C_13 
REMARK    5  A    between atoms: C_15  and  C_16 
REMARK    6  A    between atoms: C_32  and  C_33 
REMARK    7  A    between atoms: C_33  and  N_34 
ROOT
HETATM    1  C   UNL     1       4.516  31.614  57.128  1.00  0.00     0.169 C 
HETATM    2  C   UNL     1       5.476  30.797  56.277  1.00  0.00     0.179 C 
HETATM    3  C   UNL     1       4.676  29.578  55.840  1.00  0.00     0.177 C 
HETATM    4  C   UNL     1       5.484  28.374  56.308  1.00  0.00     0.141 C 
HETATM    5  C   UNL     1       6.838  28.976  56.677  1.00  0.00     0.196 C 
HETATM    6  O   UNL     1       6.590  30.340  57.064  1.00  0.00    -0.379 OA
HETATM    7  O   UNL     1       3.406  29.637  56.514  1.00  0.00    -0.379 OA
HETATM    8  C   UNL     1       3.158  31.033  56.750  1.00  0.00     0.198 C 
ENDROOT
BRANCH   1   9
HETATM    9  N   UNL     1       4.662  33.034  56.943  1.00  0.00    -0.221 N 
HETATM   10  C   UNL     1       4.355  34.086  57.782  1.00  0.00     0.182 A 
HETATM   11  N   UNL     1       4.834  35.181  57.214  1.00  0.00    -0.108 NA
HETATM   12  N   UNL     1       5.400  34.807  56.030  1.00  0.00    -0.023 NA
HETATM   13  N   UNL     1       5.313  33.501  55.861  1.00  0.00    -0.043 NA
BRANCH  10  14
HETATM   14  C   UNL     1       3.720  34.072  59.101  1.00  0.00     0.014 A 
HETATM   15  C   UNL     1       2.528  34.737  59.398  1.00  0.00     0.015 A 
HETATM   16  C   UNL     1       1.995  34.702  60.690  1.00  0.00     0.002 A 
HETATM   17  C   UNL     1       2.660  34.029  61.713  1.00  0.00     0.009 A 
HETATM   18  C   UNL     1       3.882  33.394  61.459  1.00  0.00    -0.032 A 
HETATM   19  C   UNL     1       4.390  33.415  60.150  1.00  0.00     0.024 A 
BRANCH  18  20
HETATM   20  C   UNL     1       4.637  32.705  62.562  1.00  0.00     0.273 C 
BRANCH  20  21
HETATM   21  N   UNL     1       5.665  33.586  63.216  1.00  0.00    -0.067 N 
HETATM   22  H   UNL     1       5.405  34.554  62.990  1.00  0.00     0.280 HD
HETATM   23  C   UNL     1       7.074  33.358  62.705  1.00  0.00     0.235 C 
HETATM   24  C   UNL     1       7.853  32.888  63.917  1.00  0.00     0.029 C 
HETATM   25  C   UNL     1       7.182  33.616  65.064  1.00  0.00     0.029 C 
HETATM   26  C   UNL     1       5.710  33.479  64.729  1.00  0.00     0.235 C 
ENDBRANCH  20  21
ENDBRANCH  18  20
ENDBRANCH  10  14
ENDBRANCH   1   9
BRANCH   4  27
HETATM   27  N   UNL     1       5.516  27.269  55.354  1.00  0.00    -0.334 N 
HETATM   28  C   UNL     1       6.349  26.183  55.534  1.00  0.00     0.321 C 
HETATM   29  N   UNL     1       6.292  25.323  54.462  1.00  0.00    -0.309 N 
HETATM   30  O   UNL     1       7.023  26.053  56.548  1.00  0.00    -0.247 OA
HETATM   31  H   UNL     1       5.690  25.595  53.700  1.00  0.00     0.170 HD
HETATM   32  H   UNL     1       5.318  27.521  54.394  1.00  0.00     0.164 HD
BRANCH  29  33
HETATM   33  C   UNL     1       6.975  24.099  54.304  1.00  0.00     0.037 A 
HETATM   34  C   UNL     1       7.222  23.203  55.347  1.00  0.00     0.045 A 
HETATM   35  C   UNL     1       7.891  21.986  55.116  1.00  0.00     0.050 A 
HETATM   36  C   UNL     1       8.333  21.688  53.820  1.00  0.00     0.016 A 
HETATM   37  C   UNL     1       8.095  22.576  52.774  1.00  0.00     0.003 A 
HETATM   38  C   UNL     1       7.415  23.772  53.015  1.00  0.00     0.029 A 
BRANCH  35  39
HETATM   39  C   UNL     1       8.151  21.022  56.246  1.00  0.00     0.417 C 
HETATM   40  F   UNL     1       9.326  20.342  56.124  1.00  0.00    -0.166 F 
HETATM   41  F   UNL     1       8.211  21.642  57.459  1.00  0.00    -0.166 F 
HETATM   42  F   UNL     1       7.181  20.074  56.357  1.00  0.00    -0.166 F 
ENDBRANCH  35  39
ENDBRANCH  29  33
ENDBRANCH   4  27
TORSDOF 7
ENDMDL
MODEL 6
REMARK VINA RESULT:      -9.8      6.224     11.910
REMARK  7 active torsions:
REMARK  status: ('A' for Active; 'I' for Inactive)
REMARK    1  A    between atoms: C_3  and  C_4 
REMARK    2  A    between atoms: N_5  and  C_6 
REMARK    3  A    between atoms: C_9  and  N_10 
REMARK       I    between atoms: N_10  and  C_11 
REMARK       I    between atoms: C_11  and  N_12 
REMARK    4  A    between atoms: N_12  and  C_13 
REMARK    5  A    between atoms: C_15  and  C_16 
REMARK    6  A    between atoms: C_32  and  C_33 
REMARK    7  A    between atoms: C_33  and  N_34 
ROOT
HETATM    1  C   UNL     1       7.377  30.300  58.616  1.00  0.00     0.169 C 
HETATM    2  C   UNL     1       7.461  29.239  57.529  1.00  0.00     0.179 C 
HETATM    3  C   UNL     1       6.067  29.186  56.921  1.00  0.00     0.177 C 
HETATM    4  C   UNL     1       5.623  27.735  57.051  1.00  0.00     0.141 C 
HETATM    5  C   UNL     1       6.912  26.999  57.414  1.00  0.00     0.196 C 
HETATM    6  O   UNL     1       7.748  27.950  58.098  1.00  0.00    -0.379 OA
HETATM    7  O   UNL     1       5.226  30.052  57.705  1.00  0.00    -0.379 OA
HETATM    8  C   UNL     1       6.103  31.052  58.249  1.00  0.00     0.198 C 
ENDROOT
BRANCH   1   9
HETATM    9  N   UNL     1       8.568  31.101  58.719  1.00  0.00    -0.221 N 
HETATM   10  C   UNL     1       9.008  31.931  59.731  1.00  0.00     0.182 A 
HETATM   11  N   UNL     1      10.237  32.303  59.413  1.00  0.00    -0.108 NA
HETATM   12  N   UNL     1      10.535  31.731  58.210  1.00  0.00    -0.023 NA
HETATM   13  N   UNL     1       9.531  30.987  57.786  1.00  0.00    -0.043 NA
BRANCH  10  14
HETATM   14  C   UNL     1       8.351  32.300  60.986  1.00  0.00     0.014 A 
HETATM   15  C   UNL     1       8.803  31.904  62.247  1.00  0.00     0.015 A 
HETATM   16  C   UNL     1       8.105  32.271  63.402  1.00  0.00     0.002 A 
HETATM   17  C   UNL     1       6.928  33.012  63.313  1.00  0.00     0.009 A 
HETATM   18  C   UNL     1       6.422  33.381  62.062  1.00  0.00    -0.032 A 
HETATM   19  C   UNL     1       7.149  33.029  60.912  1.00  0.00     0.024 A 
BRANCH  18  20
HETATM   20  C   UNL     1       5.128  34.138  61.946  1.00  0.00     0.273 C 
BRANCH  20  21
HETATM   21  N   UNL     1       4.723  34.406  60.522  1.00  0.00    -0.067 N 
HETATM   22  H   UNL     1       5.565  34.266  59.949  1.00  0.00     0.280 HD
HETATM   23  C   UNL     1       4.237  35.822  60.284  1.00  0.00     0.235 C 
HETATM   24  C   UNL     1       2.799  35.666  59.835  1.00  0.00     0.029 C 
HETATM   25  C   UNL     1       2.809  34.346  59.091  1.00  0.00     0.029 C 
HETATM   26  C   UNL     1       3.659  33.466  59.986  1.00  0.00     0.235 C 
ENDBRANCH  20  21
ENDBRANCH  18  20
ENDBRANCH  10  14
ENDBRANCH   1   9
BRANCH   4  27
HETATM   27  N   UNL     1       4.903  27.224  55.888  1.00  0.00    -0.334 N 
HETATM   28  C   UNL     1       5.293  27.537  54.601  1.00  0.00     0.321 C 
HETATM   29  N   UNL     1       4.410  27.038  53.673  1.00  0.00    -0.309 N 
HETATM   30  O   UNL     1       6.314  28.175  54.378  1.00  0.00    -0.247 OA
HETATM   31  H   UNL     1       3.609  26.545  54.036  1.00  0.00     0.170 HD
HETATM   32  H   UNL     1       3.913  27.071  56.025  1.00  0.00     0.164 HD
BRANCH  29  33
HETATM   33  C   UNL     1       4.495  27.130  52.268  1.00  0.00     0.037 A 
HETATM   34  C   UNL     1       4.177  28.281  51.540  1.00  0.00     0.045 A 
HETATM   35  C   UNL     1       4.306  28.312  50.139  1.00  0.00     0.050 A 
HETATM   36  C   UNL     1       4.737  27.159  49.469  1.00  0.00     0.016 A 
HETATM   37  C   UNL     1       5.052  26.006  50.185  1.00  0.00     0.003 A 
HETATM   38  C   UNL     1       4.937  25.996  51.577  1.00  0.00     0.029 A 
BRANCH  35  39
HETATM   39  C   UNL     1       3.965  29.558  49.360  1.00  0.00     0.417 C 
HETATM   40  F   UNL     1       3.144  30.414  50.032  1.00  0.00    -0.166 F 
HETATM   41  F   UNL     1       5.068  30.288  49.034  1.00  0.00    -0.166 F 
HETATM   42  F   UNL     1       3.337  29.282  48.185  1.00  0.00    -0.166 F 
ENDBRANCH  35  39
ENDBRANCH  29  33
ENDBRANCH   4  27
TORSDOF 7
ENDMDL
MODEL 7
REMARK VINA RESULT:      -9.7      5.307     11.805
REMARK  7 active torsions:
REMARK  status: ('A' for Active; 'I' for Inactive)
REMARK    1  A    between atoms: C_3  and  C_4 
REMARK    2  A    between atoms: N_5  and  C_6 
REMARK    3  A    between atoms: C_9  and  N_10 
REMARK       I    between atoms: N_10  and  C_11 
REMARK       I    between atoms: C_11  and  N_12 
REMARK    4  A    between atoms: N_12  and  C_13 
REMARK    5  A    between atoms: C_15  and  C_16 
REMARK    6  A    between atoms: C_32  and  C_33 
REMARK    7  A    between atoms: C_33  and  N_34 
ROOT
HETATM    1  C   UNL     1       3.620  33.343  58.819  1.00  0.00     0.169 C 
HETATM    2  C   UNL     1       3.500  32.499  57.559  1.00  0.00     0.179 C 
HETATM    3  C   UNL     1       3.571  31.057  58.042  1.00  0.00     0.177 C 
HETATM    4  C   UNL     1       4.725  30.428  57.274  1.00  0.00     0.141 C 
HETATM    5  C   UNL     1       5.015  31.445  56.171  1.00  0.00     0.196 C 
HETATM    6  O   UNL     1       4.617  32.730  56.683  1.00  0.00    -0.379 OA
HETATM    7  O   UNL     1       3.853  31.093  59.453  1.00  0.00    -0.379 OA
HETATM    8  C   UNL     1       3.312  32.339  59.924  1.00  0.00     0.198 C 
ENDROOT
BRANCH   1   9
HETATM    9  N   UNL     1       2.791  34.519  58.794  1.00  0.00    -0.221 N 
HETATM   10  C   UNL     1       2.774  35.625  59.621  1.00  0.00     0.182 A 
HETATM   11  N   UNL     1       1.943  36.498  59.075  1.00  0.00    -0.108 NA
HETATM   12  N   UNL     1       1.437  35.923  57.945  1.00  0.00    -0.023 NA
HETATM   13  N   UNL     1       1.956  34.724  57.758  1.00  0.00    -0.043 NA
BRANCH  10  14
HETATM   14  C   UNL     1       3.561  35.900  60.824  1.00  0.00     0.014 A 
HETATM   15  C   UNL     1       4.607  36.825  60.876  1.00  0.00     0.015 A 
HETATM   16  C   UNL     1       5.333  37.014  62.056  1.00  0.00     0.002 A 
HETATM   17  C   UNL     1       5.048  36.259  63.192  1.00  0.00     0.009 A 
HETATM   18  C   UNL     1       4.039  35.290  63.157  1.00  0.00    -0.032 A 
HETATM   19  C   UNL     1       3.300  35.131  61.973  1.00  0.00     0.024 A 
BRANCH  18  20
HETATM   20  C   UNL     1       3.751  34.434  64.359  1.00  0.00     0.273 C 
BRANCH  20  21
HETATM   21  N   UNL     1       4.814  33.403  64.622  1.00  0.00    -0.067 N 
HETATM   22  H   UNL     1       4.328  32.564  64.961  1.00  0.00     0.280 HD
HETATM   23  C   UNL     1       5.812  33.817  65.686  1.00  0.00     0.235 C 
HETATM   24  C   UNL     1       7.145  33.863  64.968  1.00  0.00     0.029 C 
HETATM   25  C   UNL     1       7.012  32.778  63.919  1.00  0.00     0.029 C 
HETATM   26  C   UNL     1       5.606  32.992  63.394  1.00  0.00     0.235 C 
ENDBRANCH  20  21
ENDBRANCH  18  20
ENDBRANCH  10  14
ENDBRANCH   1   9
BRANCH   4  27
HETATM   27  N   UNL     1       4.472  29.061  56.828  1.00  0.00    -0.334 N 
HETATM   28  C   UNL     1       5.486  28.262  56.337  1.00  0.00     0.321 C 
HETATM   29  N   UNL     1       4.999  27.059  55.878  1.00  0.00    -0.309 N 
HETATM   30  O   UNL     1       6.653  28.629  56.345  1.00  0.00    -0.247 OA
HETATM   31  H   UNL     1       4.001  26.928  55.935  1.00  0.00     0.170 HD
HETATM   32  H   UNL     1       3.552  28.895  56.444  1.00  0.00     0.164 HD
BRANCH  29  33
HETATM   33  C   UNL     1       5.734  25.983  55.339  1.00  0.00     0.037 A 
HETATM   34  C   UNL     1       6.780  25.340  56.008  1.00  0.00     0.045 A 
HETATM   35  C   UNL     1       7.458  24.256  55.421  1.00  0.00     0.050 A 
HETATM   36  C   UNL     1       7.089  23.836  54.136  1.00  0.00     0.016 A 
HETATM   37  C   UNL     1       6.051  24.473  53.460  1.00  0.00     0.003 A 
HETATM   38  C   UNL     1       5.375  25.536  54.062  1.00  0.00     0.029 A 
BRANCH  35  39
HETATM   39  C   UNL     1       8.584  23.564  56.150  1.00  0.00     0.417 C 
HETATM   40  F   UNL     1       9.485  22.967  55.320  1.00  0.00    -0.166 F 
HETATM   41  F   UNL     1       9.309  24.420  56.924  1.00  0.00    -0.166 F 
HETATM   42  F   UNL     1       8.140  22.587  56.987  1.00  0.00    -0.166 F 
ENDBRANCH  35  39
ENDBRANCH  29  33
ENDBRANCH   4  27
TORSDOF 7
ENDMDL
MODEL 8
REMARK VINA RESULT:      -9.7      6.838     12.394
REMARK  7 active torsions:
REMARK  status: ('A' for Active; 'I' for Inactive)
REMARK    1  A    between atoms: C_3  and  C_4 
REMARK    2  A    between atoms: N_5  and  C_6 
REMARK    3  A    between atoms: C_9  and  N_10 
REMARK       I    between atoms: N_10  and  C_11 
REMARK       I    between atoms: C_11  and  N_12 
REMARK    4  A    between atoms: N_12  and  C_13 
REMARK    5  A    between atoms: C_15  and  C_16 
REMARK    6  A    between atoms: C_32  and  C_33 
REMARK    7  A    between atoms: C_33  and  N_34 
ROOT
HETATM    1  C   UNL     1       7.810  29.625  57.913  1.00  0.00     0.169 C 
HETATM    2  C   UNL     1       7.745  28.897  56.579  1.00  0.00     0.179 C 
HETATM    3  C   UNL     1       6.265  28.846  56.229  1.00  0.00     0.177 C 
HETATM    4  C   UNL     1       5.945  27.371  56.030  1.00  0.00     0.141 C 
HETATM    5  C   UNL     1       7.323  26.716  55.949  1.00  0.00     0.196 C 
HETATM    6  O   UNL     1       8.217  27.545  56.714  1.00  0.00    -0.379 OA
HETATM    7  O   UNL     1       5.542  29.381  57.353  1.00  0.00    -0.379 OA
HETATM    8  C   UNL     1       6.445  30.298  57.992  1.00  0.00     0.198 C 
ENDROOT
BRANCH   1   9
HETATM    9  N   UNL     1       8.947  30.501  58.026  1.00  0.00    -0.221 N 
HETATM   10  C   UNL     1       9.385  31.273  59.083  1.00  0.00     0.182 A 
HETATM   11  N   UNL     1      10.566  31.760  58.737  1.00  0.00    -0.108 NA
HETATM   12  N   UNL     1      10.833  31.315  57.475  1.00  0.00    -0.023 NA
HETATM   13  N   UNL     1       9.860  30.538  57.038  1.00  0.00    -0.043 NA
BRANCH  10  14
HETATM   14  C   UNL     1       8.777  31.484  60.398  1.00  0.00     0.014 A 
HETATM   15  C   UNL     1       9.068  30.709  61.524  1.00  0.00     0.015 A 
HETATM   16  C   UNL     1       8.425  30.952  62.741  1.00  0.00     0.002 A 
HETATM   17  C   UNL     1       7.458  31.951  62.845  1.00  0.00     0.009 A 
HETATM   18  C   UNL     1       7.108  32.710  61.723  1.00  0.00    -0.032 A 
HETATM   19  C   UNL     1       7.783  32.473  60.514  1.00  0.00     0.024 A 
BRANCH  18  20
HETATM   20  C   UNL     1       6.033  33.758  61.806  1.00  0.00     0.273 C 
BRANCH  20  21
HETATM   21  N   UNL     1       4.979  33.446  62.831  1.00  0.00    -0.067 N 
HETATM   22  H   UNL     1       5.353  32.685  63.411  1.00  0.00     0.280 HD
HETATM   23  C   UNL     1       3.672  32.964  62.232  1.00  0.00     0.235 C 
HETATM   24  C   UNL     1       2.650  34.003  62.648  1.00  0.00     0.029 C 
HETATM   25  C   UNL     1       3.159  34.468  63.997  1.00  0.00     0.029 C 
HETATM   26  C   UNL     1       4.651  34.597  63.764  1.00  0.00     0.235 C 
ENDBRANCH  20  21
ENDBRANCH  18  20
ENDBRANCH  10  14
ENDBRANCH   1   9
BRANCH   4  27
HETATM   27  N   UNL     1       5.044  27.099  54.913  1.00  0.00    -0.334 N 
HETATM   28  C   UNL     1       5.094  27.840  53.749  1.00  0.00     0.321 C 
HETATM   29  N   UNL     1       4.087  27.482  52.883  1.00  0.00    -0.309 N 
HETATM   30  O   UNL     1       5.957  28.688  53.564  1.00  0.00    -0.247 OA
HETATM   31  H   UNL     1       3.451  26.769  53.205  1.00  0.00     0.170 HD
HETATM   32  H   UNL     1       4.136  26.737  55.169  1.00  0.00     0.164 HD
BRANCH  29  33
HETATM   33  C   UNL     1       3.840  27.994  51.592  1.00  0.00     0.037 A 
HETATM   34  C   UNL     1       4.355  27.434  50.420  1.00  0.00     0.045 A 
HETATM   35  C   UNL     1       4.051  27.982  49.159  1.00  0.00     0.050 A 
HETATM   36  C   UNL     1       3.237  29.121  49.090  1.00  0.00     0.016 A 
HETATM   37  C   UNL     1       2.722  29.688  50.254  1.00  0.00     0.003 A 
HETATM   38  C   UNL     1       3.018  29.123  51.496  1.00  0.00     0.029 A 
BRANCH  35  39
HETATM   39  C   UNL     1       4.608  27.372  47.897  1.00  0.00     0.417 C 
HETATM   40  F   UNL     1       5.698  28.028  47.409  1.00  0.00    -0.166 F 
HETATM   41  F   UNL     1       5.006  26.080  48.073  1.00  0.00    -0.166 F 
HETATM   42  F   UNL     1       3.700  27.350  46.884  1.00  0.00    -0.166 F 
ENDBRANCH  35  39
ENDBRANCH  29  33
ENDBRANCH   4  27
TORSDOF 7
ENDMDL
MODEL 9
REMARK VINA RESULT:      -9.6      6.080     11.818
REMARK  7 active torsions:
REMARK  status: ('A' for Active; 'I' for Inactive)
REMARK    1  A    between atoms: C_3  and  C_4 
REMARK    2  A    between atoms: N_5  and  C_6 
REMARK    3  A    between atoms: C_9  and  N_10 
REMARK       I    between atoms: N_10  and  C_11 
REMARK       I    between atoms: C_11  and  N_12 
REMARK    4  A    between atoms: N_12  and  C_13 
REMARK    5  A    between atoms: C_15  and  C_16 
REMARK    6  A    between atoms: C_32  and  C_33 
REMARK    7  A    between atoms: C_33  and  N_34 
ROOT
HETATM    1  C   UNL     1       3.802  32.170  57.407  1.00  0.00     0.169 C 
HETATM    2  C   UNL     1       5.288  31.897  57.231  1.00  0.00     0.179 C 
HETATM    3  C   UNL     1       5.365  30.482  56.676  1.00  0.00     0.177 C 
HETATM    4  C   UNL     1       6.254  29.714  57.645  1.00  0.00     0.141 C 
HETATM    5  C   UNL     1       6.890  30.814  58.492  1.00  0.00     0.196 C 
HETATM    6  O   UNL     1       5.962  31.914  58.501  1.00  0.00    -0.379 OA
HETATM    7  O   UNL     1       4.028  29.950  56.674  1.00  0.00    -0.379 OA
HETATM    8  C   UNL     1       3.160  31.088  56.547  1.00  0.00     0.198 C 
ENDROOT
BRANCH   1   9
HETATM    9  N   UNL     1       3.433  33.524  57.087  1.00  0.00    -0.221 N 
HETATM   10  C   UNL     1       3.107  34.585  57.907  1.00  0.00     0.182 A 
HETATM   11  N   UNL     1       3.011  35.653  57.132  1.00  0.00    -0.108 NA
HETATM   12  N   UNL     1       3.247  35.246  55.851  1.00  0.00    -0.023 NA
HETATM   13  N   UNL     1       3.518  33.954  55.814  1.00  0.00    -0.043 NA
BRANCH  10  14
HETATM   14  C   UNL     1       2.973  34.629  59.364  1.00  0.00     0.014 A 
HETATM   15  C   UNL     1       1.747  34.656  60.033  1.00  0.00     0.015 A 
HETATM   16  C   UNL     1       1.697  34.727  61.428  1.00  0.00     0.002 A 
HETATM   17  C   UNL     1       2.871  34.806  62.176  1.00  0.00     0.009 A 
HETATM   18  C   UNL     1       4.114  34.832  61.533  1.00  0.00    -0.032 A 
HETATM   19  C   UNL     1       4.148  34.732  60.132  1.00  0.00     0.024 A 
BRANCH  18  20
HETATM   20  C   UNL     1       5.387  34.966  62.321  1.00  0.00     0.273 C 
BRANCH  20  21
HETATM   21  N   UNL     1       5.869  33.662  62.895  1.00  0.00    -0.067 N 
HETATM   22  H   UNL     1       5.120  32.978  62.732  1.00  0.00     0.280 HD
HETATM   23  C   UNL     1       6.125  33.713  64.389  1.00  0.00     0.235 C 
HETATM   24  C   UNL     1       7.604  33.420  64.537  1.00  0.00     0.029 C 
HETATM   25  C   UNL     1       7.888  32.479  63.384  1.00  0.00     0.029 C 
HETATM   26  C   UNL     1       7.123  33.114  62.239  1.00  0.00     0.235 C 
ENDBRANCH  20  21
ENDBRANCH  18  20
ENDBRANCH  10  14
ENDBRANCH   1   9
BRANCH   4  27
HETATM   27  N   UNL     1       7.182  28.789  57.000  1.00  0.00    -0.334 N 
HETATM   28  C   UNL     1       6.917  27.436  56.922  1.00  0.00     0.321 C 
HETATM   29  N   UNL     1       7.975  26.748  56.373  1.00  0.00    -0.309 N 
HETATM   30  O   UNL     1       5.852  26.968  57.302  1.00  0.00    -0.247 OA
HETATM   31  H   UNL     1       8.786  27.294  56.128  1.00  0.00     0.170 HD
HETATM   32  H   UNL     1       8.158  29.046  57.057  1.00  0.00     0.164 HD
BRANCH  29  33
HETATM   33  C   UNL     1       8.057  25.365  56.108  1.00  0.00     0.037 A 
HETATM   34  C   UNL     1       7.989  24.811  54.827  1.00  0.00     0.045 A 
HETATM   35  C   UNL     1       8.100  23.422  54.630  1.00  0.00     0.050 A 
HETATM   36  C   UNL     1       8.257  22.587  55.744  1.00  0.00     0.016 A 
HETATM   37  C   UNL     1       8.321  23.129  57.026  1.00  0.00     0.003 A 
HETATM   38  C   UNL     1       8.228  24.511  57.204  1.00  0.00     0.029 A 
BRANCH  35  39
HETATM   39  C   UNL     1       8.030  22.831  53.244  1.00  0.00     0.417 C 
HETATM   40  F   UNL     1       9.139  22.120  52.897  1.00  0.00    -0.166 F 
HETATM   41  F   UNL     1       6.982  21.972  53.095  1.00  0.00    -0.166 F 
HETATM   42  F   UNL     1       7.876  23.779  52.280  1.00  0.00    -0.166 F 
ENDBRANCH  35  39
ENDBRANCH  29  33
ENDBRANCH   4  27
TORSDOF 7
ENDMDL
MODEL 10
REMARK VINA RESULT:      -9.5      7.027     12.064
REMARK  7 active torsions:
REMARK  status: ('A' for Active; 'I' for Inactive)
REMARK    1  A    between atoms: C_3  and  C_4 
REMARK    2  A    between atoms: N_5  and  C_6 
REMARK    3  A    between atoms: C_9  and  N_10 
REMARK       I    between atoms: N_10  and  C_11 
REMARK       I    between atoms: C_11  and  N_12 
REMARK    4  A    between atoms: N_12  and  C_13 
REMARK    5  A    between atoms: C_15  and  C_16 
REMARK    6  A    between atoms: C_32  and  C_33 
REMARK    7  A    between atoms: C_33  and  N_34 
ROOT
HETATM    1  C   UNL     1       4.745  31.688  56.732  1.00  0.00     0.169 C 
HETATM    2  C   UNL     1       3.910  30.529  56.211  1.00  0.00     0.179 C 
HETATM    3  C   UNL     1       4.816  29.311  56.315  1.00  0.00     0.177 C 
HETATM    4  C   UNL     1       4.874  28.727  54.909  1.00  0.00     0.141 C 
HETATM    5  C   UNL     1       3.741  29.446  54.178  1.00  0.00     0.196 C 
HETATM    6  O   UNL     1       3.581  30.722  54.824  1.00  0.00    -0.379 OA
HETATM    7  O   UNL     1       6.113  29.778  56.731  1.00  0.00    -0.379 OA
HETATM    8  C   UNL     1       5.868  30.978  57.481  1.00  0.00     0.198 C 
ENDROOT
BRANCH   1   9
HETATM    9  N   UNL     1       3.983  32.636  57.501  1.00  0.00    -0.221 N 
HETATM   10  C   UNL     1       3.094  33.612  57.099  1.00  0.00     0.182 A 
HETATM   11  N   UNL     1       2.538  34.099  58.196  1.00  0.00    -0.108 NA
HETATM   12  N   UNL     1       3.099  33.449  59.257  1.00  0.00    -0.023 NA
HETATM   13  N   UNL     1       3.971  32.548  58.844  1.00  0.00    -0.043 NA
BRANCH  10  14
HETATM   14  C   UNL     1       2.709  34.022  55.747  1.00  0.00     0.014 A 
HETATM   15  C   UNL     1       3.611  34.489  54.788  1.00  0.00     0.015 A 
HETATM   16  C   UNL     1       3.165  34.890  53.525  1.00  0.00     0.002 A 
HETATM   17  C   UNL     1       1.807  34.862  53.211  1.00  0.00     0.009 A 
HETATM   18  C   UNL     1       0.873  34.446  54.167  1.00  0.00    -0.032 A 
HETATM   19  C   UNL     1       1.339  34.020  55.422  1.00  0.00     0.024 A 
BRANCH  18  20
HETATM   20  C   UNL     1      -0.599  34.456  53.862  1.00  0.00     0.273 C 
BRANCH  20  21
HETATM   21  N   UNL     1      -1.317  33.234  54.365  1.00  0.00    -0.067 N 
HETATM   22  H   UNL     1      -0.600  32.510  54.499  1.00  0.00     0.280 HD
HETATM   23  C   UNL     1      -2.343  32.688  53.391  1.00  0.00     0.235 C 
HETATM   24  C   UNL     1      -3.666  32.800  54.122  1.00  0.00     0.029 C 
HETATM   25  C   UNL     1      -3.279  32.596  55.572  1.00  0.00     0.029 C 
HETATM   26  C   UNL     1      -2.014  33.421  55.700  1.00  0.00     0.235 C 
ENDBRANCH  20  21
ENDBRANCH  18  20
ENDBRANCH  10  14
ENDBRANCH   1   9
BRANCH   4  27
HETATM   27  N   UNL     1       4.835  27.268  54.866  1.00  0.00    -0.334 N 
HETATM   28  C   UNL     1       5.979  26.521  54.666  1.00  0.00     0.321 C 
HETATM   29  N   UNL     1       5.690  25.181  54.552  1.00  0.00    -0.309 N 
HETATM   30  O   UNL     1       7.086  27.042  54.615  1.00  0.00    -0.247 OA
HETATM   31  H   UNL     1       4.715  24.926  54.605  1.00  0.00     0.170 HD
HETATM   32  H   UNL     1       3.978  26.869  54.508  1.00  0.00     0.164 HD
BRANCH  29  33
HETATM   33  C   UNL     1       6.598  24.116  54.376  1.00  0.00     0.037 A 
HETATM   34  C   UNL     1       7.005  23.259  55.402  1.00  0.00     0.045 A 
HETATM   35  C   UNL     1       7.899  22.202  55.153  1.00  0.00     0.050 A 
HETATM   36  C   UNL     1       8.402  22.026  53.856  1.00  0.00     0.016 A 
HETATM   37  C   UNL     1       8.006  22.878  52.828  1.00  0.00     0.003 A 
HETATM   38  C   UNL     1       7.104  23.912  53.086  1.00  0.00     0.029 A 
BRANCH  35  39
HETATM   39  C   UNL     1       8.332  21.278  56.264  1.00  0.00     0.417 C 
HETATM   40  F   UNL     1       9.566  20.733  56.072  1.00  0.00    -0.166 F 
HETATM   41  F   UNL     1       8.393  21.907  57.472  1.00  0.00    -0.166 F 
HETATM   42  F   UNL     1       7.481  20.229  56.431  1.00  0.00    -0.166 F 
ENDBRANCH  35  39
ENDBRANCH  29  33
ENDBRANCH   4  27
TORSDOF 7
ENDMDL
