MODEL 1
REMARK VINA RESULT:     -10.0      0.000      0.000
REMARK  4 active torsions:
REMARK  status: ('A' for Active; 'I' for Inactive)
REMARK    1  A    between atoms: C_6  and  C_7 
REMARK    2  A    between atoms: C_10  and  N_11 
REMARK       I    between atoms: N_11  and  C_12 
REMARK    3  A    between atoms: C_24  and  C_25 
REMARK       I    between atoms: C_25  and  N_26 
REMARK    4  A    between atoms: N_26  and  C_27 
ROOT
HETATM    1  C   UNL     1       6.760  25.394  51.736  1.00  0.00     0.070 C 
HETATM    2  C   UNL     1       6.418  26.445  52.761  1.00  0.00     0.037 C 
HETATM    3  N   UNL     1       6.106  27.700  52.243  1.00  0.00    -0.193 N 
HETATM    4  C   UNL     1       5.383  28.612  52.925  1.00  0.00     0.709 A 
HETATM    5  N   UNL     1       5.172  28.424  54.267  1.00  0.00    -0.165 N 
HETATM    6  C   UNL     1       5.798  27.329  55.024  1.00  0.00     0.182 C 
HETATM    7  N   UNL     1       4.772  29.681  52.483  1.00  0.00    -0.062 NA
HETATM    8  C   UNL     1       4.086  30.171  53.573  1.00  0.00     0.103 A 
HETATM    9  C   UNL     1       4.306  29.391  54.708  1.00  0.00     0.082 A 
HETATM   10  C   UNL     1       3.237  31.286  53.661  1.00  0.00     0.034 A 
HETATM   11  C   UNL     1       2.629  31.575  54.889  1.00  0.00     0.002 A 
HETATM   12  C   UNL     1       2.863  30.774  56.009  1.00  0.00     0.002 A 
HETATM   13  C   UNL     1       3.711  29.663  55.944  1.00  0.00     0.032 A 
HETATM   14  C   UNL     1       6.301  26.229  54.097  1.00  0.00     0.061 C 
HETATM   15  H   UNL     1       6.103  27.794  51.231  1.00  0.00     0.184 HD
ENDROOT
BRANCH   6  16
HETATM   16  C   UNL     1       6.890  27.920  55.917  1.00  0.00    -0.030 A 
HETATM   17  C   UNL     1       6.783  27.831  57.312  1.00  0.00     0.012 A 
HETATM   18  C   UNL     1       7.675  28.518  58.147  1.00  0.00     0.030 A 
HETATM   19  C   UNL     1       8.698  29.296  57.608  1.00  0.00     0.034 A 
HETATM   20  C   UNL     1       8.856  29.328  56.217  1.00  0.00     0.030 A 
HETATM   21  C   UNL     1       7.963  28.652  55.380  1.00  0.00     0.012 A 
BRANCH  19  22
HETATM   22  N   UNL     1       9.572  30.099  58.370  1.00  0.00    -0.328 N 
HETATM   23  C   UNL     1       9.315  31.350  58.905  1.00  0.00     0.218 C 
HETATM   24  C   UNL     1      10.536  31.950  59.557  1.00  0.00     0.117 C 
HETATM   25  O   UNL     1       8.247  31.952  58.898  1.00  0.00    -0.274 OA
HETATM   26  H   UNL     1      10.514  29.746  58.478  1.00  0.00     0.169 HD
ENDBRANCH  19  22
ENDBRANCH   6  16
BRANCH  14  27
HETATM   27  C   UNL     1       6.437  24.897  54.750  1.00  0.00     0.256 C 
HETATM   28  N   UNL     1       7.623  24.251  54.480  1.00  0.00    -0.323 N 
HETATM   29  H   UNL     1       8.330  24.774  53.983  1.00  0.00     0.169 HD
HETATM   30  O   UNL     1       5.528  24.501  55.470  1.00  0.00    -0.267 OA
BRANCH  28  31
HETATM   31  C   UNL     1       7.923  22.894  54.732  1.00  0.00     0.035 A 
HETATM   32  C   UNL     1       8.240  22.384  55.994  1.00  0.00     0.029 A 
HETATM   33  C   UNL     1       8.459  21.014  56.174  1.00  0.00     0.002 A 
HETATM   34  C   UNL     1       8.361  20.140  55.095  1.00  0.00     0.000 A 
HETATM   35  C   UNL     1       8.052  20.637  53.831  1.00  0.00     0.002 A 
HETATM   36  C   UNL     1       7.838  22.006  53.651  1.00  0.00     0.029 A 
ENDBRANCH  28  31
ENDBRANCH  14  27
TORSDOF 4
ENDMDL
MODEL 2
REMARK VINA RESULT:      -8.9      2.882      7.346
REMARK  4 active torsions:
REMARK  status: ('A' for Active; 'I' for Inactive)
REMARK    1  A    between atoms: C_6  and  C_7 
REMARK    2  A    between atoms: C_10  and  N_11 
REMARK       I    between atoms: N_11  and  C_12 
REMARK    3  A    between atoms: C_24  and  C_25 
REMARK       I    between atoms: C_25  and  N_26 
REMARK    4  A    between atoms: N_26  and  C_27 
ROOT
HETATM    1  C   UNL     1      10.321  29.846  56.254  1.00  0.00     0.070 C 
HETATM    2  C   UNL     1       8.977  29.332  55.806  1.00  0.00     0.037 C 
HETATM    3  N   UNL     1       8.918  28.900  54.483  1.00  0.00    -0.193 N 
HETATM    4  C   UNL     1       7.978  28.042  54.037  1.00  0.00     0.709 A 
HETATM    5  N   UNL     1       6.882  27.790  54.822  1.00  0.00    -0.165 N 
HETATM    6  C   UNL     1       6.627  28.502  56.083  1.00  0.00     0.182 C 
HETATM    7  N   UNL     1       7.961  27.332  52.938  1.00  0.00    -0.062 NA
HETATM    8  C   UNL     1       6.839  26.540  53.047  1.00  0.00     0.103 A 
HETATM    9  C   UNL     1       6.147  26.794  54.231  1.00  0.00     0.082 A 
HETATM   10  C   UNL     1       6.352  25.562  52.165  1.00  0.00     0.034 A 
HETATM   11  C   UNL     1       5.187  24.865  52.508  1.00  0.00     0.002 A 
HETATM   12  C   UNL     1       4.516  25.136  53.702  1.00  0.00     0.002 A 
HETATM   13  C   UNL     1       4.981  26.111  54.591  1.00  0.00     0.032 A 
HETATM   14  C   UNL     1       7.890  29.176  56.605  1.00  0.00     0.061 C 
HETATM   15  H   UNL     1       9.780  28.936  53.947  1.00  0.00     0.184 HD
ENDROOT
BRANCH   6  16
HETATM   16  C   UNL     1       5.465  29.472  55.864  1.00  0.00    -0.030 A 
HETATM   17  C   UNL     1       4.512  29.667  56.874  1.00  0.00     0.012 A 
HETATM   18  C   UNL     1       3.347  30.409  56.631  1.00  0.00     0.030 A 
HETATM   19  C   UNL     1       3.117  30.981  55.381  1.00  0.00     0.034 A 
HETATM   20  C   UNL     1       4.100  30.853  54.393  1.00  0.00     0.030 A 
HETATM   21  C   UNL     1       5.258  30.106  54.628  1.00  0.00     0.012 A 
BRANCH  19  22
HETATM   22  N   UNL     1       1.930  31.653  55.022  1.00  0.00    -0.328 N 
HETATM   23  C   UNL     1       1.667  33.008  55.121  1.00  0.00     0.218 C 
HETATM   24  C   UNL     1       0.241  33.338  54.753  1.00  0.00     0.117 C 
HETATM   25  O   UNL     1       2.451  33.891  55.450  1.00  0.00    -0.274 OA
HETATM   26  H   UNL     1       1.164  31.064  54.722  1.00  0.00     0.169 HD
ENDBRANCH  19  22
ENDBRANCH   6  16
BRANCH  14  27
HETATM   27  C   UNL     1       7.879  29.436  58.073  1.00  0.00     0.256 C 
HETATM   28  N   UNL     1       7.774  30.767  58.412  1.00  0.00    -0.323 N 
HETATM   29  H   UNL     1       7.592  31.421  57.664  1.00  0.00     0.169 HD
HETATM   30  O   UNL     1       7.938  28.482  58.838  1.00  0.00    -0.267 OA
BRANCH  28  31
HETATM   31  C   UNL     1       8.002  31.335  59.686  1.00  0.00     0.035 A 
HETATM   32  C   UNL     1       6.997  31.886  60.486  1.00  0.00     0.029 A 
HETATM   33  C   UNL     1       7.291  32.369  61.765  1.00  0.00     0.002 A 
HETATM   34  C   UNL     1       8.591  32.304  62.258  1.00  0.00     0.000 A 
HETATM   35  C   UNL     1       9.602  31.763  61.468  1.00  0.00     0.002 A 
HETATM   36  C   UNL     1       9.308  31.284  60.188  1.00  0.00     0.029 A 
ENDBRANCH  28  31
ENDBRANCH  14  27
TORSDOF 4
ENDMDL
MODEL 3
REMARK VINA RESULT:      -8.8      4.049      6.874
REMARK  4 active torsions:
REMARK  status: ('A' for Active; 'I' for Inactive)
REMARK    1  A    between atoms: C_6  and  C_7 
REMARK    2  A    between atoms: C_10  and  N_11 
REMARK       I    between atoms: N_11  and  C_12 
REMARK    3  A    between atoms: C_24  and  C_25 
REMARK       I    between atoms: C_25  and  N_26 
REMARK    4  A    between atoms: N_26  and  C_27 
ROOT
HETATM    1  C   UNL     1       6.845  25.658  52.345  1.00  0.00     0.070 C 
HETATM    2  C   UNL     1       5.981  26.640  51.594  1.00  0.00     0.037 C 
HETATM    3  N   UNL     1       5.779  26.345  50.249  1.00  0.00    -0.193 N 
HETATM    4  C   UNL     1       4.735  26.829  49.544  1.00  0.00     0.709 A 
HETATM    5  N   UNL     1       3.996  27.856  50.073  1.00  0.00    -0.165 N 
HETATM    6  C   UNL     1       4.360  28.535  51.325  1.00  0.00     0.182 C 
HETATM    7  N   UNL     1       4.253  26.424  48.397  1.00  0.00    -0.062 NA
HETATM    8  C   UNL     1       3.117  27.180  48.205  1.00  0.00     0.103 A 
HETATM    9  C   UNL     1       2.921  28.080  49.252  1.00  0.00     0.082 A 
HETATM   10  C   UNL     1       2.191  27.141  47.151  1.00  0.00     0.034 A 
HETATM   11  C   UNL     1       1.089  28.004  47.190  1.00  0.00     0.002 A 
HETATM   12  C   UNL     1       0.914  28.893  48.252  1.00  0.00     0.002 A 
HETATM   13  C   UNL     1       1.829  28.953  49.309  1.00  0.00     0.032 A 
HETATM   14  C   UNL     1       5.333  27.697  52.148  1.00  0.00     0.061 C 
HETATM   15  H   UNL     1       6.197  25.488  49.896  1.00  0.00     0.184 HD
ENDROOT
BRANCH   6  16
HETATM   16  C   UNL     1       4.894  29.927  50.984  1.00  0.00    -0.030 A 
HETATM   17  C   UNL     1       4.364  31.058  51.621  1.00  0.00     0.012 A 
HETATM   18  C   UNL     1       4.708  32.349  51.198  1.00  0.00     0.030 A 
HETATM   19  C   UNL     1       5.597  32.537  50.141  1.00  0.00     0.034 A 
HETATM   20  C   UNL     1       6.186  31.414  49.552  1.00  0.00     0.030 A 
HETATM   21  C   UNL     1       5.839  30.123  49.965  1.00  0.00     0.012 A 
BRANCH  19  22
HETATM   22  N   UNL     1       5.917  33.795  49.587  1.00  0.00    -0.328 N 
HETATM   23  C   UNL     1       6.379  34.915  50.254  1.00  0.00     0.218 C 
HETATM   24  C   UNL     1       6.494  36.112  49.342  1.00  0.00     0.117 C 
HETATM   25  O   UNL     1       6.690  34.996  51.437  1.00  0.00    -0.274 OA
HETATM   26  H   UNL     1       5.719  33.904  48.601  1.00  0.00     0.169 HD
ENDBRANCH  19  22
ENDBRANCH   6  16
BRANCH  14  27
HETATM   27  C   UNL     1       5.328  28.015  53.604  1.00  0.00     0.256 C 
HETATM   28  N   UNL     1       6.478  28.624  54.055  1.00  0.00    -0.323 N 
HETATM   29  H   UNL     1       7.152  28.911  53.359  1.00  0.00     0.169 HD
HETATM   30  O   UNL     1       4.332  27.741  54.262  1.00  0.00    -0.267 OA
BRANCH  28  31
HETATM   31  C   UNL     1       6.870  28.800  55.401  1.00  0.00     0.035 A 
HETATM   32  C   UNL     1       6.391  29.820  56.227  1.00  0.00     0.029 A 
HETATM   33  C   UNL     1       6.776  29.888  57.570  1.00  0.00     0.002 A 
HETATM   34  C   UNL     1       7.641  28.935  58.101  1.00  0.00     0.000 A 
HETATM   35  C   UNL     1       8.130  27.918  57.286  1.00  0.00     0.002 A 
HETATM   36  C   UNL     1       7.749  27.853  55.943  1.00  0.00     0.029 A 
ENDBRANCH  28  31
ENDBRANCH  14  27
TORSDOF 4
ENDMDL
MODEL 4
REMARK VINA RESULT:      -8.7      3.288      8.196
REMARK  4 active torsions:
REMARK  status: ('A' for Active; 'I' for Inactive)
REMARK    1  A    between atoms: C_6  and  C_7 
REMARK    2  A    between atoms: C_10  and  N_11 
REMARK       I    between atoms: N_11  and  C_12 
REMARK    3  A    between atoms: C_24  and  C_25 
REMARK       I    between atoms: C_25  and  N_26 
REMARK    4  A    between atoms: N_26  and  C_27 
ROOT
HETATM    1  C   UNL     1      10.868  30.843  57.560  1.00  0.00     0.070 C 
HETATM    2  C   UNL     1       9.493  30.258  57.361  1.00  0.00     0.037 C 
HETATM    3  N   UNL     1       9.394  29.306  56.349  1.00  0.00    -0.193 N 
HETATM    4  C   UNL     1       8.406  28.389  56.303  1.00  0.00     0.709 A 
HETATM    5  N   UNL     1       7.309  28.554  57.110  1.00  0.00    -0.165 N 
HETATM    6  C   UNL     1       7.108  29.749  57.943  1.00  0.00     0.182 C 
HETATM    7  N   UNL     1       8.338  27.280  55.613  1.00  0.00    -0.062 NA
HETATM    8  C   UNL     1       7.178  26.670  56.038  1.00  0.00     0.103 A 
HETATM    9  C   UNL     1       6.517  27.441  56.993  1.00  0.00     0.082 A 
HETATM   10  C   UNL     1       6.630  25.436  55.654  1.00  0.00     0.034 A 
HETATM   11  C   UNL     1       5.436  25.013  56.251  1.00  0.00     0.002 A 
HETATM   12  C   UNL     1       4.796  25.803  57.208  1.00  0.00     0.002 A 
HETATM   13  C   UNL     1       5.322  27.039  57.600  1.00  0.00     0.032 A 
HETATM   14  C   UNL     1       8.411  30.515  58.140  1.00  0.00     0.061 C 
HETATM   15  H   UNL     1      10.250  29.065  55.857  1.00  0.00     0.184 HD
ENDROOT
BRANCH   6  16
HETATM   16  C   UNL     1       5.994  30.591  57.320  1.00  0.00    -0.030 A 
HETATM   17  C   UNL     1       5.699  30.468  55.955  1.00  0.00     0.012 A 
HETATM   18  C   UNL     1       4.811  31.352  55.327  1.00  0.00     0.030 A 
HETATM   19  C   UNL     1       4.190  32.369  56.052  1.00  0.00     0.034 A 
HETATM   20  C   UNL     1       4.423  32.450  57.430  1.00  0.00     0.030 A 
HETATM   21  C   UNL     1       5.315  31.575  58.058  1.00  0.00     0.012 A 
BRANCH  19  22
HETATM   22  N   UNL     1       3.366  33.362  55.481  1.00  0.00    -0.328 N 
HETATM   23  C   UNL     1       2.014  33.273  55.200  1.00  0.00     0.218 C 
HETATM   24  C   UNL     1       1.504  34.497  54.479  1.00  0.00     0.117 C 
HETATM   25  O   UNL     1       1.258  32.351  55.483  1.00  0.00    -0.274 OA
HETATM   26  H   UNL     1       3.836  34.206  55.184  1.00  0.00     0.169 HD
ENDBRANCH  19  22
ENDBRANCH   6  16
BRANCH  14  27
HETATM   27  C   UNL     1       8.433  31.377  59.355  1.00  0.00     0.256 C 
HETATM   28  N   UNL     1       7.811  30.825  60.453  1.00  0.00    -0.323 N 
HETATM   29  H   UNL     1       7.515  29.862  60.380  1.00  0.00     0.169 HD
HETATM   30  O   UNL     1       9.000  32.461  59.296  1.00  0.00    -0.267 OA
BRANCH  28  31
HETATM   31  C   UNL     1       7.444  31.494  61.642  1.00  0.00     0.035 A 
HETATM   32  C   UNL     1       8.346  31.849  62.649  1.00  0.00     0.029 A 
HETATM   33  C   UNL     1       7.916  32.571  63.768  1.00  0.00     0.002 A 
HETATM   34  C   UNL     1       6.581  32.947  63.889  1.00  0.00     0.000 A 
HETATM   35  C   UNL     1       5.672  32.594  62.896  1.00  0.00     0.002 A 
HETATM   36  C   UNL     1       6.101  31.868  61.781  1.00  0.00     0.029 A 
ENDBRANCH  28  31
ENDBRANCH  14  27
TORSDOF 4
ENDMDL
MODEL 5
REMARK VINA RESULT:      -8.7      4.278      7.623
REMARK  4 active torsions:
REMARK  status: ('A' for Active; 'I' for Inactive)
REMARK    1  A    between atoms: C_6  and  C_7 
REMARK    2  A    between atoms: C_10  and  N_11 
REMARK       I    between atoms: N_11  and  C_12 
REMARK    3  A    between atoms: C_24  and  C_25 
REMARK       I    between atoms: C_25  and  N_26 
REMARK    4  A    between atoms: N_26  and  C_27 
ROOT
HETATM    1  C   UNL     1       3.861  29.202  55.596  1.00  0.00     0.070 C 
HETATM    2  C   UNL     1       4.003  29.504  54.125  1.00  0.00     0.037 C 
HETATM    3  N   UNL     1       3.760  30.828  53.766  1.00  0.00    -0.193 N 
HETATM    4  C   UNL     1       4.236  31.374  52.628  1.00  0.00     0.709 A 
HETATM    5  N   UNL     1       4.743  30.549  51.657  1.00  0.00    -0.165 N 
HETATM    6  C   UNL     1       4.687  29.083  51.750  1.00  0.00     0.182 C 
HETATM    7  N   UNL     1       4.346  32.636  52.299  1.00  0.00    -0.062 NA
HETATM    8  C   UNL     1       5.010  32.630  51.092  1.00  0.00     0.103 A 
HETATM    9  C   UNL     1       5.288  31.330  50.669  1.00  0.00     0.082 A 
HETATM   10  C   UNL     1       5.421  33.712  50.298  1.00  0.00     0.034 A 
HETATM   11  C   UNL     1       6.108  33.450  49.106  1.00  0.00     0.002 A 
HETATM   12  C   UNL     1       6.378  32.139  48.709  1.00  0.00     0.002 A 
HETATM   13  C   UNL     1       5.970  31.047  49.482  1.00  0.00     0.032 A 
HETATM   14  C   UNL     1       4.432  28.627  53.182  1.00  0.00     0.061 C 
HETATM   15  H   UNL     1       3.542  31.478  54.516  1.00  0.00     0.184 HD
ENDROOT
BRANCH   6  16
HETATM   16  C   UNL     1       3.643  28.575  50.755  1.00  0.00    -0.030 A 
HETATM   17  C   UNL     1       4.018  27.690  49.733  1.00  0.00     0.012 A 
HETATM   18  C   UNL     1       3.123  27.354  48.708  1.00  0.00     0.030 A 
HETATM   19  C   UNL     1       1.833  27.883  48.689  1.00  0.00     0.034 A 
HETATM   20  C   UNL     1       1.429  28.706  49.746  1.00  0.00     0.030 A 
HETATM   21  C   UNL     1       2.322  29.051  50.766  1.00  0.00     0.012 A 
BRANCH  19  22
HETATM   22  N   UNL     1       0.907  27.679  47.645  1.00  0.00    -0.328 N 
HETATM   23  C   UNL     1       0.636  28.525  46.583  1.00  0.00     0.218 C 
HETATM   24  C   UNL     1      -0.506  28.023  45.735  1.00  0.00     0.117 C 
HETATM   25  O   UNL     1       1.220  29.565  46.298  1.00  0.00    -0.274 OA
HETATM   26  H   UNL     1       0.329  26.853  47.723  1.00  0.00     0.169 HD
ENDBRANCH  19  22
ENDBRANCH   6  16
BRANCH  14  27
HETATM   27  C   UNL     1       4.889  27.238  53.469  1.00  0.00     0.256 C 
HETATM   28  N   UNL     1       6.247  27.116  53.665  1.00  0.00    -0.323 N 
HETATM   29  H   UNL     1       6.783  27.971  53.723  1.00  0.00     0.169 HD
HETATM   30  O   UNL     1       4.052  26.346  53.529  1.00  0.00    -0.267 OA
BRANCH  28  31
HETATM   31  C   UNL     1       6.994  25.917  53.690  1.00  0.00     0.035 A 
HETATM   32  C   UNL     1       7.381  25.262  54.862  1.00  0.00     0.029 A 
HETATM   33  C   UNL     1       8.062  24.041  54.802  1.00  0.00     0.002 A 
HETATM   34  C   UNL     1       8.361  23.464  53.572  1.00  0.00     0.000 A 
HETATM   35  C   UNL     1       7.986  24.110  52.397  1.00  0.00     0.002 A 
HETATM   36  C   UNL     1       7.310  25.332  52.457  1.00  0.00     0.029 A 
ENDBRANCH  28  31
ENDBRANCH  14  27
TORSDOF 4
ENDMDL
MODEL 6
REMARK VINA RESULT:      -8.6      6.419     10.806
REMARK  4 active torsions:
REMARK  status: ('A' for Active; 'I' for Inactive)
REMARK    1  A    between atoms: C_6  and  C_7 
REMARK    2  A    between atoms: C_10  and  N_11 
REMARK       I    between atoms: N_11  and  C_12 
REMARK    3  A    between atoms: C_24  and  C_25 
REMARK       I    between atoms: C_25  and  N_26 
REMARK    4  A    between atoms: N_26  and  C_27 
ROOT
HETATM    1  C   UNL     1       8.421  32.505  62.362  1.00  0.00     0.070 C 
HETATM    2  C   UNL     1       7.266  32.517  61.393  1.00  0.00     0.037 C 
HETATM    3  N   UNL     1       7.615  32.375  60.052  1.00  0.00    -0.193 N 
HETATM    4  C   UNL     1       6.747  31.943  59.114  1.00  0.00     0.709 A 
HETATM    5  N   UNL     1       5.410  31.897  59.417  1.00  0.00    -0.165 N 
HETATM    6  C   UNL     1       4.863  32.408  60.682  1.00  0.00     0.182 C 
HETATM    7  N   UNL     1       6.989  31.487  57.912  1.00  0.00    -0.062 NA
HETATM    8  C   UNL     1       5.764  31.069  57.440  1.00  0.00     0.103 A 
HETATM    9  C   UNL     1       4.752  31.300  58.372  1.00  0.00     0.082 A 
HETATM   10  C   UNL     1       5.442  30.467  56.213  1.00  0.00     0.034 A 
HETATM   11  C   UNL     1       4.111  30.107  55.968  1.00  0.00     0.002 A 
HETATM   12  C   UNL     1       3.118  30.346  56.920  1.00  0.00     0.002 A 
HETATM   13  C   UNL     1       3.416  30.951  58.146  1.00  0.00     0.032 A 
HETATM   14  C   UNL     1       5.953  32.556  61.738  1.00  0.00     0.061 C 
HETATM   15  H   UNL     1       8.601  32.245  59.843  1.00  0.00     0.184 HD
ENDROOT
BRANCH   6  16
HETATM   16  C   UNL     1       4.113  33.709  60.395  1.00  0.00    -0.030 A 
HETATM   17  C   UNL     1       4.563  34.572  59.386  1.00  0.00     0.012 A 
HETATM   18  C   UNL     1       4.002  35.847  59.225  1.00  0.00     0.030 A 
HETATM   19  C   UNL     1       2.973  36.279  60.060  1.00  0.00     0.034 A 
HETATM   20  C   UNL     1       2.469  35.394  61.019  1.00  0.00     0.030 A 
HETATM   21  C   UNL     1       3.032  34.125  61.188  1.00  0.00     0.012 A 
BRANCH  19  22
HETATM   22  N   UNL     1       2.423  37.579  60.035  1.00  0.00    -0.328 N 
HETATM   23  C   UNL     1       2.983  38.739  60.541  1.00  0.00     0.218 C 
HETATM   24  C   UNL     1       2.044  39.915  60.436  1.00  0.00     0.117 C 
HETATM   25  O   UNL     1       4.104  38.872  61.018  1.00  0.00    -0.274 OA
HETATM   26  H   UNL     1       1.485  37.653  59.666  1.00  0.00     0.169 HD
ENDBRANCH  19  22
ENDBRANCH   6  16
BRANCH  14  27
HETATM   27  C   UNL     1       5.449  32.532  63.140  1.00  0.00     0.256 C 
HETATM   28  N   UNL     1       5.660  33.700  63.839  1.00  0.00    -0.323 N 
HETATM   29  H   UNL     1       6.013  34.491  63.319  1.00  0.00     0.169 HD
HETATM   30  O   UNL     1       4.885  31.522  63.544  1.00  0.00    -0.267 OA
BRANCH  28  31
HETATM   31  C   UNL     1       5.538  33.884  65.235  1.00  0.00     0.035 A 
HETATM   32  C   UNL     1       6.622  33.923  66.115  1.00  0.00     0.029 A 
HETATM   33  C   UNL     1       6.424  34.177  67.477  1.00  0.00     0.002 A 
HETATM   34  C   UNL     1       5.141  34.396  67.970  1.00  0.00     0.000 A 
HETATM   35  C   UNL     1       4.053  34.353  67.104  1.00  0.00     0.002 A 
HETATM   36  C   UNL     1       4.250  34.095  65.744  1.00  0.00     0.029 A 
ENDBRANCH  28  31
ENDBRANCH  14  27
TORSDOF 4
ENDMDL
MODEL 7
REMARK VINA RESULT:      -8.2      4.638      9.744
REMARK  4 active torsions:
REMARK  status: ('A' for Active; 'I' for Inactive)
REMARK    1  A    between atoms: C_6  and  C_7 
REMARK    2  A    between atoms: C_10  and  N_11 
REMARK       I    between atoms: N_11  and  C_12 
REMARK    3  A    between atoms: C_24  and  C_25 
REMARK       I    between atoms: C_25  and  N_26 
REMARK    4  A    between atoms: N_26  and  C_27 
ROOT
HETATM    1  C   UNL     1       9.817  32.099  61.425  1.00  0.00     0.070 C 
HETATM    2  C   UNL     1       8.717  31.785  60.443  1.00  0.00     0.037 C 
HETATM    3  N   UNL     1       9.141  31.509  59.145  1.00  0.00    -0.193 N 
HETATM    4  C   UNL     1       8.393  30.811  58.265  1.00  0.00     0.709 A 
HETATM    5  N   UNL     1       7.069  30.594  58.545  1.00  0.00    -0.165 N 
HETATM    6  C   UNL     1       6.394  31.187  59.709  1.00  0.00     0.182 C 
HETATM    7  N   UNL     1       8.755  30.232  57.149  1.00  0.00    -0.062 NA
HETATM    8  C   UNL     1       7.632  29.558  56.721  1.00  0.00     0.103 A 
HETATM    9  C   UNL     1       6.558  29.754  57.588  1.00  0.00     0.082 A 
HETATM   10  C   UNL     1       7.462  28.742  55.592  1.00  0.00     0.034 A 
HETATM   11  C   UNL     1       6.216  28.140  55.377  1.00  0.00     0.002 A 
HETATM   12  C   UNL     1       5.158  28.350  56.264  1.00  0.00     0.002 A 
HETATM   13  C   UNL     1       5.304  29.166  57.391  1.00  0.00     0.032 A 
HETATM   14  C   UNL     1       7.400  31.660  60.752  1.00  0.00     0.061 C 
HETATM   15  H   UNL     1      10.143  31.511  58.977  1.00  0.00     0.184 HD
ENDROOT
BRANCH   6  16
HETATM   16  C   UNL     1       5.462  32.294  59.217  1.00  0.00    -0.030 A 
HETATM   17  C   UNL     1       4.253  32.543  59.881  1.00  0.00     0.012 A 
HETATM   18  C   UNL     1       3.305  33.426  59.345  1.00  0.00     0.030 A 
HETATM   19  C   UNL     1       3.550  34.087  58.143  1.00  0.00     0.034 A 
HETATM   20  C   UNL     1       4.787  33.901  57.514  1.00  0.00     0.030 A 
HETATM   21  C   UNL     1       5.731  33.014  58.041  1.00  0.00     0.012 A 
BRANCH  19  22
HETATM   22  N   UNL     1       2.613  34.910  57.483  1.00  0.00    -0.328 N 
HETATM   23  C   UNL     1       1.812  34.575  56.405  1.00  0.00     0.218 C 
HETATM   24  C   UNL     1       1.023  35.757  55.896  1.00  0.00     0.117 C 
HETATM   25  O   UNL     1       1.696  33.472  55.883  1.00  0.00    -0.274 OA
HETATM   26  H   UNL     1       2.576  35.871  57.793  1.00  0.00     0.169 HD
ENDBRANCH  19  22
ENDBRANCH   6  16
BRANCH  14  27
HETATM   27  C   UNL     1       6.846  31.757  62.132  1.00  0.00     0.256 C 
HETATM   28  N   UNL     1       6.586  33.043  62.550  1.00  0.00    -0.323 N 
HETATM   29  H   UNL     1       6.669  33.778  61.861  1.00  0.00     0.169 HD
HETATM   30  O   UNL     1       6.650  30.724  62.760  1.00  0.00    -0.267 OA
BRANCH  28  31
HETATM   31  C   UNL     1       6.315  33.465  63.871  1.00  0.00     0.035 A 
HETATM   32  C   UNL     1       7.275  33.525  64.884  1.00  0.00     0.029 A 
HETATM   33  C   UNL     1       6.944  34.018  66.151  1.00  0.00     0.002 A 
HETATM   34  C   UNL     1       5.650  34.458  66.416  1.00  0.00     0.000 A 
HETATM   35  C   UNL     1       4.683  34.398  65.416  1.00  0.00     0.002 A 
HETATM   36  C   UNL     1       5.014  33.900  64.152  1.00  0.00     0.029 A 
ENDBRANCH  28  31
ENDBRANCH  14  27
TORSDOF 4
ENDMDL
MODEL 8
REMARK VINA RESULT:      -7.8      4.823      9.219
REMARK  4 active torsions:
REMARK  status: ('A' for Active; 'I' for Inactive)
REMARK    1  A    between atoms: C_6  and  C_7 
REMARK    2  A    between atoms: C_10  and  N_11 
REMARK       I    between atoms: N_11  and  C_12 
REMARK    3  A    between atoms: C_24  and  C_25 
REMARK       I    between atoms: C_25  and  N_26 
REMARK    4  A    between atoms: N_26  and  C_27 
ROOT
HETATM    1  C   UNL     1       1.621  33.104  49.809  1.00  0.00     0.070 C 
HETATM    2  C   UNL     1       2.227  31.726  49.885  1.00  0.00     0.037 C 
HETATM    3  N   UNL     1       1.364  30.679  49.569  1.00  0.00    -0.193 N 
HETATM    4  C   UNL     1       1.801  29.467  49.170  1.00  0.00     0.709 A 
HETATM    5  N   UNL     1       3.126  29.152  49.335  1.00  0.00    -0.165 N 
HETATM    6  C   UNL     1       4.071  30.033  50.036  1.00  0.00     0.182 C 
HETATM    7  N   UNL     1       1.144  28.507  48.571  1.00  0.00    -0.062 NA
HETATM    8  C   UNL     1       2.098  27.555  48.281  1.00  0.00     0.103 A 
HETATM    9  C   UNL     1       3.358  27.941  48.736  1.00  0.00     0.082 A 
HETATM   10  C   UNL     1       1.955  26.329  47.613  1.00  0.00     0.034 A 
HETATM   11  C   UNL     1       3.089  25.533  47.416  1.00  0.00     0.002 A 
HETATM   12  C   UNL     1       4.341  25.944  47.877  1.00  0.00     0.002 A 
HETATM   13  C   UNL     1       4.504  27.159  48.552  1.00  0.00     0.032 A 
HETATM   14  C   UNL     1       3.534  31.456  50.135  1.00  0.00     0.061 C 
HETATM   15  H   UNL     1       0.420  30.929  49.285  1.00  0.00     0.184 HD
ENDROOT
BRANCH   6  16
HETATM   16  C   UNL     1       4.400  29.410  51.393  1.00  0.00    -0.030 A 
HETATM   17  C   UNL     1       5.700  28.962  51.665  1.00  0.00     0.012 A 
HETATM   18  C   UNL     1       5.981  28.229  52.827  1.00  0.00     0.030 A 
HETATM   19  C   UNL     1       4.973  27.940  53.745  1.00  0.00     0.034 A 
HETATM   20  C   UNL     1       3.690  28.448  53.516  1.00  0.00     0.030 A 
HETATM   21  C   UNL     1       3.403  29.172  52.354  1.00  0.00     0.012 A 
BRANCH  19  22
HETATM   22  N   UNL     1       5.146  27.124  54.883  1.00  0.00    -0.328 N 
HETATM   23  C   UNL     1       5.440  25.772  54.912  1.00  0.00     0.218 C 
HETATM   24  C   UNL     1       5.428  25.219  56.316  1.00  0.00     0.117 C 
HETATM   25  O   UNL     1       5.703  25.051  53.956  1.00  0.00    -0.274 OA
HETATM   26  H   UNL     1       4.965  27.567  55.774  1.00  0.00     0.169 HD
ENDBRANCH  19  22
ENDBRANCH   6  16
BRANCH  14  27
HETATM   27  C   UNL     1       4.589  32.494  50.315  1.00  0.00     0.256 C 
HETATM   28  N   UNL     1       4.975  33.119  49.150  1.00  0.00    -0.323 N 
HETATM   29  H   UNL     1       4.437  32.917  48.319  1.00  0.00     0.169 HD
HETATM   30  O   UNL     1       5.002  32.720  51.446  1.00  0.00    -0.267 OA
BRANCH  28  31
HETATM   31  C   UNL     1       6.113  33.934  48.966  1.00  0.00     0.035 A 
HETATM   32  C   UNL     1       7.152  33.637  48.080  1.00  0.00     0.029 A 
HETATM   33  C   UNL     1       8.215  34.530  47.904  1.00  0.00     0.002 A 
HETATM   34  C   UNL     1       8.248  35.729  48.609  1.00  0.00     0.000 A 
HETATM   35  C   UNL     1       7.222  36.034  49.499  1.00  0.00     0.002 A 
HETATM   36  C   UNL     1       6.163  35.139  49.679  1.00  0.00     0.029 A 
ENDBRANCH  28  31
ENDBRANCH  14  27
TORSDOF 4
ENDMDL
MODEL 9
REMARK VINA RESULT:      -7.7      3.481      9.064
REMARK  4 active torsions:
REMARK  status: ('A' for Active; 'I' for Inactive)
REMARK    1  A    between atoms: C_6  and  C_7 
REMARK    2  A    between atoms: C_10  and  N_11 
REMARK       I    between atoms: N_11  and  C_12 
REMARK    3  A    between atoms: C_24  and  C_25 
REMARK       I    between atoms: C_25  and  N_26 
REMARK    4  A    between atoms: N_26  and  C_27 
ROOT
HETATM    1  C   UNL     1       9.412  32.146  59.559  1.00  0.00     0.070 C 
HETATM    2  C   UNL     1       8.374  31.366  58.793  1.00  0.00     0.037 C 
HETATM    3  N   UNL     1       8.874  30.534  57.794  1.00  0.00    -0.193 N 
HETATM    4  C   UNL     1       8.189  29.477  57.313  1.00  0.00     0.709 A 
HETATM    5  N   UNL     1       6.854  29.362  57.607  1.00  0.00    -0.165 N 
HETATM    6  C   UNL     1       6.106  30.401  58.329  1.00  0.00     0.182 C 
HETATM    7  N   UNL     1       8.621  28.459  56.614  1.00  0.00    -0.062 NA
HETATM    8  C   UNL     1       7.535  27.619  56.504  1.00  0.00     0.103 A 
HETATM    9  C   UNL     1       6.411  28.153  57.134  1.00  0.00     0.082 A 
HETATM   10  C   UNL     1       7.442  26.363  55.883  1.00  0.00     0.034 A 
HETATM   11  C   UNL     1       6.219  25.681  55.922  1.00  0.00     0.002 A 
HETATM   12  C   UNL     1       5.110  26.237  56.563  1.00  0.00     0.002 A 
HETATM   13  C   UNL     1       5.181  27.490  57.182  1.00  0.00     0.032 A 
HETATM   14  C   UNL     1       7.045  31.347  59.070  1.00  0.00     0.061 C 
HETATM   15  H   UNL     1       9.884  30.498  57.686  1.00  0.00     0.184 HD
ENDROOT
BRANCH   6  16
HETATM   16  C   UNL     1       5.185  31.112  57.337  1.00  0.00    -0.030 A 
HETATM   17  C   UNL     1       3.819  30.797  57.295  1.00  0.00     0.012 A 
HETATM   18  C   UNL     1       2.994  31.301  56.280  1.00  0.00     0.030 A 
HETATM   19  C   UNL     1       3.513  32.140  55.295  1.00  0.00     0.034 A 
HETATM   20  C   UNL     1       4.858  32.518  55.374  1.00  0.00     0.030 A 
HETATM   21  C   UNL     1       5.686  32.010  56.380  1.00  0.00     0.012 A 
BRANCH  19  22
HETATM   22  N   UNL     1       2.780  32.607  54.183  1.00  0.00    -0.328 N 
HETATM   23  C   UNL     1       2.715  32.044  52.921  1.00  0.00     0.218 C 
HETATM   24  C   UNL     1       1.925  32.896  51.959  1.00  0.00     0.117 C 
HETATM   25  O   UNL     1       3.205  30.979  52.560  1.00  0.00    -0.274 OA
HETATM   26  H   UNL     1       2.305  33.491  54.309  1.00  0.00     0.169 HD
ENDBRANCH  19  22
ENDBRANCH   6  16
BRANCH  14  27
HETATM   27  C   UNL     1       6.413  32.054  60.220  1.00  0.00     0.256 C 
HETATM   28  N   UNL     1       7.292  32.781  60.991  1.00  0.00    -0.323 N 
HETATM   29  H   UNL     1       8.238  32.874  60.648  1.00  0.00     0.169 HD
HETATM   30  O   UNL     1       5.202  31.957  60.374  1.00  0.00    -0.267 OA
BRANCH  28  31
HETATM   31  C   UNL     1       7.044  33.327  62.270  1.00  0.00     0.035 A 
HETATM   32  C   UNL     1       6.159  34.381  62.511  1.00  0.00     0.029 A 
HETATM   33  C   UNL     1       5.916  34.822  63.816  1.00  0.00     0.002 A 
HETATM   34  C   UNL     1       6.552  34.212  64.893  1.00  0.00     0.000 A 
HETATM   35  C   UNL     1       7.440  33.164  64.665  1.00  0.00     0.002 A 
HETATM   36  C   UNL     1       7.687  32.727  63.360  1.00  0.00     0.029 A 
ENDBRANCH  28  31
ENDBRANCH  14  27
TORSDOF 4
ENDMDL
MODEL 10
REMARK VINA RESULT:      -7.6      4.019      8.761
REMARK  4 active torsions:
REMARK  status: ('A' for Active; 'I' for Inactive)
REMARK    1  A    between atoms: C_6  and  C_7 
REMARK    2  A    between atoms: C_10  and  N_11 
REMARK       I    between atoms: N_11  and  C_12 
REMARK    3  A    between atoms: C_24  and  C_25 
REMARK       I    between atoms: C_25  and  N_26 
REMARK    4  A    between atoms: N_26  and  C_27 
ROOT
HETATM    1  C   UNL     1       1.130  32.811  50.745  1.00  0.00     0.070 C 
HETATM    2  C   UNL     1       1.929  31.535  50.657  1.00  0.00     0.037 C 
HETATM    3  N   UNL     1       1.206  30.409  50.271  1.00  0.00    -0.193 N 
HETATM    4  C   UNL     1       1.788  29.316  49.734  1.00  0.00     0.709 A 
HETATM    5  N   UNL     1       3.151  29.184  49.813  1.00  0.00    -0.165 N 
HETATM    6  C   UNL     1       4.000  30.124  50.560  1.00  0.00     0.182 C 
HETATM    7  N   UNL     1       1.242  28.331  49.069  1.00  0.00    -0.062 NA
HETATM    8  C   UNL     1       2.303  27.561  48.645  1.00  0.00     0.103 A 
HETATM    9  C   UNL     1       3.520  28.082  49.085  1.00  0.00     0.082 A 
HETATM   10  C   UNL     1       2.299  26.395  47.863  1.00  0.00     0.034 A 
HETATM   11  C   UNL     1       3.522  25.795  47.540  1.00  0.00     0.002 A 
HETATM   12  C   UNL     1       4.727  26.340  47.990  1.00  0.00     0.002 A 
HETATM   13  C   UNL     1       4.753  27.497  48.777  1.00  0.00     0.032 A 
HETATM   14  C   UNL     1       3.273  31.438  50.825  1.00  0.00     0.061 C 
HETATM   15  H   UNL     1       0.223  30.543  50.054  1.00  0.00     0.184 HD
ENDROOT
BRANCH   6  16
HETATM   16  C   UNL     1       4.487  29.431  51.832  1.00  0.00    -0.030 A 
HETATM   17  C   UNL     1       5.799  28.941  51.908  1.00  0.00     0.012 A 
HETATM   18  C   UNL     1       6.210  28.148  52.988  1.00  0.00     0.030 A 
HETATM   19  C   UNL     1       5.325  27.839  54.020  1.00  0.00     0.034 A 
HETATM   20  C   UNL     1       4.038  28.388  53.988  1.00  0.00     0.030 A 
HETATM   21  C   UNL     1       3.621  29.172  52.907  1.00  0.00     0.012 A 
BRANCH  19  22
HETATM   22  N   UNL     1       5.623  26.968  55.089  1.00  0.00    -0.328 N 
HETATM   23  C   UNL     1       5.628  25.584  55.070  1.00  0.00     0.218 C 
HETATM   24  C   UNL     1       5.878  24.998  56.437  1.00  0.00     0.117 C 
HETATM   25  O   UNL     1       5.468  24.857  54.095  1.00  0.00    -0.274 OA
HETATM   26  H   UNL     1       5.785  27.408  55.985  1.00  0.00     0.169 HD
ENDBRANCH  19  22
ENDBRANCH   6  16
BRANCH  14  27
HETATM   27  C   UNL     1       4.179  32.597  51.065  1.00  0.00     0.256 C 
HETATM   28  N   UNL     1       4.567  32.750  52.378  1.00  0.00    -0.323 N 
HETATM   29  H   UNL     1       4.316  32.014  53.022  1.00  0.00     0.169 HD
HETATM   30  O   UNL     1       4.516  33.286  50.111  1.00  0.00    -0.267 OA
BRANCH  28  31
HETATM   31  C   UNL     1       5.190  33.883  52.948  1.00  0.00     0.035 A 
HETATM   32  C   UNL     1       4.842  34.424  54.189  1.00  0.00     0.029 A 
HETATM   33  C   UNL     1       5.552  35.508  54.716  1.00  0.00     0.002 A 
HETATM   34  C   UNL     1       6.618  36.059  54.011  1.00  0.00     0.000 A 
HETATM   35  C   UNL     1       6.970  35.533  52.771  1.00  0.00     0.002 A 
HETATM   36  C   UNL     1       6.257  34.453  52.241  1.00  0.00     0.029 A 
ENDBRANCH  28  31
ENDBRANCH  14  27
TORSDOF 4
ENDMDL
