MODEL 1
REMARK VINA RESULT:      -8.8      0.000      0.000
REMARK  6 active torsions:
REMARK  status: ('A' for Active; 'I' for Inactive)
REMARK    1  A    between atoms: C_8  and  N_9 
REMARK       I    between atoms: N_9  and  C_10 
REMARK    2  A    between atoms: C_10  and  C_11 
REMARK    3  A    between atoms: C_11  and  N_12 
REMARK    4  A    between atoms: N_12  and  C_13 
REMARK    5  A    between atoms: C_13  and  C_14 
REMARK    6  A    between atoms: C_15  and  C_16 
ROOT
HETATM    1  N   UNL     1       7.182  26.439  56.969  1.00  0.00     0.100 N 
HETATM    2  H   UNL     1       7.708  26.324  57.838  1.00  0.00     0.317 HD
ENDROOT
BRANCH   1   3
HETATM    3  C   UNL     1       6.271  27.596  57.146  1.00  0.00     0.372 C 
BRANCH   3   4
HETATM    4  C   UNL     1       7.039  28.919  57.008  1.00  0.00     0.250 C 
HETATM    5  N   UNL     1       7.904  29.135  58.060  1.00  0.00    -0.322 N 
HETATM    6  H   UNL     1       7.943  28.380  58.740  1.00  0.00     0.169 HD
HETATM    7  O   UNL     1       6.870  29.637  56.029  1.00  0.00    -0.271 OA
BRANCH   5   8
HETATM    8  C   UNL     1       8.689  30.248  58.302  1.00  0.00     0.085 A 
HETATM    9  C   UNL     1       9.954  30.371  57.759  1.00  0.00     0.052 A 
HETATM   10  C   UNL     1      10.751  29.489  56.874  1.00  0.00     0.072 C 
HETATM   11  N   UNL     1      10.440  31.565  58.206  1.00  0.00    -0.280 N 
HETATM   12  H   UNL     1      11.341  31.988  58.011  1.00  0.00     0.189 HD
HETATM   13  N   UNL     1       9.597  32.226  59.004  1.00  0.00    -0.177 NA
HETATM   14  C   UNL     1       8.515  31.436  59.074  1.00  0.00     0.079 A 
HETATM   15  C   UNL     1       7.374  31.892  59.907  1.00  0.00     0.075 C 
ENDBRANCH   5   8
ENDBRANCH   3   4
ENDBRANCH   1   3
BRANCH   1  16
HETATM   16  C   UNL     1       6.482  25.169  56.698  1.00  0.00     0.250 C 
HETATM   17  C   UNL     1       5.019  25.229  57.171  1.00  0.00     0.048 C 
BRANCH  16  18
HETATM   18  C   UNL     1       6.712  24.660  55.275  1.00  0.00    -0.011 A 
HETATM   19  C   UNL     1       7.765  23.752  54.981  1.00  0.00     0.056 A 
HETATM   20  C   UNL     1       7.949  23.324  53.648  1.00  0.00     0.017 A 
HETATM   21  C   UNL     1       7.122  23.774  52.621  1.00  0.00     0.001 A 
HETATM   22  C   UNL     1       6.099  24.669  52.905  1.00  0.00     0.001 A 
HETATM   23  C   UNL     1       5.899  25.107  54.214  1.00  0.00     0.010 A 
BRANCH  19  24
HETATM   24  C   UNL     1       8.726  23.237  56.036  1.00  0.00     0.418 C 
HETATM   25  F   UNL     1       9.490  24.214  56.601  1.00  0.00    -0.166 F 
HETATM   26  F   UNL     1       8.088  22.644  57.090  1.00  0.00    -0.166 F 
HETATM   27  F   UNL     1       9.592  22.293  55.570  1.00  0.00    -0.166 F 
ENDBRANCH  19  24
ENDBRANCH  16  18
ENDBRANCH   1  16
TORSDOF 6
ENDMDL
MODEL 2
REMARK VINA RESULT:      -8.5      3.743      4.627
REMARK  6 active torsions:
REMARK  status: ('A' for Active; 'I' for Inactive)
REMARK    1  A    between atoms: C_8  and  N_9 
REMARK       I    between atoms: N_9  and  C_10 
REMARK    2  A    between atoms: C_10  and  C_11 
REMARK    3  A    between atoms: C_11  and  N_12 
REMARK    4  A    between atoms: N_12  and  C_13 
REMARK    5  A    between atoms: C_13  and  C_14 
REMARK    6  A    between atoms: C_15  and  C_16 
ROOT
HETATM    1  N   UNL     1       6.142  24.521  56.218  1.00  0.00     0.100 N 
HETATM    2  H   UNL     1       5.701  24.847  55.355  1.00  0.00     0.317 HD
ENDROOT
BRANCH   1   3
HETATM    3  C   UNL     1       5.960  25.578  57.241  1.00  0.00     0.372 C 
BRANCH   3   4
HETATM    4  C   UNL     1       5.891  26.965  56.584  1.00  0.00     0.250 C 
HETATM    5  N   UNL     1       4.595  27.373  56.355  1.00  0.00    -0.322 N 
HETATM    6  H   UNL     1       3.881  26.729  56.690  1.00  0.00     0.169 HD
HETATM    7  O   UNL     1       6.918  27.592  56.346  1.00  0.00    -0.271 OA
BRANCH   5   8
HETATM    8  C   UNL     1       4.163  28.521  55.715  1.00  0.00     0.085 A 
HETATM    9  C   UNL     1       4.030  28.574  54.340  1.00  0.00     0.052 A 
HETATM   10  C   UNL     1       4.265  27.572  53.274  1.00  0.00     0.072 C 
HETATM   11  N   UNL     1       3.602  29.838  54.053  1.00  0.00    -0.280 N 
HETATM   12  H   UNL     1       3.397  30.239  53.145  1.00  0.00     0.189 HD
HETATM   13  N   UNL     1       3.454  30.615  55.130  1.00  0.00    -0.177 NA
HETATM   14  C   UNL     1       3.791  29.825  56.161  1.00  0.00     0.079 A 
HETATM   15  C   UNL     1       3.737  30.403  57.526  1.00  0.00     0.075 C 
ENDBRANCH   5   8
ENDBRANCH   3   4
ENDBRANCH   1   3
BRANCH   1  16
HETATM   16  C   UNL     1       7.555  24.227  55.914  1.00  0.00     0.250 C 
HETATM   17  C   UNL     1       8.426  24.318  57.178  1.00  0.00     0.048 C 
BRANCH  16  18
HETATM   18  C   UNL     1       7.727  22.968  55.064  1.00  0.00    -0.011 A 
HETATM   19  C   UNL     1       7.706  23.031  53.644  1.00  0.00     0.056 A 
HETATM   20  C   UNL     1       7.850  21.838  52.903  1.00  0.00     0.017 A 
HETATM   21  C   UNL     1       8.010  20.607  53.534  1.00  0.00     0.001 A 
HETATM   22  C   UNL     1       8.021  20.542  54.920  1.00  0.00     0.001 A 
HETATM   23  C   UNL     1       7.878  21.707  55.674  1.00  0.00     0.010 A 
BRANCH  19  24
HETATM   24  C   UNL     1       7.508  24.328  52.882  1.00  0.00     0.418 C 
HETATM   25  F   UNL     1       8.286  25.351  53.334  1.00  0.00    -0.166 F 
HETATM   26  F   UNL     1       7.819  24.216  51.555  1.00  0.00    -0.166 F 
HETATM   27  F   UNL     1       6.223  24.782  52.906  1.00  0.00    -0.166 F 
ENDBRANCH  19  24
ENDBRANCH  16  18
ENDBRANCH   1  16
TORSDOF 6
ENDMDL
MODEL 3
REMARK VINA RESULT:      -8.4      1.969      3.469
REMARK  6 active torsions:
REMARK  status: ('A' for Active; 'I' for Inactive)
REMARK    1  A    between atoms: C_8  and  N_9 
REMARK       I    between atoms: N_9  and  C_10 
REMARK    2  A    between atoms: C_10  and  C_11 
REMARK    3  A    between atoms: C_11  and  N_12 
REMARK    4  A    between atoms: N_12  and  C_13 
REMARK    5  A    between atoms: C_13  and  C_14 
REMARK    6  A    between atoms: C_15  and  C_16 
ROOT
HETATM    1  N   UNL     1       7.975  25.313  53.594  1.00  0.00     0.100 N 
HETATM    2  H   UNL     1       8.445  25.544  54.473  1.00  0.00     0.317 HD
ENDROOT
BRANCH   1   3
HETATM    3  C   UNL     1       7.411  26.569  53.044  1.00  0.00     0.372 C 
BRANCH   3   4
HETATM    4  C   UNL     1       7.201  27.605  54.160  1.00  0.00     0.250 C 
HETATM    5  N   UNL     1       7.958  27.332  55.279  1.00  0.00    -0.322 N 
HETATM    6  H   UNL     1       8.571  26.525  55.190  1.00  0.00     0.169 HD
HETATM    7  O   UNL     1       6.448  28.558  53.988  1.00  0.00    -0.271 OA
BRANCH   5   8
HETATM    8  C   UNL     1       7.962  28.002  56.489  1.00  0.00     0.085 A 
HETATM    9  C   UNL     1       6.865  27.978  57.331  1.00  0.00     0.052 A 
HETATM   10  C   UNL     1       5.540  27.324  57.226  1.00  0.00     0.072 C 
HETATM   11  N   UNL     1       7.205  28.740  58.411  1.00  0.00    -0.280 N 
HETATM   12  H   UNL     1       6.647  28.948  59.231  1.00  0.00     0.189 HD
HETATM   13  N   UNL     1       8.431  29.265  58.337  1.00  0.00    -0.177 NA
HETATM   14  C   UNL     1       8.914  28.822  57.166  1.00  0.00     0.079 A 
HETATM   15  C   UNL     1      10.282  29.241  56.775  1.00  0.00     0.075 C 
ENDBRANCH   5   8
ENDBRANCH   3   4
ENDBRANCH   1   3
BRANCH   1  16
HETATM   16  C   UNL     1       6.958  24.285  53.887  1.00  0.00     0.250 C 
HETATM   17  C   UNL     1       5.767  24.390  52.919  1.00  0.00     0.048 C 
BRANCH  16  18
HETATM   18  C   UNL     1       7.562  22.893  54.067  1.00  0.00    -0.011 A 
HETATM   19  C   UNL     1       8.084  22.475  55.322  1.00  0.00     0.056 A 
HETATM   20  C   UNL     1       8.649  21.186  55.435  1.00  0.00     0.017 A 
HETATM   21  C   UNL     1       8.705  20.321  54.345  1.00  0.00     0.001 A 
HETATM   22  C   UNL     1       8.205  20.730  53.117  1.00  0.00     0.001 A 
HETATM   23  C   UNL     1       7.644  22.000  52.980  1.00  0.00     0.010 A 
BRANCH  19  24
HETATM   24  C   UNL     1       8.088  23.367  56.550  1.00  0.00     0.418 C 
HETATM   25  F   UNL     1       6.895  23.987  56.776  1.00  0.00    -0.166 F 
HETATM   26  F   UNL     1       8.347  22.681  57.703  1.00  0.00    -0.166 F 
HETATM   27  F   UNL     1       9.030  24.352  56.504  1.00  0.00    -0.166 F 
ENDBRANCH  19  24
ENDBRANCH  16  18
ENDBRANCH   1  16
TORSDOF 6
ENDMDL
MODEL 4
REMARK VINA RESULT:      -8.4      2.313      3.626
REMARK  6 active torsions:
REMARK  status: ('A' for Active; 'I' for Inactive)
REMARK    1  A    between atoms: C_8  and  N_9 
REMARK       I    between atoms: N_9  and  C_10 
REMARK    2  A    between atoms: C_10  and  C_11 
REMARK    3  A    between atoms: C_11  and  N_12 
REMARK    4  A    between atoms: N_12  and  C_13 
REMARK    5  A    between atoms: C_13  and  C_14 
REMARK    6  A    between atoms: C_15  and  C_16 
ROOT
HETATM    1  N   UNL     1       6.281  24.568  56.387  1.00  0.00     0.100 N 
HETATM    2  H   UNL     1       5.796  23.668  56.375  1.00  0.00     0.317 HD
ENDROOT
BRANCH   1   3
HETATM    3  C   UNL     1       5.462  25.529  55.608  1.00  0.00     0.372 C 
BRANCH   3   4
HETATM    4  C   UNL     1       6.115  26.919  55.602  1.00  0.00     0.250 C 
HETATM    5  N   UNL     1       6.243  27.445  56.870  1.00  0.00    -0.322 N 
HETATM    6  H   UNL     1       5.935  26.828  57.618  1.00  0.00     0.169 HD
HETATM    7  O   UNL     1       6.482  27.428  54.548  1.00  0.00    -0.271 OA
BRANCH   5   8
HETATM    8  C   UNL     1       6.710  28.696  57.230  1.00  0.00     0.085 A 
HETATM    9  C   UNL     1       5.844  29.735  57.516  1.00  0.00     0.052 A 
HETATM   10  C   UNL     1       4.365  29.827  57.532  1.00  0.00     0.072 C 
HETATM   11  N   UNL     1       6.632  30.808  57.818  1.00  0.00    -0.280 N 
HETATM   12  H   UNL     1       6.343  31.744  58.078  1.00  0.00     0.189 HD
HETATM   13  N   UNL     1       7.941  30.554  57.743  1.00  0.00    -0.177 NA
HETATM   14  C   UNL     1       8.011  29.262  57.386  1.00  0.00     0.079 A 
HETATM   15  C   UNL     1       9.356  28.662  57.208  1.00  0.00     0.075 C 
ENDBRANCH   5   8
ENDBRANCH   3   4
ENDBRANCH   1   3
BRANCH   1  16
HETATM   16  C   UNL     1       7.632  24.356  55.833  1.00  0.00     0.250 C 
HETATM   17  C   UNL     1       8.715  24.620  56.894  1.00  0.00     0.048 C 
BRANCH  16  18
HETATM   18  C   UNL     1       7.752  23.045  55.056  1.00  0.00    -0.011 A 
HETATM   19  C   UNL     1       7.720  23.027  53.635  1.00  0.00     0.056 A 
HETATM   20  C   UNL     1       7.816  21.790  52.962  1.00  0.00     0.017 A 
HETATM   21  C   UNL     1       7.940  20.592  53.662  1.00  0.00     0.001 A 
HETATM   22  C   UNL     1       7.962  20.606  55.049  1.00  0.00     0.001 A 
HETATM   23  C   UNL     1       7.867  21.816  55.737  1.00  0.00     0.010 A 
BRANCH  19  24
HETATM   24  C   UNL     1       7.558  24.285  52.801  1.00  0.00     0.418 C 
HETATM   25  F   UNL     1       8.306  25.334  53.244  1.00  0.00    -0.166 F 
HETATM   26  F   UNL     1       7.941  24.111  51.500  1.00  0.00    -0.166 F 
HETATM   27  F   UNL     1       6.271  24.731  52.734  1.00  0.00    -0.166 F 
ENDBRANCH  19  24
ENDBRANCH  16  18
ENDBRANCH   1  16
TORSDOF 6
ENDMDL
MODEL 5
REMARK VINA RESULT:      -8.4      1.919      2.825
REMARK  6 active torsions:
REMARK  status: ('A' for Active; 'I' for Inactive)
REMARK    1  A    between atoms: C_8  and  N_9 
REMARK       I    between atoms: N_9  and  C_10 
REMARK    2  A    between atoms: C_10  and  C_11 
REMARK    3  A    between atoms: C_11  and  N_12 
REMARK    4  A    between atoms: N_12  and  C_13 
REMARK    5  A    between atoms: C_13  and  C_14 
REMARK    6  A    between atoms: C_15  and  C_16 
ROOT
HETATM    1  N   UNL     1       8.010  25.381  53.820  1.00  0.00     0.100 N 
HETATM    2  H   UNL     1       8.633  25.334  54.630  1.00  0.00     0.317 HD
ENDROOT
BRANCH   1   3
HETATM    3  C   UNL     1       7.451  26.753  53.763  1.00  0.00     0.372 C 
BRANCH   3   4
HETATM    4  C   UNL     1       7.256  27.320  55.178  1.00  0.00     0.250 C 
HETATM    5  N   UNL     1       7.888  28.533  55.349  1.00  0.00    -0.322 N 
HETATM    6  H   UNL     1       8.344  28.895  54.515  1.00  0.00     0.169 HD
HETATM    7  O   UNL     1       6.578  26.716  56.001  1.00  0.00    -0.271 OA
BRANCH   5   8
HETATM    8  C   UNL     1       7.989  29.286  56.505  1.00  0.00     0.085 A 
HETATM    9  C   UNL     1       9.216  29.663  57.016  1.00  0.00     0.052 A 
HETATM   10  C   UNL     1      10.605  29.424  56.558  1.00  0.00     0.072 C 
HETATM   11  N   UNL     1       8.948  30.374  58.150  1.00  0.00    -0.280 N 
HETATM   12  H   UNL     1       9.606  30.809  58.788  1.00  0.00     0.189 HD
HETATM   13  N   UNL     1       7.646  30.484  58.423  1.00  0.00    -0.177 NA
HETATM   14  C   UNL     1       7.038  29.825  57.424  1.00  0.00     0.079 A 
HETATM   15  C   UNL     1       5.557  29.753  57.438  1.00  0.00     0.075 C 
ENDBRANCH   5   8
ENDBRANCH   3   4
ENDBRANCH   1   3
BRANCH   1  16
HETATM   16  C   UNL     1       6.987  24.331  53.982  1.00  0.00     0.250 C 
HETATM   17  C   UNL     1       5.842  24.509  52.969  1.00  0.00     0.048 C 
BRANCH  16  18
HETATM   18  C   UNL     1       7.590  22.930  54.079  1.00  0.00    -0.011 A 
HETATM   19  C   UNL     1       8.116  22.439  55.306  1.00  0.00     0.056 A 
HETATM   20  C   UNL     1       8.680  21.146  55.342  1.00  0.00     0.017 A 
HETATM   21  C   UNL     1       8.732  20.345  54.204  1.00  0.00     0.001 A 
HETATM   22  C   UNL     1       8.228  20.825  53.003  1.00  0.00     0.001 A 
HETATM   23  C   UNL     1       7.667  22.101  52.942  1.00  0.00     0.010 A 
BRANCH  19  24
HETATM   24  C   UNL     1       8.124  23.260  56.583  1.00  0.00     0.418 C 
HETATM   25  F   UNL     1       6.937  23.877  56.842  1.00  0.00    -0.166 F 
HETATM   26  F   UNL     1       8.373  22.505  57.696  1.00  0.00    -0.166 F 
HETATM   27  F   UNL     1       9.076  24.235  56.597  1.00  0.00    -0.166 F 
ENDBRANCH  19  24
ENDBRANCH  16  18
ENDBRANCH   1  16
TORSDOF 6
ENDMDL
MODEL 6
REMARK VINA RESULT:      -8.2      2.966      7.646
REMARK  6 active torsions:
REMARK  status: ('A' for Active; 'I' for Inactive)
REMARK    1  A    between atoms: C_8  and  N_9 
REMARK       I    between atoms: N_9  and  C_10 
REMARK    2  A    between atoms: C_10  and  C_11 
REMARK    3  A    between atoms: C_11  and  N_12 
REMARK    4  A    between atoms: N_12  and  C_13 
REMARK    5  A    between atoms: C_13  and  C_14 
REMARK    6  A    between atoms: C_15  and  C_16 
ROOT
HETATM    1  N   UNL     1       7.228  27.554  57.540  1.00  0.00     0.100 N 
HETATM    2  H   UNL     1       7.249  27.769  58.539  1.00  0.00     0.317 HD
ENDROOT
BRANCH   1   3
HETATM    3  C   UNL     1       8.052  26.340  57.325  1.00  0.00     0.372 C 
BRANCH   3   4
HETATM    4  C   UNL     1       7.420  25.437  56.255  1.00  0.00     0.250 C 
HETATM    5  N   UNL     1       8.300  24.484  55.787  1.00  0.00    -0.322 N 
HETATM    6  H   UNL     1       9.209  24.486  56.243  1.00  0.00     0.169 HD
HETATM    7  O   UNL     1       6.249  25.589  55.925  1.00  0.00    -0.271 OA
BRANCH   5   8
HETATM    8  C   UNL     1       8.099  23.562  54.775  1.00  0.00     0.085 A 
HETATM    9  C   UNL     1       8.026  22.207  55.038  1.00  0.00     0.052 A 
HETATM   10  C   UNL     1       8.120  21.427  56.294  1.00  0.00     0.072 C 
HETATM   11  N   UNL     1       7.837  21.601  53.830  1.00  0.00    -0.280 N 
HETATM   12  H   UNL     1       7.737  20.611  53.634  1.00  0.00     0.189 HD
HETATM   13  N   UNL     1       7.789  22.451  52.801  1.00  0.00    -0.177 NA
HETATM   14  C   UNL     1       7.945  23.661  53.360  1.00  0.00     0.079 A 
HETATM   15  C   UNL     1       7.945  24.845  52.465  1.00  0.00     0.075 C 
ENDBRANCH   5   8
ENDBRANCH   3   4
ENDBRANCH   1   3
BRANCH   1  16
HETATM   16  C   UNL     1       7.721  28.741  56.816  1.00  0.00     0.250 C 
HETATM   17  C   UNL     1       6.768  29.131  55.673  1.00  0.00     0.048 C 
BRANCH  16  18
HETATM   18  C   UNL     1       8.146  29.870  57.756  1.00  0.00    -0.011 A 
HETATM   19  C   UNL     1       9.490  30.333  57.786  1.00  0.00     0.056 A 
HETATM   20  C   UNL     1       9.839  31.365  58.684  1.00  0.00     0.017 A 
HETATM   21  C   UNL     1       8.897  31.935  59.536  1.00  0.00     0.001 A 
HETATM   22  C   UNL     1       7.586  31.477  59.515  1.00  0.00     0.001 A 
HETATM   23  C   UNL     1       7.218  30.457  58.638  1.00  0.00     0.010 A 
BRANCH  19  24
HETATM   24  C   UNL     1      10.582  29.746  56.911  1.00  0.00     0.418 C 
HETATM   25  F   UNL     1      10.477  30.097  55.599  1.00  0.00    -0.166 F 
HETATM   26  F   UNL     1      11.834  30.154  57.281  1.00  0.00    -0.166 F 
HETATM   27  F   UNL     1      10.630  28.384  56.941  1.00  0.00    -0.166 F 
ENDBRANCH  19  24
ENDBRANCH  16  18
ENDBRANCH   1  16
TORSDOF 6
ENDMDL
MODEL 7
REMARK VINA RESULT:      -8.0      4.893      7.792
REMARK  6 active torsions:
REMARK  status: ('A' for Active; 'I' for Inactive)
REMARK    1  A    between atoms: C_8  and  N_9 
REMARK       I    between atoms: N_9  and  C_10 
REMARK    2  A    between atoms: C_10  and  C_11 
REMARK    3  A    between atoms: C_11  and  N_12 
REMARK    4  A    between atoms: N_12  and  C_13 
REMARK    5  A    between atoms: C_13  and  C_14 
REMARK    6  A    between atoms: C_15  and  C_16 
ROOT
HETATM    1  N   UNL     1       5.841  25.335  52.980  1.00  0.00     0.100 N 
HETATM    2  H   UNL     1       5.079  24.913  52.444  1.00  0.00     0.317 HD
ENDROOT
BRANCH   1   3
HETATM    3  C   UNL     1       6.196  26.616  52.323  1.00  0.00     0.372 C 
BRANCH   3   4
HETATM    4  C   UNL     1       5.105  27.036  51.326  1.00  0.00     0.250 C 
HETATM    5  N   UNL     1       5.331  26.540  50.060  1.00  0.00    -0.322 N 
HETATM    6  H   UNL     1       6.147  25.939  49.980  1.00  0.00     0.169 HD
HETATM    7  O   UNL     1       4.153  27.715  51.697  1.00  0.00    -0.271 OA
BRANCH   5   8
HETATM    8  C   UNL     1       4.603  26.780  48.909  1.00  0.00     0.085 A 
HETATM    9  C   UNL     1       4.645  28.005  48.270  1.00  0.00     0.052 A 
HETATM   10  C   UNL     1       5.375  29.261  48.564  1.00  0.00     0.072 C 
HETATM   11  N   UNL     1       3.813  27.896  47.193  1.00  0.00    -0.280 N 
HETATM   12  H   UNL     1       3.596  28.598  46.495  1.00  0.00     0.189 HD
HETATM   13  N   UNL     1       3.226  26.701  47.084  1.00  0.00    -0.177 NA
HETATM   14  C   UNL     1       3.699  26.000  48.126  1.00  0.00     0.079 A 
HETATM   15  C   UNL     1       3.225  24.605  48.298  1.00  0.00     0.075 C 
ENDBRANCH   5   8
ENDBRANCH   3   4
ENDBRANCH   1   3
BRANCH   1  16
HETATM   16  C   UNL     1       6.950  24.363  53.023  1.00  0.00     0.250 C 
HETATM   17  C   UNL     1       8.052  24.734  52.016  1.00  0.00     0.048 C 
BRANCH  16  18
HETATM   18  C   UNL     1       7.411  24.057  54.447  1.00  0.00    -0.011 A 
HETATM   19  C   UNL     1       7.937  22.782  54.791  1.00  0.00     0.056 A 
HETATM   20  C   UNL     1       8.333  22.540  56.124  1.00  0.00     0.017 A 
HETATM   21  C   UNL     1       8.217  23.522  57.105  1.00  0.00     0.001 A 
HETATM   22  C   UNL     1       7.695  24.764  56.774  1.00  0.00     0.001 A 
HETATM   23  C   UNL     1       7.295  25.027  55.463  1.00  0.00     0.010 A 
BRANCH  19  24
HETATM   24  C   UNL     1       8.069  21.649  53.789  1.00  0.00     0.418 C 
HETATM   25  F   UNL     1       7.936  20.412  54.344  1.00  0.00    -0.166 F 
HETATM   26  F   UNL     1       7.116  21.695  52.810  1.00  0.00    -0.166 F 
HETATM   27  F   UNL     1       9.259  21.646  53.124  1.00  0.00    -0.166 F 
ENDBRANCH  19  24
ENDBRANCH  16  18
ENDBRANCH   1  16
TORSDOF 6
ENDMDL
MODEL 8
REMARK VINA RESULT:      -7.9      4.027      8.500
REMARK  6 active torsions:
REMARK  status: ('A' for Active; 'I' for Inactive)
REMARK    1  A    between atoms: C_8  and  N_9 
REMARK       I    between atoms: N_9  and  C_10 
REMARK    2  A    between atoms: C_10  and  C_11 
REMARK    3  A    between atoms: C_11  and  N_12 
REMARK    4  A    between atoms: N_12  and  C_13 
REMARK    5  A    between atoms: C_13  and  C_14 
REMARK    6  A    between atoms: C_15  and  C_16 
ROOT
HETATM    1  N   UNL     1       7.925  29.468  59.130  1.00  0.00     0.100 N 
HETATM    2  H   UNL     1       8.194  28.743  59.800  1.00  0.00     0.317 HD
ENDROOT
BRANCH   1   3
HETATM    3  C   UNL     1       8.409  29.045  57.794  1.00  0.00     0.372 C 
BRANCH   3   4
HETATM    4  C   UNL     1       7.749  27.725  57.369  1.00  0.00     0.250 C 
HETATM    5  N   UNL     1       7.296  27.760  56.067  1.00  0.00    -0.322 N 
HETATM    6  H   UNL     1       7.503  28.623  55.569  1.00  0.00     0.169 HD
HETATM    7  O   UNL     1       7.693  26.779  58.147  1.00  0.00    -0.271 OA
BRANCH   5   8
HETATM    8  C   UNL     1       6.589  26.786  55.384  1.00  0.00     0.085 A 
HETATM    9  C   UNL     1       5.344  27.045  54.843  1.00  0.00     0.052 A 
HETATM   10  C   UNL     1       4.498  28.262  54.818  1.00  0.00     0.072 C 
HETATM   11  N   UNL     1       4.938  25.879  54.262  1.00  0.00    -0.280 N 
HETATM   12  H   UNL     1       4.073  25.693  53.767  1.00  0.00     0.189 HD
HETATM   13  N   UNL     1       5.815  24.879  54.388  1.00  0.00    -0.177 NA
HETATM   14  C   UNL     1       6.837  25.416  55.072  1.00  0.00     0.079 A 
HETATM   15  C   UNL     1       7.995  24.545  55.389  1.00  0.00     0.075 C 
ENDBRANCH   5   8
ENDBRANCH   3   4
ENDBRANCH   1   3
BRANCH   1  16
HETATM   16  C   UNL     1       8.504  30.743  59.594  1.00  0.00     0.250 C 
HETATM   17  C   UNL     1       9.534  31.284  58.587  1.00  0.00     0.048 C 
BRANCH  16  18
HETATM   18  C   UNL     1       7.443  31.732  60.074  1.00  0.00    -0.011 A 
HETATM   19  C   UNL     1       7.501  32.298  61.377  1.00  0.00     0.056 A 
HETATM   20  C   UNL     1       6.488  33.193  61.782  1.00  0.00     0.017 A 
HETATM   21  C   UNL     1       5.437  33.531  60.934  1.00  0.00     0.001 A 
HETATM   22  C   UNL     1       5.373  32.973  59.664  1.00  0.00     0.001 A 
HETATM   23  C   UNL     1       6.361  32.084  59.242  1.00  0.00     0.010 A 
BRANCH  19  24
HETATM   24  C   UNL     1       8.597  31.960  62.372  1.00  0.00     0.418 C 
HETATM   25  F   UNL     1       8.517  32.669  63.533  1.00  0.00    -0.166 F 
HETATM   26  F   UNL     1       8.571  30.650  62.763  1.00  0.00    -0.166 F 
HETATM   27  F   UNL     1       9.854  32.159  61.885  1.00  0.00    -0.166 F 
ENDBRANCH  19  24
ENDBRANCH  16  18
ENDBRANCH   1  16
TORSDOF 6
ENDMDL
MODEL 9
REMARK VINA RESULT:      -7.9      2.963      7.543
REMARK  6 active torsions:
REMARK  status: ('A' for Active; 'I' for Inactive)
REMARK    1  A    between atoms: C_8  and  N_9 
REMARK       I    between atoms: N_9  and  C_10 
REMARK    2  A    between atoms: C_10  and  C_11 
REMARK    3  A    between atoms: C_11  and  N_12 
REMARK    4  A    between atoms: N_12  and  C_13 
REMARK    5  A    between atoms: C_13  and  C_14 
REMARK    6  A    between atoms: C_15  and  C_16 
ROOT
HETATM    1  N   UNL     1       7.166  28.111  57.831  1.00  0.00     0.100 N 
HETATM    2  H   UNL     1       7.415  28.205  58.819  1.00  0.00     0.317 HD
ENDROOT
BRANCH   1   3
HETATM    3  C   UNL     1       7.809  26.877  57.321  1.00  0.00     0.372 C 
BRANCH   3   4
HETATM    4  C   UNL     1       6.814  26.046  56.496  1.00  0.00     0.250 C 
HETATM    5  N   UNL     1       6.811  26.402  55.165  1.00  0.00    -0.322 N 
HETATM    6  H   UNL     1       7.489  27.119  54.915  1.00  0.00     0.169 HD
HETATM    7  O   UNL     1       6.152  25.162  57.028  1.00  0.00    -0.271 OA
BRANCH   5   8
HETATM    8  C   UNL     1       5.993  25.924  54.156  1.00  0.00     0.085 A 
HETATM    9  C   UNL     1       4.878  26.625  53.737  1.00  0.00     0.052 A 
HETATM   10  C   UNL     1       4.294  27.919  54.162  1.00  0.00     0.072 C 
HETATM   11  N   UNL     1       4.308  25.870  52.754  1.00  0.00    -0.280 N 
HETATM   12  H   UNL     1       3.473  26.070  52.214  1.00  0.00     0.189 HD
HETATM   13  N   UNL     1       4.956  24.729  52.505  1.00  0.00    -0.177 NA
HETATM   14  C   UNL     1       5.996  24.744  53.354  1.00  0.00     0.079 A 
HETATM   15  C   UNL     1       6.926  23.588  53.333  1.00  0.00     0.075 C 
ENDBRANCH   5   8
ENDBRANCH   3   4
ENDBRANCH   1   3
BRANCH   1  16
HETATM   16  C   UNL     1       7.606  29.338  57.141  1.00  0.00     0.250 C 
HETATM   17  C   UNL     1       6.507  29.875  56.207  1.00  0.00     0.048 C 
BRANCH  16  18
HETATM   18  C   UNL     1       8.242  30.353  58.090  1.00  0.00    -0.011 A 
HETATM   19  C   UNL     1       9.637  30.624  58.049  1.00  0.00     0.056 A 
HETATM   20  C   UNL     1      10.182  31.556  58.958  1.00  0.00     0.017 A 
HETATM   21  C   UNL     1       9.382  32.212  59.890  1.00  0.00     0.001 A 
HETATM   22  C   UNL     1       8.021  31.943  59.938  1.00  0.00     0.001 A 
HETATM   23  C   UNL     1       7.460  31.024  59.051  1.00  0.00     0.010 A 
BRANCH  19  24
HETATM   24  C   UNL     1      10.581  29.930  57.084  1.00  0.00     0.418 C 
HETATM   25  F   UNL     1      10.416  30.316  55.787  1.00  0.00    -0.166 F 
HETATM   26  F   UNL     1      11.897  30.182  57.356  1.00  0.00    -0.166 F 
HETATM   27  F   UNL     1      10.471  28.571  57.097  1.00  0.00    -0.166 F 
ENDBRANCH  19  24
ENDBRANCH  16  18
ENDBRANCH   1  16
TORSDOF 6
ENDMDL
MODEL 10
REMARK VINA RESULT:      -7.8      5.128      9.006
REMARK  6 active torsions:
REMARK  status: ('A' for Active; 'I' for Inactive)
REMARK    1  A    between atoms: C_8  and  N_9 
REMARK       I    between atoms: N_9  and  C_10 
REMARK    2  A    between atoms: C_10  and  C_11 
REMARK    3  A    between atoms: C_11  and  N_12 
REMARK    4  A    between atoms: N_12  and  C_13 
REMARK    5  A    between atoms: C_13  and  C_14 
REMARK    6  A    between atoms: C_15  and  C_16 
ROOT
HETATM    1  N   UNL     1       4.947  32.011  60.724  1.00  0.00     0.100 N 
HETATM    2  H   UNL     1       5.713  31.334  60.740  1.00  0.00     0.317 HD
ENDROOT
BRANCH   1   3
HETATM    3  C   UNL     1       4.304  31.929  59.391  1.00  0.00     0.372 C 
BRANCH   3   4
HETATM    4  C   UNL     1       5.361  31.798  58.284  1.00  0.00     0.250 C 
HETATM    5  N   UNL     1       5.747  30.491  58.079  1.00  0.00    -0.322 N 
HETATM    6  H   UNL     1       5.251  29.807  58.647  1.00  0.00     0.169 HD
HETATM    7  O   UNL     1       5.749  32.789  57.675  1.00  0.00    -0.271 OA
BRANCH   5   8
HETATM    8  C   UNL     1       6.725  30.015  57.224  1.00  0.00     0.085 A 
HETATM    9  C   UNL     1       6.416  29.549  55.960  1.00  0.00     0.052 A 
HETATM   10  C   UNL     1       5.134  29.434  55.224  1.00  0.00     0.072 C 
HETATM   11  N   UNL     1       7.598  29.153  55.406  1.00  0.00    -0.280 N 
HETATM   12  H   UNL     1       7.758  28.759  54.486  1.00  0.00     0.189 HD
HETATM   13  N   UNL     1       8.652  29.315  56.210  1.00  0.00    -0.177 NA
HETATM   14  C   UNL     1       8.138  29.845  57.331  1.00  0.00     0.079 A 
HETATM   15  C   UNL     1       9.068  30.144  58.448  1.00  0.00     0.075 C 
ENDBRANCH   5   8
ENDBRANCH   3   4
ENDBRANCH   1   3
BRANCH   1  16
HETATM   16  C   UNL     1       5.517  33.338  61.026  1.00  0.00     0.250 C 
HETATM   17  C   UNL     1       4.536  34.462  60.653  1.00  0.00     0.048 C 
BRANCH  16  18
HETATM   18  C   UNL     1       6.129  33.412  62.425  1.00  0.00    -0.011 A 
HETATM   19  C   UNL     1       7.419  32.875  62.692  1.00  0.00     0.056 A 
HETATM   20  C   UNL     1       7.934  32.951  64.004  1.00  0.00     0.017 A 
HETATM   21  C   UNL     1       7.207  33.538  65.036  1.00  0.00     0.001 A 
HETATM   22  C   UNL     1       5.945  34.054  64.780  1.00  0.00     0.001 A 
HETATM   23  C   UNL     1       5.413  33.989  63.492  1.00  0.00     0.010 A 
BRANCH  19  24
HETATM   24  C   UNL     1       8.262  32.194  61.630  1.00  0.00     0.418 C 
HETATM   25  F   UNL     1       8.366  32.909  60.475  1.00  0.00    -0.166 F 
HETATM   26  F   UNL     1       9.553  31.990  62.029  1.00  0.00    -0.166 F 
HETATM   27  F   UNL     1       7.801  30.961  61.278  1.00  0.00    -0.166 F 
ENDBRANCH  19  24
ENDBRANCH  16  18
ENDBRANCH   1  16
TORSDOF 6
ENDMDL
