MODEL 1
REMARK VINA RESULT:     -10.0      0.000      0.000
REMARK  4 active torsions:
REMARK  status: ('A' for Active; 'I' for Inactive)
REMARK    1  A    between atoms: C_6  and  C_7 
REMARK    2  A    between atoms: C_7  and  N_8 
REMARK    3  A    between atoms: C_11  and  C_12 
REMARK    4  A    between atoms: C_12  and  C_13 
ROOT
HETATM    1  N   UNL     1       7.125  28.051  56.548  1.00  0.00    -0.064 N 
HETATM    2  H   UNL     1       7.073  27.813  55.539  1.00  0.00     0.280 HD
HETATM    3  C   UNL     1       7.965  26.948  57.159  1.00  0.00     0.247 C 
HETATM    4  C   UNL     1       7.354  25.579  56.829  1.00  0.00     0.086 C 
HETATM    5  C   UNL     1       5.881  25.520  57.249  1.00  0.00     0.016 C 
HETATM    6  C   UNL     1       5.065  26.714  56.747  1.00  0.00     0.029 C 
HETATM    7  C   UNL     1       5.719  28.050  57.082  1.00  0.00     0.235 C 
ENDROOT
BRANCH   1   8
HETATM    8  C   UNL     1       7.790  29.410  56.598  1.00  0.00     0.313 C 
BRANCH   8   9
HETATM    9  C   UNL     1       7.896  30.028  57.954  1.00  0.00     0.131 A 
HETATM   10  N   UNL     1       8.762  29.710  58.898  1.00  0.00    -0.232 NA
HETATM   11  C   UNL     1       8.510  30.567  59.944  1.00  0.00     0.085 A 
HETATM   12  C   UNL     1       7.460  31.421  59.634  1.00  0.00     0.062 A 
HETATM   13  C   UNL     1       9.146  30.677  61.187  1.00  0.00     0.034 A 
HETATM   14  C   UNL     1       6.990  32.403  60.509  1.00  0.00     0.032 A 
HETATM   15  N   UNL     1       7.077  31.053  58.369  1.00  0.00    -0.341 N 
HETATM   16  C   UNL     1       7.638  32.502  61.746  1.00  0.00     0.002 A 
HETATM   17  C   UNL     1       8.696  31.655  62.083  1.00  0.00     0.002 A 
HETATM   18  H   UNL     1       6.329  31.486  57.845  1.00  0.00     0.167 HD
ENDBRANCH   8   9
ENDBRANCH   1   8
BRANCH   4  19
HETATM   19  C   UNL     1       7.506  25.322  55.333  1.00  0.00     0.165 C 
HETATM   20  O   UNL     1       7.497  26.282  54.555  1.00  0.00    -0.292 OA
BRANCH  19  21
HETATM   21  C   UNL     1       7.645  23.930  54.807  1.00  0.00     0.012 A 
HETATM   22  C   UNL     1       7.733  22.813  55.645  1.00  0.00     0.039 A 
HETATM   23  C   UNL     1       7.875  21.540  55.090  1.00  0.00     0.035 A 
HETATM   24 CL   UNL     1       7.988  20.173  56.129  1.00  0.00    -0.084 Cl
HETATM   25  C   UNL     1       7.926  21.364  53.709  1.00  0.00     0.024 A 
HETATM   26  C   UNL     1       7.831  22.473  52.870  1.00  0.00     0.003 A 
HETATM   27  C   UNL     1       7.691  23.751  53.417  1.00  0.00     0.015 A 
ENDBRANCH  19  21
ENDBRANCH   4  19
TORSDOF 4
ENDMDL
MODEL 2
REMARK VINA RESULT:     -10.0      2.294      3.537
REMARK  4 active torsions:
REMARK  status: ('A' for Active; 'I' for Inactive)
REMARK    1  A    between atoms: C_6  and  C_7 
REMARK    2  A    between atoms: C_7  and  N_8 
REMARK    3  A    between atoms: C_11  and  C_12 
REMARK    4  A    between atoms: C_12  and  C_13 
ROOT
HETATM    1  N   UNL     1       5.652  27.362  53.767  1.00  0.00    -0.064 N 
HETATM    2  H   UNL     1       6.670  27.159  53.773  1.00  0.00     0.280 HD
HETATM    3  C   UNL     1       5.017  26.155  54.424  1.00  0.00     0.247 C 
HETATM    4  C   UNL     1       5.443  24.875  53.692  1.00  0.00     0.086 C 
HETATM    5  C   UNL     1       5.143  24.974  52.192  1.00  0.00     0.016 C 
HETATM    6  C   UNL     1       5.664  26.267  51.560  1.00  0.00     0.029 C 
HETATM    7  C   UNL     1       5.231  27.509  52.331  1.00  0.00     0.235 C 
ENDROOT
BRANCH   1   8
HETATM    8  C   UNL     1       5.500  28.635  54.575  1.00  0.00     0.313 C 
BRANCH   8   9
HETATM    9  C   UNL     1       6.697  29.041  55.371  1.00  0.00     0.131 A 
HETATM   10  N   UNL     1       6.697  29.539  56.594  1.00  0.00    -0.232 NA
HETATM   11  C   UNL     1       8.018  29.719  56.927  1.00  0.00     0.085 A 
HETATM   12  C   UNL     1       8.844  29.331  55.879  1.00  0.00     0.062 A 
HETATM   13  C   UNL     1       8.588  30.202  58.112  1.00  0.00     0.034 A 
HETATM   14  C   UNL     1      10.238  29.398  55.939  1.00  0.00     0.032 A 
HETATM   15  N   UNL     1       7.982  28.915  54.896  1.00  0.00    -0.341 N 
HETATM   16  C   UNL     1      10.791  29.880  57.131  1.00  0.00     0.002 A 
HETATM   17  C   UNL     1       9.983  30.277  58.200  1.00  0.00     0.002 A 
HETATM   18  H   UNL     1       8.266  28.564  53.992  1.00  0.00     0.167 HD
ENDBRANCH   8   9
ENDBRANCH   1   8
BRANCH   4  19
HETATM   19  C   UNL     1       6.931  24.642  53.937  1.00  0.00     0.165 C 
HETATM   20  O   UNL     1       7.692  25.614  53.979  1.00  0.00    -0.292 OA
BRANCH  19  21
HETATM   21  C   UNL     1       7.470  23.258  54.106  1.00  0.00     0.012 A 
HETATM   22  C   UNL     1       7.696  22.685  55.362  1.00  0.00     0.039 A 
HETATM   23  C   UNL     1       8.213  21.391  55.450  1.00  0.00     0.035 A 
HETATM   24 CL   UNL     1       8.492  20.696  57.000  1.00  0.00    -0.084 Cl
HETATM   25  C   UNL     1       8.505  20.658  54.302  1.00  0.00     0.024 A 
HETATM   26  C   UNL     1       8.274  21.222  53.049  1.00  0.00     0.003 A 
HETATM   27  C   UNL     1       7.759  22.517  52.951  1.00  0.00     0.015 A 
ENDBRANCH  19  21
ENDBRANCH   4  19
TORSDOF 4
ENDMDL
MODEL 3
REMARK VINA RESULT:      -9.9      5.340      8.418
REMARK  4 active torsions:
REMARK  status: ('A' for Active; 'I' for Inactive)
REMARK    1  A    between atoms: C_6  and  C_7 
REMARK    2  A    between atoms: C_7  and  N_8 
REMARK    3  A    between atoms: C_11  and  C_12 
REMARK    4  A    between atoms: C_12  and  C_13 
ROOT
HETATM    1  N   UNL     1       5.991  26.663  52.430  1.00  0.00    -0.064 N 
HETATM    2  H   UNL     1       6.282  25.817  51.904  1.00  0.00     0.280 HD
HETATM    3  C   UNL     1       7.123  26.918  53.403  1.00  0.00     0.247 C 
HETATM    4  C   UNL     1       7.379  25.663  54.250  1.00  0.00     0.086 C 
HETATM    5  C   UNL     1       6.091  25.190  54.933  1.00  0.00     0.016 C 
HETATM    6  C   UNL     1       4.909  25.071  53.968  1.00  0.00     0.029 C 
HETATM    7  C   UNL     1       4.705  26.332  53.136  1.00  0.00     0.235 C 
ENDROOT
BRANCH   1   8
HETATM    8  C   UNL     1       5.843  27.747  51.383  1.00  0.00     0.313 C 
BRANCH   8   9
HETATM    9  C   UNL     1       4.818  27.490  50.326  1.00  0.00     0.131 A 
HETATM   10  N   UNL     1       3.752  28.224  50.070  1.00  0.00    -0.232 NA
HETATM   11  C   UNL     1       3.135  27.628  48.996  1.00  0.00     0.085 A 
HETATM   12  C   UNL     1       3.836  26.498  48.593  1.00  0.00     0.062 A 
HETATM   13  C   UNL     1       1.975  28.002  48.305  1.00  0.00     0.034 A 
HETATM   14  C   UNL     1       3.442  25.697  47.520  1.00  0.00     0.032 A 
HETATM   15  N   UNL     1       4.896  26.423  49.461  1.00  0.00    -0.341 N 
HETATM   16  C   UNL     1       2.283  26.086  46.839  1.00  0.00     0.002 A 
HETATM   17  C   UNL     1       1.559  27.217  47.222  1.00  0.00     0.002 A 
HETATM   18  H   UNL     1       5.609  25.706  49.439  1.00  0.00     0.167 HD
ENDBRANCH   8   9
ENDBRANCH   1   8
BRANCH   4  19
HETATM   19  C   UNL     1       7.953  24.573  53.350  1.00  0.00     0.165 C 
HETATM   20  O   UNL     1       8.362  24.877  52.225  1.00  0.00    -0.292 OA
BRANCH  19  21
HETATM   21  C   UNL     1       8.006  23.152  53.811  1.00  0.00     0.012 A 
HETATM   22  C   UNL     1       8.191  22.801  55.152  1.00  0.00     0.039 A 
HETATM   23  C   UNL     1       8.243  21.453  55.515  1.00  0.00     0.035 A 
HETATM   24 CL   UNL     1       8.476  21.031  57.167  1.00  0.00    -0.084 Cl
HETATM   25  C   UNL     1       8.110  20.451  54.558  1.00  0.00     0.024 A 
HETATM   26  C   UNL     1       7.918  20.796  53.221  1.00  0.00     0.003 A 
HETATM   27  C   UNL     1       7.866  22.141  52.850  1.00  0.00     0.015 A 
ENDBRANCH  19  21
ENDBRANCH   4  19
TORSDOF 4
ENDMDL
MODEL 4
REMARK VINA RESULT:      -9.8      4.281      7.178
REMARK  4 active torsions:
REMARK  status: ('A' for Active; 'I' for Inactive)
REMARK    1  A    between atoms: C_6  and  C_7 
REMARK    2  A    between atoms: C_7  and  N_8 
REMARK    3  A    between atoms: C_11  and  C_12 
REMARK    4  A    between atoms: C_12  and  C_13 
ROOT
HETATM    1  N   UNL     1       5.595  26.967  54.480  1.00  0.00    -0.064 N 
HETATM    2  H   UNL     1       5.153  26.113  54.089  1.00  0.00     0.280 HD
HETATM    3  C   UNL     1       7.075  26.790  54.208  1.00  0.00     0.247 C 
HETATM    4  C   UNL     1       7.561  25.460  54.799  1.00  0.00     0.086 C 
HETATM    5  C   UNL     1       7.204  25.356  56.286  1.00  0.00     0.016 C 
HETATM    6  C   UNL     1       5.735  25.676  56.573  1.00  0.00     0.029 C 
HETATM    7  C   UNL     1       5.292  26.996  55.953  1.00  0.00     0.235 C 
ENDROOT
BRANCH   1   8
HETATM    8  C   UNL     1       4.977  28.117  53.713  1.00  0.00     0.313 C 
BRANCH   8   9
HETATM    9  C   UNL     1       4.974  27.975  52.226  1.00  0.00     0.131 A 
HETATM   10  N   UNL     1       5.431  28.851  51.351  1.00  0.00    -0.232 NA
HETATM   11  C   UNL     1       5.257  28.274  50.115  1.00  0.00     0.085 A 
HETATM   12  C   UNL     1       4.671  27.021  50.238  1.00  0.00     0.062 A 
HETATM   13  C   UNL     1       5.585  28.760  48.843  1.00  0.00     0.034 A 
HETATM   14  C   UNL     1       4.382  26.201  49.145  1.00  0.00     0.032 A 
HETATM   15  N   UNL     1       4.489  26.856  51.588  1.00  0.00    -0.341 N 
HETATM   16  C   UNL     1       4.718  26.701  47.882  1.00  0.00     0.002 A 
HETATM   17  C   UNL     1       5.308  27.958  47.730  1.00  0.00     0.002 A 
HETATM   18  H   UNL     1       4.081  26.038  52.019  1.00  0.00     0.167 HD
ENDBRANCH   8   9
ENDBRANCH   1   8
BRANCH   4  19
HETATM   19  C   UNL     1       6.939  24.315  54.006  1.00  0.00     0.165 C 
HETATM   20  O   UNL     1       5.953  24.541  53.298  1.00  0.00    -0.292 OA
BRANCH  19  21
HETATM   21  C   UNL     1       7.499  22.932  54.094  1.00  0.00     0.012 A 
HETATM   22  C   UNL     1       7.851  22.337  55.310  1.00  0.00     0.039 A 
HETATM   23  C   UNL     1       8.382  21.045  55.322  1.00  0.00     0.035 A 
HETATM   24 CL   UNL     1       8.816  20.324  56.823  1.00  0.00    -0.084 Cl
HETATM   25  C   UNL     1       8.562  20.336  54.137  1.00  0.00     0.024 A 
HETATM   26  C   UNL     1       8.206  20.922  52.924  1.00  0.00     0.003 A 
HETATM   27  C   UNL     1       7.676  22.214  52.902  1.00  0.00     0.015 A 
ENDBRANCH  19  21
ENDBRANCH   4  19
TORSDOF 4
ENDMDL
MODEL 5
REMARK VINA RESULT:      -9.4      2.029      2.912
REMARK  4 active torsions:
REMARK  status: ('A' for Active; 'I' for Inactive)
REMARK    1  A    between atoms: C_6  and  C_7 
REMARK    2  A    between atoms: C_7  and  N_8 
REMARK    3  A    between atoms: C_11  and  C_12 
REMARK    4  A    between atoms: C_12  and  C_13 
ROOT
HETATM    1  N   UNL     1       5.874  26.965  55.572  1.00  0.00    -0.064 N 
HETATM    2  H   UNL     1       6.822  26.946  55.149  1.00  0.00     0.280 HD
HETATM    3  C   UNL     1       5.318  25.578  55.327  1.00  0.00     0.247 C 
HETATM    4  C   UNL     1       5.370  25.249  53.829  1.00  0.00     0.086 C 
HETATM    5  C   UNL     1       4.671  26.336  53.004  1.00  0.00     0.016 C 
HETATM    6  C   UNL     1       5.136  27.750  53.357  1.00  0.00     0.029 C 
HETATM    7  C   UNL     1       5.084  28.025  54.855  1.00  0.00     0.235 C 
ENDROOT
BRANCH   1   8
HETATM    8  C   UNL     1       6.104  27.270  57.038  1.00  0.00     0.313 C 
BRANCH   8   9
HETATM    9  C   UNL     1       7.215  28.223  57.334  1.00  0.00     0.131 A 
HETATM   10  N   UNL     1       8.442  28.177  56.850  1.00  0.00    -0.232 NA
HETATM   11  C   UNL     1       9.091  29.273  57.364  1.00  0.00     0.085 A 
HETATM   12  C   UNL     1       8.244  30.002  58.189  1.00  0.00     0.062 A 
HETATM   13  C   UNL     1      10.405  29.716  57.163  1.00  0.00     0.034 A 
HETATM   14  C   UNL     1       8.634  31.172  58.844  1.00  0.00     0.032 A 
HETATM   15  N   UNL     1       7.059  29.309  58.165  1.00  0.00    -0.341 N 
HETATM   16  C   UNL     1       9.949  31.601  58.630  1.00  0.00     0.002 A 
HETATM   17  C   UNL     1      10.822  30.888  57.805  1.00  0.00     0.002 A 
HETATM   18  H   UNL     1       6.224  29.578  58.666  1.00  0.00     0.167 HD
ENDBRANCH   8   9
ENDBRANCH   1   8
BRANCH   4  19
HETATM   19  C   UNL     1       6.829  25.099  53.411  1.00  0.00     0.165 C 
HETATM   20  O   UNL     1       7.343  25.972  52.703  1.00  0.00    -0.292 OA
BRANCH  19  21
HETATM   21  C   UNL     1       7.626  23.907  53.832  1.00  0.00     0.012 A 
HETATM   22  C   UNL     1       7.681  22.732  53.077  1.00  0.00     0.039 A 
HETATM   23  C   UNL     1       8.436  21.649  53.534  1.00  0.00     0.035 A 
HETATM   24 CL   UNL     1       8.493  20.204  52.600  1.00  0.00    -0.084 Cl
HETATM   25  C   UNL     1       9.139  21.724  54.733  1.00  0.00     0.024 A 
HETATM   26  C   UNL     1       9.094  22.896  55.486  1.00  0.00     0.003 A 
HETATM   27  C   UNL     1       8.341  23.984  55.037  1.00  0.00     0.015 A 
ENDBRANCH  19  21
ENDBRANCH   4  19
TORSDOF 4
ENDMDL
MODEL 6
REMARK VINA RESULT:      -9.4      4.895      8.170
REMARK  4 active torsions:
REMARK  status: ('A' for Active; 'I' for Inactive)
REMARK    1  A    between atoms: C_6  and  C_7 
REMARK    2  A    between atoms: C_7  and  N_8 
REMARK    3  A    between atoms: C_11  and  C_12 
REMARK    4  A    between atoms: C_12  and  C_13 
ROOT
HETATM    1  N   UNL     1       6.439  26.638  54.472  1.00  0.00    -0.064 N 
HETATM    2  H   UNL     1       7.023  26.737  53.620  1.00  0.00     0.280 HD
HETATM    3  C   UNL     1       5.283  25.759  54.044  1.00  0.00     0.247 C 
HETATM    4  C   UNL     1       4.581  26.374  52.824  1.00  0.00     0.086 C 
HETATM    5  C   UNL     1       4.168  27.824  53.102  1.00  0.00     0.016 C 
HETATM    6  C   UNL     1       5.306  28.674  53.671  1.00  0.00     0.029 C 
HETATM    7  C   UNL     1       5.984  28.016  54.867  1.00  0.00     0.235 C 
ENDROOT
BRANCH   1   8
HETATM    8  C   UNL     1       7.344  25.984  55.496  1.00  0.00     0.313 C 
BRANCH   8   9
HETATM    9  C   UNL     1       7.642  24.538  55.265  1.00  0.00     0.131 A 
HETATM   10  N   UNL     1       7.524  23.561  56.143  1.00  0.00    -0.232 NA
HETATM   11  C   UNL     1       7.865  22.410  55.473  1.00  0.00     0.085 A 
HETATM   12  C   UNL     1       8.209  22.693  54.157  1.00  0.00     0.062 A 
HETATM   13  C   UNL     1       7.897  21.084  55.924  1.00  0.00     0.034 A 
HETATM   14  C   UNL     1       8.594  21.713  53.240  1.00  0.00     0.032 A 
HETATM   15  N   UNL     1       8.071  24.054  54.050  1.00  0.00    -0.341 N 
HETATM   16  C   UNL     1       8.617  20.394  53.706  1.00  0.00     0.002 A 
HETATM   17  C   UNL     1       8.276  20.081  55.024  1.00  0.00     0.002 A 
HETATM   18  H   UNL     1       8.245  24.586  53.209  1.00  0.00     0.167 HD
ENDBRANCH   8   9
ENDBRANCH   1   8
BRANCH   4  19
HETATM   19  C   UNL     1       5.521  26.293  51.626  1.00  0.00     0.165 C 
HETATM   20  O   UNL     1       6.672  25.876  51.792  1.00  0.00    -0.292 OA
BRANCH  19  21
HETATM   21  C   UNL     1       5.068  26.729  50.269  1.00  0.00     0.012 A 
HETATM   22  C   UNL     1       4.284  25.920  49.441  1.00  0.00     0.039 A 
HETATM   23  C   UNL     1       3.904  26.382  48.178  1.00  0.00     0.035 A 
HETATM   24 CL   UNL     1       2.944  25.377  47.164  1.00  0.00    -0.084 Cl
HETATM   25  C   UNL     1       4.293  27.643  47.733  1.00  0.00     0.024 A 
HETATM   26  C   UNL     1       5.069  28.456  48.559  1.00  0.00     0.003 A 
HETATM   27  C   UNL     1       5.454  28.001  49.821  1.00  0.00     0.015 A 
ENDBRANCH  19  21
ENDBRANCH   4  19
TORSDOF 4
ENDMDL
MODEL 7
REMARK VINA RESULT:      -9.3      3.553      8.596
REMARK  4 active torsions:
REMARK  status: ('A' for Active; 'I' for Inactive)
REMARK    1  A    between atoms: C_6  and  C_7 
REMARK    2  A    between atoms: C_7  and  N_8 
REMARK    3  A    between atoms: C_11  and  C_12 
REMARK    4  A    between atoms: C_12  and  C_13 
ROOT
HETATM    1  N   UNL     1       6.970  26.634  54.518  1.00  0.00    -0.064 N 
HETATM    2  H   UNL     1       7.502  26.383  55.373  1.00  0.00     0.280 HD
HETATM    3  C   UNL     1       7.206  28.119  54.341  1.00  0.00     0.247 C 
HETATM    4  C   UNL     1       6.804  28.870  55.619  1.00  0.00     0.086 C 
HETATM    5  C   UNL     1       5.365  28.530  56.025  1.00  0.00     0.016 C 
HETATM    6  C   UNL     1       5.092  27.025  56.064  1.00  0.00     0.029 C 
HETATM    7  C   UNL     1       5.523  26.320  54.783  1.00  0.00     0.235 C 
ENDROOT
BRANCH   1   8
HETATM    8  C   UNL     1       7.578  25.794  53.415  1.00  0.00     0.313 C 
BRANCH   8   9
HETATM    9  C   UNL     1       7.912  24.385  53.784  1.00  0.00     0.131 A 
HETATM   10  N   UNL     1       8.185  23.932  54.993  1.00  0.00    -0.232 NA
HETATM   11  C   UNL     1       8.385  22.580  54.852  1.00  0.00     0.085 A 
HETATM   12  C   UNL     1       8.239  22.199  53.524  1.00  0.00     0.062 A 
HETATM   13  C   UNL     1       8.687  21.610  55.817  1.00  0.00     0.034 A 
HETATM   14  C   UNL     1       8.380  20.881  53.086  1.00  0.00     0.032 A 
HETATM   15  N   UNL     1       7.950  23.365  52.861  1.00  0.00    -0.341 N 
HETATM   16  C   UNL     1       8.679  19.925  54.064  1.00  0.00     0.002 A 
HETATM   17  C   UNL     1       8.831  20.280  55.406  1.00  0.00     0.002 A 
HETATM   18  H   UNL     1       7.782  23.436  51.867  1.00  0.00     0.167 HD
ENDBRANCH   8   9
ENDBRANCH   1   8
BRANCH   4  19
HETATM   19  C   UNL     1       7.785  28.508  56.729  1.00  0.00     0.165 C 
HETATM   20  O   UNL     1       7.829  27.342  57.134  1.00  0.00    -0.292 OA
BRANCH  19  21
HETATM   21  C   UNL     1       8.670  29.548  57.335  1.00  0.00     0.012 A 
HETATM   22  C   UNL     1       8.239  30.406  58.353  1.00  0.00     0.039 A 
HETATM   23  C   UNL     1       9.113  31.365  58.868  1.00  0.00     0.035 A 
HETATM   24 CL   UNL     1       8.571  32.419  60.116  1.00  0.00    -0.084 Cl
HETATM   25  C   UNL     1      10.414  31.479  58.384  1.00  0.00     0.024 A 
HETATM   26  C   UNL     1      10.851  30.622  57.376  1.00  0.00     0.003 A 
HETATM   27  C   UNL     1       9.983  29.660  56.854  1.00  0.00     0.015 A 
ENDBRANCH  19  21
ENDBRANCH   4  19
TORSDOF 4
ENDMDL
MODEL 8
REMARK VINA RESULT:      -9.2      3.214      8.285
REMARK  4 active torsions:
REMARK  status: ('A' for Active; 'I' for Inactive)
REMARK    1  A    between atoms: C_6  and  C_7 
REMARK    2  A    between atoms: C_7  and  N_8 
REMARK    3  A    between atoms: C_11  and  C_12 
REMARK    4  A    between atoms: C_12  and  C_13 
ROOT
HETATM    1  N   UNL     1       5.689  27.191  56.536  1.00  0.00    -0.064 N 
HETATM    2  H   UNL     1       6.135  27.168  57.473  1.00  0.00     0.280 HD
HETATM    3  C   UNL     1       6.817  27.528  55.583  1.00  0.00     0.247 C 
HETATM    4  C   UNL     1       7.505  28.827  56.024  1.00  0.00     0.086 C 
HETATM    5  C   UNL     1       6.487  29.962  56.180  1.00  0.00     0.016 C 
HETATM    6  C   UNL     1       5.276  29.569  57.029  1.00  0.00     0.029 C 
HETATM    7  C   UNL     1       4.637  28.264  56.566  1.00  0.00     0.235 C 
ENDROOT
BRANCH   1   8
HETATM    8  C   UNL     1       5.128  25.799  56.334  1.00  0.00     0.313 C 
BRANCH   8   9
HETATM    9  C   UNL     1       6.051  24.816  55.691  1.00  0.00     0.131 A 
HETATM   10  N   UNL     1       6.097  24.502  54.410  1.00  0.00    -0.232 NA
HETATM   11  C   UNL     1       7.122  23.595  54.282  1.00  0.00     0.085 A 
HETATM   12  C   UNL     1       7.709  23.342  55.516  1.00  0.00     0.062 A 
HETATM   13  C   UNL     1       7.613  22.950  53.140  1.00  0.00     0.034 A 
HETATM   14  C   UNL     1       8.781  22.464  55.687  1.00  0.00     0.032 A 
HETATM   15  N   UNL     1       7.004  24.121  56.399  1.00  0.00    -0.341 N 
HETATM   16  C   UNL     1       9.262  21.831  54.535  1.00  0.00     0.002 A 
HETATM   17  C   UNL     1       8.690  22.066  53.283  1.00  0.00     0.002 A 
HETATM   18  H   UNL     1       7.183  24.171  57.392  1.00  0.00     0.167 HD
ENDBRANCH   8   9
ENDBRANCH   1   8
BRANCH   4  19
HETATM   19  C   UNL     1       8.244  28.571  57.334  1.00  0.00     0.165 C 
HETATM   20  O   UNL     1       8.337  27.413  57.754  1.00  0.00    -0.292 OA
BRANCH  19  21
HETATM   21  C   UNL     1       8.832  29.703  58.113  1.00  0.00     0.012 A 
HETATM   22  C   UNL     1       8.359  30.076  59.375  1.00  0.00     0.039 A 
HETATM   23  C   UNL     1       8.946  31.152  60.045  1.00  0.00     0.035 A 
HETATM   24 CL   UNL     1       8.353  31.606  61.596  1.00  0.00    -0.084 Cl
HETATM   25  C   UNL     1      10.001  31.859  59.474  1.00  0.00     0.024 A 
HETATM   26  C   UNL     1      10.480  31.487  58.220  1.00  0.00     0.003 A 
HETATM   27  C   UNL     1       9.899  30.413  57.542  1.00  0.00     0.015 A 
ENDBRANCH  19  21
ENDBRANCH   4  19
TORSDOF 4
ENDMDL
MODEL 9
REMARK VINA RESULT:      -9.1      1.560      2.034
REMARK  4 active torsions:
REMARK  status: ('A' for Active; 'I' for Inactive)
REMARK    1  A    between atoms: C_6  and  C_7 
REMARK    2  A    between atoms: C_7  and  N_8 
REMARK    3  A    between atoms: C_11  and  C_12 
REMARK    4  A    between atoms: C_12  and  C_13 
ROOT
HETATM    1  N   UNL     1       5.790  29.776  56.649  1.00  0.00    -0.064 N 
HETATM    2  H   UNL     1       6.224  29.708  55.708  1.00  0.00     0.280 HD
HETATM    3  C   UNL     1       6.551  28.775  57.494  1.00  0.00     0.247 C 
HETATM    4  C   UNL     1       6.501  27.389  56.838  1.00  0.00     0.086 C 
HETATM    5  C   UNL     1       5.055  26.966  56.556  1.00  0.00     0.016 C 
HETATM    6  C   UNL     1       4.247  28.041  55.825  1.00  0.00     0.029 C 
HETATM    7  C   UNL     1       4.341  29.403  56.502  1.00  0.00     0.235 C 
ENDROOT
BRANCH   1   8
HETATM    8  C   UNL     1       6.005  31.212  57.079  1.00  0.00     0.313 C 
BRANCH   8   9
HETATM    9  C   UNL     1       6.774  31.400  58.346  1.00  0.00     0.131 A 
HETATM   10  N   UNL     1       8.080  31.547  58.459  1.00  0.00    -0.232 NA
HETATM   11  C   UNL     1       8.324  31.729  59.799  1.00  0.00     0.085 A 
HETATM   12  C   UNL     1       7.139  31.683  60.523  1.00  0.00     0.062 A 
HETATM   13  C   UNL     1       9.534  31.949  60.470  1.00  0.00     0.034 A 
HETATM   14  C   UNL     1       7.083  31.845  61.908  1.00  0.00     0.032 A 
HETATM   15  N   UNL     1       6.168  31.461  59.579  1.00  0.00    -0.341 N 
HETATM   16  C   UNL     1       8.300  32.066  62.563  1.00  0.00     0.002 A 
HETATM   17  C   UNL     1       9.506  32.117  61.860  1.00  0.00     0.002 A 
HETATM   18  H   UNL     1       5.180  31.376  59.778  1.00  0.00     0.167 HD
ENDBRANCH   8   9
ENDBRANCH   1   8
BRANCH   4  19
HETATM   19  C   UNL     1       7.320  27.426  55.551  1.00  0.00     0.165 C 
HETATM   20  O   UNL     1       7.848  28.488  55.206  1.00  0.00    -0.292 OA
BRANCH  19  21
HETATM   21  C   UNL     1       7.470  26.203  54.706  1.00  0.00     0.012 A 
HETATM   22  C   UNL     1       7.507  24.913  55.245  1.00  0.00     0.039 A 
HETATM   23  C   UNL     1       7.662  23.812  54.400  1.00  0.00     0.035 A 
HETATM   24 CL   UNL     1       7.712  22.229  55.075  1.00  0.00    -0.084 Cl
HETATM   25  C   UNL     1       7.776  23.980  53.023  1.00  0.00     0.024 A 
HETATM   26  C   UNL     1       7.732  25.262  52.480  1.00  0.00     0.003 A 
HETATM   27  C   UNL     1       7.579  26.369  53.317  1.00  0.00     0.015 A 
ENDBRANCH  19  21
ENDBRANCH   4  19
TORSDOF 4
ENDMDL
MODEL 10
REMARK VINA RESULT:      -9.1      4.080      8.001
REMARK  4 active torsions:
REMARK  status: ('A' for Active; 'I' for Inactive)
REMARK    1  A    between atoms: C_6  and  C_7 
REMARK    2  A    between atoms: C_7  and  N_8 
REMARK    3  A    between atoms: C_11  and  C_12 
REMARK    4  A    between atoms: C_12  and  C_13 
ROOT
HETATM    1  N   UNL     1       7.209  26.402  56.318  1.00  0.00    -0.064 N 
HETATM    2  H   UNL     1       7.309  26.122  55.323  1.00  0.00     0.280 HD
HETATM    3  C   UNL     1       5.723  26.620  56.508  1.00  0.00     0.247 C 
HETATM    4  C   UNL     1       5.205  27.633  55.477  1.00  0.00     0.086 C 
HETATM    5  C   UNL     1       6.017  28.932  55.529  1.00  0.00     0.016 C 
HETATM    6  C   UNL     1       7.529  28.697  55.480  1.00  0.00     0.029 C 
HETATM    7  C   UNL     1       7.993  27.671  56.507  1.00  0.00     0.235 C 
ENDROOT
BRANCH   1   8
HETATM    8  C   UNL     1       7.751  25.232  57.112  1.00  0.00     0.313 C 
BRANCH   8   9
HETATM    9  C   UNL     1       8.000  23.982  56.333  1.00  0.00     0.131 A 
HETATM   10  N   UNL     1       8.374  22.813  56.818  1.00  0.00    -0.232 NA
HETATM   11  C   UNL     1       8.435  21.961  55.742  1.00  0.00     0.085 A 
HETATM   12  C   UNL     1       8.099  22.626  54.570  1.00  0.00     0.062 A 
HETATM   13  C   UNL     1       8.762  20.599  55.692  1.00  0.00     0.034 A 
HETATM   14  C   UNL     1       8.069  22.006  53.320  1.00  0.00     0.032 A 
HETATM   15  N   UNL     1       7.838  23.914  54.968  1.00  0.00    -0.341 N 
HETATM   16  C   UNL     1       8.396  20.645  53.288  1.00  0.00     0.002 A 
HETATM   17  C   UNL     1       8.737  19.951  54.451  1.00  0.00     0.002 A 
HETATM   18  H   UNL     1       7.559  24.663  54.349  1.00  0.00     0.167 HD
ENDBRANCH   8   9
ENDBRANCH   1   8
BRANCH   4  19
HETATM   19  C   UNL     1       5.273  27.000  54.091  1.00  0.00     0.165 C 
HETATM   20  O   UNL     1       5.795  25.888  53.964  1.00  0.00    -0.292 OA
BRANCH  19  21
HETATM   21  C   UNL     1       4.735  27.719  52.896  1.00  0.00     0.012 A 
HETATM   22  C   UNL     1       5.428  27.790  51.683  1.00  0.00     0.039 A 
HETATM   23  C   UNL     1       4.874  28.489  50.608  1.00  0.00     0.035 A 
HETATM   24 CL   UNL     1       5.738  28.575  49.122  1.00  0.00    -0.084 Cl
HETATM   25  C   UNL     1       3.636  29.114  50.725  1.00  0.00     0.024 A 
HETATM   26  C   UNL     1       2.938  29.040  51.929  1.00  0.00     0.003 A 
HETATM   27  C   UNL     1       3.485  28.345  53.010  1.00  0.00     0.015 A 
ENDBRANCH  19  21
ENDBRANCH   4  19
TORSDOF 4
ENDMDL
