MODEL 1
REMARK VINA RESULT:      -8.7      0.000      0.000
REMARK  7 active torsions:
REMARK  status: ('A' for Active; 'I' for Inactive)
REMARK    1  A    between atoms: C_2  and  N_3 
REMARK    2  A    between atoms: N_3  and  C_4 
REMARK    3  A    between atoms: C_6  and  N_7 
REMARK    4  A    between atoms: N_7  and  C_8 
REMARK    5  A    between atoms: C_8  and  C_9 
REMARK    6  A    between atoms: C_9  and  C_10 
REMARK    7  A    between atoms: C_11  and  O_12 
ROOT
HETATM    1  C   UNL     1       7.384  24.351  53.908  1.00  0.00     0.119 A 
HETATM    2  N   UNL     1       7.466  25.293  54.867  1.00  0.00    -0.207 NA
HETATM    3  C   UNL     1       7.838  24.908  56.093  1.00  0.00     0.181 A 
HETATM    4  N   UNL     1       8.113  23.647  56.408  1.00  0.00    -0.330 N 
HETATM    5  H   UNL     1       8.312  23.448  57.379  1.00  0.00     0.168 HD
HETATM    6  C   UNL     1       8.085  22.680  55.487  1.00  0.00     0.048 A 
HETATM    7  C   UNL     1       7.722  23.003  54.165  1.00  0.00     0.031 A 
HETATM    8  C   UNL     1       8.416  21.363  55.841  1.00  0.00     0.030 A 
HETATM    9  C   UNL     1       8.405  20.355  54.878  1.00  0.00     0.002 A 
HETATM   10  C   UNL     1       8.066  20.656  53.562  1.00  0.00     0.001 A 
HETATM   11  C   UNL     1       7.729  21.964  53.205  1.00  0.00     0.017 A 
ENDROOT
BRANCH   3  12
HETATM   12  N   UNL     1       7.847  25.868  57.085  1.00  0.00    -0.262 NA
HETATM   13  H   UNL     1       7.472  25.411  57.923  1.00  0.00     0.130 HD
BRANCH  12  14
HETATM   14  C   UNL     1       7.209  27.160  56.822  1.00  0.00     0.100 C 
BRANCH  14  15
HETATM   15  C   UNL     1       7.485  28.186  57.931  1.00  0.00     0.056 C 
BRANCH  15  16
HETATM   16  C   UNL     1       8.669  29.126  57.786  1.00  0.00    -0.024 A 
HETATM   17  C   UNL     1       8.688  30.306  58.563  1.00  0.00     0.074 A 
HETATM   18  C   UNL     1       9.769  31.189  58.474  1.00  0.00     0.037 A 
HETATM   19  C   UNL     1      10.827  30.920  57.607  1.00  0.00     0.003 A 
HETATM   20  C   UNL     1      10.808  29.774  56.821  1.00  0.00     0.001 A 
HETATM   21  C   UNL     1       9.736  28.885  56.905  1.00  0.00     0.010 A 
BRANCH  17  22
HETATM   22  O   UNL     1       7.602  30.492  59.383  1.00  0.00    -0.355 OA
HETATM   23  C   UNL     1       7.328  31.824  59.805  1.00  0.00     0.210 C 
ENDBRANCH  17  22
ENDBRANCH  15  16
ENDBRANCH  14  15
ENDBRANCH  12  14
ENDBRANCH   3  12
BRANCH   1  24
HETATM   24  N   UNL     1       7.008  24.732  52.616  1.00  0.00    -0.273 NA
HETATM   25  H   UNL     1       6.976  23.938  51.982  1.00  0.00     0.129 HD
BRANCH  24  26
HETATM   26  C   UNL     1       5.836  25.601  52.445  1.00  0.00     0.053 C 
HETATM   27  C   UNL     1       4.554  24.871  52.849  1.00  0.00     0.026 C 
HETATM   28  C   UNL     1       5.762  26.003  50.971  1.00  0.00     0.026 C 
ENDBRANCH  24  26
ENDBRANCH   1  24
TORSDOF 7
ENDMDL
MODEL 2
REMARK VINA RESULT:      -8.5      2.522      7.735
REMARK  7 active torsions:
REMARK  status: ('A' for Active; 'I' for Inactive)
REMARK    1  A    between atoms: C_2  and  N_3 
REMARK    2  A    between atoms: N_3  and  C_4 
REMARK    3  A    between atoms: C_6  and  N_7 
REMARK    4  A    between atoms: N_7  and  C_8 
REMARK    5  A    between atoms: C_8  and  C_9 
REMARK    6  A    between atoms: C_9  and  C_10 
REMARK    7  A    between atoms: C_11  and  O_12 
ROOT
HETATM    1  C   UNL     1       7.276  28.991  57.751  1.00  0.00     0.119 A 
HETATM    2  N   UNL     1       7.877  27.856  58.157  1.00  0.00    -0.207 NA
HETATM    3  C   UNL     1       7.535  26.714  57.549  1.00  0.00     0.181 A 
HETATM    4  N   UNL     1       6.625  26.647  56.584  1.00  0.00    -0.330 N 
HETATM    5  H   UNL     1       6.382  25.727  56.241  1.00  0.00     0.168 HD
HETATM    6  C   UNL     1       6.026  27.747  56.117  1.00  0.00     0.048 A 
HETATM    7  C   UNL     1       6.345  28.995  56.688  1.00  0.00     0.031 A 
HETATM    8  C   UNL     1       5.096  27.651  55.071  1.00  0.00     0.030 A 
HETATM    9  C   UNL     1       4.484  28.799  54.571  1.00  0.00     0.002 A 
HETATM   10  C   UNL     1       4.797  30.044  55.110  1.00  0.00     0.001 A 
HETATM   11  C   UNL     1       5.717  30.145  56.156  1.00  0.00     0.017 A 
ENDROOT
BRANCH   3  12
HETATM   12  N   UNL     1       8.101  25.547  58.022  1.00  0.00    -0.262 NA
HETATM   13  H   UNL     1       8.825  25.836  58.689  1.00  0.00     0.130 HD
BRANCH  12  14
HETATM   14  C   UNL     1       8.593  24.560  57.057  1.00  0.00     0.100 C 
BRANCH  14  15
HETATM   15  C   UNL     1       7.534  23.503  56.710  1.00  0.00     0.056 C 
BRANCH  15  16
HETATM   16  C   UNL     1       7.703  22.680  55.446  1.00  0.00    -0.024 A 
HETATM   17  C   UNL     1       7.491  23.312  54.200  1.00  0.00     0.074 A 
HETATM   18  C   UNL     1       7.656  22.595  53.010  1.00  0.00     0.037 A 
HETATM   19  C   UNL     1       8.015  21.248  53.045  1.00  0.00     0.003 A 
HETATM   20  C   UNL     1       8.205  20.610  54.266  1.00  0.00     0.001 A 
HETATM   21  C   UNL     1       8.047  21.318  55.458  1.00  0.00     0.010 A 
BRANCH  17  22
HETATM   22  O   UNL     1       7.134  24.637  54.261  1.00  0.00    -0.355 OA
HETATM   23  C   UNL     1       7.724  25.513  53.307  1.00  0.00     0.210 C 
ENDBRANCH  17  22
ENDBRANCH  15  16
ENDBRANCH  14  15
ENDBRANCH  12  14
ENDBRANCH   3  12
BRANCH   1  24
HETATM   24  N   UNL     1       7.628  30.197  58.364  1.00  0.00    -0.273 NA
HETATM   25  H   UNL     1       6.860  30.582  58.909  1.00  0.00     0.129 HD
BRANCH  24  26
HETATM   26  C   UNL     1       8.897  30.277  59.100  1.00  0.00     0.053 C 
HETATM   27  C   UNL     1       8.660  30.697  60.550  1.00  0.00     0.026 C 
HETATM   28  C   UNL     1       9.781  31.309  58.398  1.00  0.00     0.026 C 
ENDBRANCH  24  26
ENDBRANCH   1  24
TORSDOF 7
ENDMDL
MODEL 3
REMARK VINA RESULT:      -8.4      3.471      7.360
REMARK  7 active torsions:
REMARK  status: ('A' for Active; 'I' for Inactive)
REMARK    1  A    between atoms: C_2  and  N_3 
REMARK    2  A    between atoms: N_3  and  C_4 
REMARK    3  A    between atoms: C_6  and  N_7 
REMARK    4  A    between atoms: N_7  and  C_8 
REMARK    5  A    between atoms: C_8  and  C_9 
REMARK    6  A    between atoms: C_9  and  C_10 
REMARK    7  A    between atoms: C_11  and  O_12 
ROOT
HETATM    1  C   UNL     1       7.929  24.322  55.037  1.00  0.00     0.119 A 
HETATM    2  N   UNL     1       7.627  25.046  53.943  1.00  0.00    -0.207 NA
HETATM    3  C   UNL     1       7.539  24.405  52.771  1.00  0.00     0.181 A 
HETATM    4  N   UNL     1       7.750  23.101  52.638  1.00  0.00    -0.330 N 
HETATM    5  H   UNL     1       7.734  22.724  51.699  1.00  0.00     0.168 HD
HETATM    6  C   UNL     1       8.015  22.329  53.695  1.00  0.00     0.048 A 
HETATM    7  C   UNL     1       8.105  22.921  54.970  1.00  0.00     0.031 A 
HETATM    8  C   UNL     1       8.197  20.947  53.529  1.00  0.00     0.030 A 
HETATM    9  C   UNL     1       8.455  20.137  54.634  1.00  0.00     0.002 A 
HETATM   10  C   UNL     1       8.532  20.700  55.905  1.00  0.00     0.001 A 
HETATM   11  C   UNL     1       8.358  22.075  56.075  1.00  0.00     0.017 A 
ENDROOT
BRANCH   3  12
HETATM   12  N   UNL     1       7.303  25.168  51.645  1.00  0.00    -0.262 NA
HETATM   13  H   UNL     1       8.225  25.449  51.296  1.00  0.00     0.130 HD
BRANCH  12  14
HETATM   14  C   UNL     1       6.375  26.298  51.741  1.00  0.00     0.100 C 
BRANCH  14  15
HETATM   15  C   UNL     1       5.134  26.113  50.855  1.00  0.00     0.056 C 
BRANCH  15  16
HETATM   16  C   UNL     1       4.897  27.080  49.709  1.00  0.00    -0.024 A 
HETATM   17  C   UNL     1       4.108  26.650  48.619  1.00  0.00     0.074 A 
HETATM   18  C   UNL     1       3.849  27.517  47.553  1.00  0.00     0.037 A 
HETATM   19  C   UNL     1       4.380  28.806  47.549  1.00  0.00     0.003 A 
HETATM   20  C   UNL     1       5.177  29.233  48.605  1.00  0.00     0.001 A 
HETATM   21  C   UNL     1       5.438  28.376  49.676  1.00  0.00     0.010 A 
BRANCH  17  22
HETATM   22  O   UNL     1       3.631  25.364  48.705  1.00  0.00    -0.355 OA
HETATM   23  C   UNL     1       2.857  24.885  47.611  1.00  0.00     0.210 C 
ENDBRANCH  17  22
ENDBRANCH  15  16
ENDBRANCH  14  15
ENDBRANCH  12  14
ENDBRANCH   3  12
BRANCH   1  24
HETATM   24  N   UNL     1       8.015  24.969  56.273  1.00  0.00    -0.273 NA
HETATM   25  H   UNL     1       8.961  25.288  56.468  1.00  0.00     0.129 HD
BRANCH  24  26
HETATM   26  C   UNL     1       7.023  26.002  56.604  1.00  0.00     0.053 C 
HETATM   27  C   UNL     1       7.575  26.969  57.651  1.00  0.00     0.026 C 
HETATM   28  C   UNL     1       5.779  25.299  57.151  1.00  0.00     0.026 C 
ENDBRANCH  24  26
ENDBRANCH   1  24
TORSDOF 7
ENDMDL
MODEL 4
REMARK VINA RESULT:      -8.4      1.165      2.078
REMARK  7 active torsions:
REMARK  status: ('A' for Active; 'I' for Inactive)
REMARK    1  A    between atoms: C_2  and  N_3 
REMARK    2  A    between atoms: N_3  and  C_4 
REMARK    3  A    between atoms: C_6  and  N_7 
REMARK    4  A    between atoms: N_7  and  C_8 
REMARK    5  A    between atoms: C_8  and  C_9 
REMARK    6  A    between atoms: C_9  and  C_10 
REMARK    7  A    between atoms: C_11  and  O_12 
ROOT
HETATM    1  C   UNL     1       7.697  24.082  54.010  1.00  0.00     0.119 A 
HETATM    2  N   UNL     1       7.775  24.869  55.101  1.00  0.00    -0.207 NA
HETATM    3  C   UNL     1       8.141  24.302  56.257  1.00  0.00     0.181 A 
HETATM    4  N   UNL     1       8.412  23.008  56.380  1.00  0.00    -0.330 N 
HETATM    5  H   UNL     1       8.606  22.664  57.311  1.00  0.00     0.168 HD
HETATM    6  C   UNL     1       8.388  22.191  55.324  1.00  0.00     0.048 A 
HETATM    7  C   UNL     1       8.032  22.711  54.063  1.00  0.00     0.031 A 
HETATM    8  C   UNL     1       8.715  20.834  55.477  1.00  0.00     0.030 A 
HETATM    9  C   UNL     1       8.708  19.984  54.372  1.00  0.00     0.002 A 
HETATM   10  C   UNL     1       8.376  20.481  53.115  1.00  0.00     0.001 A 
HETATM   11  C   UNL     1       8.043  21.828  52.958  1.00  0.00     0.017 A 
ENDROOT
BRANCH   3  12
HETATM   12  N   UNL     1       8.145  25.102  57.382  1.00  0.00    -0.262 NA
HETATM   13  H   UNL     1       8.034  24.466  58.180  1.00  0.00     0.130 HD
BRANCH  12  14
HETATM   14  C   UNL     1       7.224  26.240  57.444  1.00  0.00     0.100 C 
BRANCH  14  15
HETATM   15  C   UNL     1       7.959  27.588  57.446  1.00  0.00     0.056 C 
BRANCH  15  16
HETATM   16  C   UNL     1       7.164  28.859  57.687  1.00  0.00    -0.024 A 
HETATM   17  C   UNL     1       7.810  29.945  58.318  1.00  0.00     0.074 A 
HETATM   18  C   UNL     1       7.120  31.141  58.541  1.00  0.00     0.037 A 
HETATM   19  C   UNL     1       5.785  31.265  58.157  1.00  0.00     0.003 A 
HETATM   20  C   UNL     1       5.132  30.195  57.556  1.00  0.00     0.001 A 
HETATM   21  C   UNL     1       5.814  28.999  57.325  1.00  0.00     0.010 A 
BRANCH  17  22
HETATM   22  O   UNL     1       9.121  29.732  58.667  1.00  0.00    -0.355 OA
HETATM   23  C   UNL     1      10.106  30.514  57.999  1.00  0.00     0.210 C 
ENDBRANCH  17  22
ENDBRANCH  15  16
ENDBRANCH  14  15
ENDBRANCH  12  14
ENDBRANCH   3  12
BRANCH   1  24
HETATM   24  N   UNL     1       7.329  24.655  52.790  1.00  0.00    -0.273 NA
HETATM   25  H   UNL     1       7.281  23.962  52.046  1.00  0.00     0.129 HD
BRANCH  24  26
HETATM   26  C   UNL     1       6.174  25.562  52.750  1.00  0.00     0.053 C 
HETATM   27  C   UNL     1       4.899  24.840  53.188  1.00  0.00     0.026 C 
HETATM   28  C   UNL     1       6.020  26.062  51.313  1.00  0.00     0.026 C 
ENDBRANCH  24  26
ENDBRANCH   1  24
TORSDOF 7
ENDMDL
MODEL 5
REMARK VINA RESULT:      -8.4      2.704      7.992
REMARK  7 active torsions:
REMARK  status: ('A' for Active; 'I' for Inactive)
REMARK    1  A    between atoms: C_2  and  N_3 
REMARK    2  A    between atoms: N_3  and  C_4 
REMARK    3  A    between atoms: C_6  and  N_7 
REMARK    4  A    between atoms: N_7  and  C_8 
REMARK    5  A    between atoms: C_8  and  C_9 
REMARK    6  A    between atoms: C_9  and  C_10 
REMARK    7  A    between atoms: C_11  and  O_12 
ROOT
HETATM    1  C   UNL     1       6.667  28.346  57.434  1.00  0.00     0.119 A 
HETATM    2  N   UNL     1       6.584  27.146  56.827  1.00  0.00    -0.207 NA
HETATM    3  C   UNL     1       5.485  26.881  56.112  1.00  0.00     0.181 A 
HETATM    4  N   UNL     1       4.474  27.733  55.987  1.00  0.00    -0.330 N 
HETATM    5  H   UNL     1       3.656  27.409  55.488  1.00  0.00     0.168 HD
HETATM    6  C   UNL     1       4.521  28.950  56.535  1.00  0.00     0.048 A 
HETATM    7  C   UNL     1       5.653  29.319  57.289  1.00  0.00     0.031 A 
HETATM    8  C   UNL     1       3.453  29.844  56.356  1.00  0.00     0.030 A 
HETATM    9  C   UNL     1       3.509  31.121  56.913  1.00  0.00     0.002 A 
HETATM   10  C   UNL     1       4.625  31.511  57.646  1.00  0.00     0.001 A 
HETATM   11  C   UNL     1       5.687  30.623  57.834  1.00  0.00     0.017 A 
ENDROOT
BRANCH   3  12
HETATM   12  N   UNL     1       5.376  25.622  55.556  1.00  0.00    -0.262 NA
HETATM   13  H   UNL     1       5.847  24.985  56.207  1.00  0.00     0.130 HD
BRANCH  12  14
HETATM   14  C   UNL     1       5.810  25.423  54.170  1.00  0.00     0.100 C 
BRANCH  14  15
HETATM   15  C   UNL     1       7.258  24.921  54.076  1.00  0.00     0.056 C 
BRANCH  15  16
HETATM   16  C   UNL     1       7.524  23.427  54.139  1.00  0.00    -0.024 A 
HETATM   17  C   UNL     1       7.633  22.818  55.410  1.00  0.00     0.074 A 
HETATM   18  C   UNL     1       7.857  21.442  55.513  1.00  0.00     0.037 A 
HETATM   19  C   UNL     1       7.992  20.663  54.364  1.00  0.00     0.003 A 
HETATM   20  C   UNL     1       7.909  21.255  53.109  1.00  0.00     0.001 A 
HETATM   21  C   UNL     1       7.681  22.627  52.996  1.00  0.00     0.010 A 
BRANCH  17  22
HETATM   22  O   UNL     1       7.493  23.662  56.485  1.00  0.00    -0.355 OA
HETATM   23  C   UNL     1       8.669  23.968  57.227  1.00  0.00     0.210 C 
ENDBRANCH  17  22
ENDBRANCH  15  16
ENDBRANCH  14  15
ENDBRANCH  12  14
ENDBRANCH   3  12
BRANCH   1  24
HETATM   24  N   UNL     1       7.812  28.649  58.176  1.00  0.00    -0.273 NA
HETATM   25  H   UNL     1       8.297  27.809  58.482  1.00  0.00     0.129 HD
BRANCH  24  26
HETATM   26  C   UNL     1       8.752  29.651  57.655  1.00  0.00     0.053 C 
HETATM   27  C   UNL     1       9.922  28.976  56.937  1.00  0.00     0.026 C 
HETATM   28  C   UNL     1       9.272  30.467  58.840  1.00  0.00     0.026 C 
ENDBRANCH  24  26
ENDBRANCH   1  24
TORSDOF 7
ENDMDL
MODEL 6
REMARK VINA RESULT:      -8.3      2.754      8.206
REMARK  7 active torsions:
REMARK  status: ('A' for Active; 'I' for Inactive)
REMARK    1  A    between atoms: C_2  and  N_3 
REMARK    2  A    between atoms: N_3  and  C_4 
REMARK    3  A    between atoms: C_6  and  N_7 
REMARK    4  A    between atoms: N_7  and  C_8 
REMARK    5  A    between atoms: C_8  and  C_9 
REMARK    6  A    between atoms: C_9  and  C_10 
REMARK    7  A    between atoms: C_11  and  O_12 
ROOT
HETATM    1  C   UNL     1       7.704  30.168  58.688  1.00  0.00     0.119 A 
HETATM    2  N   UNL     1       8.315  29.005  58.391  1.00  0.00    -0.207 NA
HETATM    3  C   UNL     1       7.655  28.129  57.624  1.00  0.00     0.181 A 
HETATM    4  N   UNL     1       6.429  28.345  57.161  1.00  0.00    -0.330 N 
HETATM    5  H   UNL     1       5.988  27.590  56.654  1.00  0.00     0.168 HD
HETATM    6  C   UNL     1       5.793  29.496  57.393  1.00  0.00     0.048 A 
HETATM    7  C   UNL     1       6.425  30.483  58.175  1.00  0.00     0.031 A 
HETATM    8  C   UNL     1       4.512  29.712  56.860  1.00  0.00     0.030 A 
HETATM    9  C   UNL     1       3.854  30.920  57.087  1.00  0.00     0.002 A 
HETATM   10  C   UNL     1       4.468  31.915  57.842  1.00  0.00     0.001 A 
HETATM   11  C   UNL     1       5.740  31.703  58.381  1.00  0.00     0.017 A 
ENDROOT
BRANCH   3  12
HETATM   12  N   UNL     1       8.259  26.910  57.387  1.00  0.00    -0.262 NA
HETATM   13  H   UNL     1       8.520  26.913  56.395  1.00  0.00     0.130 HD
BRANCH  12  14
HETATM   14  C   UNL     1       7.554  25.686  57.774  1.00  0.00     0.100 C 
BRANCH  14  15
HETATM   15  C   UNL     1       6.541  25.233  56.712  1.00  0.00     0.056 C 
BRANCH  15  16
HETATM   16  C   UNL     1       7.053  24.626  55.419  1.00  0.00    -0.024 A 
HETATM   17  C   UNL     1       7.225  25.473  54.301  1.00  0.00     0.074 A 
HETATM   18  C   UNL     1       7.714  24.958  53.097  1.00  0.00     0.037 A 
HETATM   19  C   UNL     1       8.020  23.602  52.984  1.00  0.00     0.003 A 
HETATM   20  C   UNL     1       7.833  22.755  54.070  1.00  0.00     0.001 A 
HETATM   21  C   UNL     1       7.350  23.261  55.278  1.00  0.00     0.010 A 
BRANCH  17  22
HETATM   22  O   UNL     1       6.893  26.791  54.501  1.00  0.00    -0.355 OA
HETATM   23  C   UNL     1       7.698  27.769  53.851  1.00  0.00     0.210 C 
ENDBRANCH  17  22
ENDBRANCH  15  16
ENDBRANCH  14  15
ENDBRANCH  12  14
ENDBRANCH   3  12
BRANCH   1  24
HETATM   24  N   UNL     1       8.379  31.103  59.477  1.00  0.00    -0.273 NA
HETATM   25  H   UNL     1       8.310  32.043  59.092  1.00  0.00     0.129 HD
BRANCH  24  26
HETATM   26  C   UNL     1       8.154  31.103  60.929  1.00  0.00     0.053 C 
HETATM   27  C   UNL     1       7.883  32.519  61.438  1.00  0.00     0.026 C 
HETATM   28  C   UNL     1       9.411  30.543  61.598  1.00  0.00     0.026 C 
ENDBRANCH  24  26
ENDBRANCH   1  24
TORSDOF 7
ENDMDL
MODEL 7
REMARK VINA RESULT:      -8.2      3.445      7.542
REMARK  7 active torsions:
REMARK  status: ('A' for Active; 'I' for Inactive)
REMARK    1  A    between atoms: C_2  and  N_3 
REMARK    2  A    between atoms: N_3  and  C_4 
REMARK    3  A    between atoms: C_6  and  N_7 
REMARK    4  A    between atoms: N_7  and  C_8 
REMARK    5  A    between atoms: C_8  and  C_9 
REMARK    6  A    between atoms: C_9  and  C_10 
REMARK    7  A    between atoms: C_11  and  O_12 
ROOT
HETATM    1  C   UNL     1       6.875  24.170  54.880  1.00  0.00     0.119 A 
HETATM    2  N   UNL     1       6.601  25.046  53.894  1.00  0.00    -0.207 NA
HETATM    3  C   UNL     1       6.867  24.676  52.636  1.00  0.00     0.181 A 
HETATM    4  N   UNL     1       7.399  23.502  52.319  1.00  0.00    -0.330 N 
HETATM    5  H   UNL     1       7.631  23.347  51.347  1.00  0.00     0.168 HD
HETATM    6  C   UNL     1       7.655  22.581  53.253  1.00  0.00     0.048 A 
HETATM    7  C   UNL     1       7.385  22.882  54.602  1.00  0.00     0.031 A 
HETATM    8  C   UNL     1       8.183  21.334  52.884  1.00  0.00     0.030 A 
HETATM    9  C   UNL     1       8.434  20.366  53.856  1.00  0.00     0.002 A 
HETATM   10  C   UNL     1       8.159  20.636  55.193  1.00  0.00     0.001 A 
HETATM   11  C   UNL     1       7.639  21.878  55.566  1.00  0.00     0.017 A 
ENDROOT
BRANCH   3  12
HETATM   12  N   UNL     1       6.651  25.609  51.641  1.00  0.00    -0.262 NA
HETATM   13  H   UNL     1       7.069  26.482  51.978  1.00  0.00     0.130 HD
BRANCH  12  14
HETATM   14  C   UNL     1       5.288  25.800  51.137  1.00  0.00     0.100 C 
BRANCH  14  15
HETATM   15  C   UNL     1       5.233  26.783  49.958  1.00  0.00     0.056 C 
BRANCH  15  16
HETATM   16  C   UNL     1       4.016  26.776  49.051  1.00  0.00    -0.024 A 
HETATM   17  C   UNL     1       3.003  27.734  49.278  1.00  0.00     0.074 A 
HETATM   18  C   UNL     1       1.875  27.775  48.453  1.00  0.00     0.037 A 
HETATM   19  C   UNL     1       1.733  26.861  47.410  1.00  0.00     0.003 A 
HETATM   20  C   UNL     1       2.712  25.899  47.190  1.00  0.00     0.001 A 
HETATM   21  C   UNL     1       3.844  25.853  48.006  1.00  0.00     0.010 A 
BRANCH  17  22
HETATM   22  O   UNL     1       3.224  28.590  50.330  1.00  0.00    -0.355 OA
HETATM   23  C   UNL     1       2.539  29.838  50.307  1.00  0.00     0.210 C 
ENDBRANCH  17  22
ENDBRANCH  15  16
ENDBRANCH  14  15
ENDBRANCH  12  14
ENDBRANCH   3  12
BRANCH   1  24
HETATM   24  N   UNL     1       6.595  24.530  56.201  1.00  0.00    -0.273 NA
HETATM   25  H   UNL     1       7.171  24.015  56.863  1.00  0.00     0.129 HD
BRANCH  24  26
HETATM   26  C   UNL     1       6.525  25.956  56.549  1.00  0.00     0.053 C 
HETATM   27  C   UNL     1       7.485  26.284  57.693  1.00  0.00     0.026 C 
HETATM   28  C   UNL     1       5.088  26.265  56.973  1.00  0.00     0.026 C 
ENDBRANCH  24  26
ENDBRANCH   1  24
TORSDOF 7
ENDMDL
MODEL 8
REMARK VINA RESULT:      -8.1      3.361      7.214
REMARK  7 active torsions:
REMARK  status: ('A' for Active; 'I' for Inactive)
REMARK    1  A    between atoms: C_2  and  N_3 
REMARK    2  A    between atoms: N_3  and  C_4 
REMARK    3  A    between atoms: C_6  and  N_7 
REMARK    4  A    between atoms: N_7  and  C_8 
REMARK    5  A    between atoms: C_8  and  C_9 
REMARK    6  A    between atoms: C_9  and  C_10 
REMARK    7  A    between atoms: C_11  and  O_12 
ROOT
HETATM    1  C   UNL     1       4.318  27.987  53.250  1.00  0.00     0.119 A 
HETATM    2  N   UNL     1       4.598  26.730  52.856  1.00  0.00    -0.207 NA
HETATM    3  C   UNL     1       5.120  25.892  53.758  1.00  0.00     0.181 A 
HETATM    4  N   UNL     1       5.388  26.245  55.010  1.00  0.00    -0.330 N 
HETATM    5  H   UNL     1       5.852  25.561  55.593  1.00  0.00     0.168 HD
HETATM    6  C   UNL     1       5.095  27.466  55.465  1.00  0.00     0.048 A 
HETATM    7  C   UNL     1       4.523  28.405  54.584  1.00  0.00     0.031 A 
HETATM    8  C   UNL     1       5.356  27.800  56.803  1.00  0.00     0.030 A 
HETATM    9  C   UNL     1       5.035  29.068  57.283  1.00  0.00     0.002 A 
HETATM   10  C   UNL     1       4.453  30.006  56.435  1.00  0.00     0.001 A 
HETATM   11  C   UNL     1       4.198  29.681  55.100  1.00  0.00     0.017 A 
ENDROOT
BRANCH   3  12
HETATM   12  N   UNL     1       5.472  24.629  53.324  1.00  0.00    -0.262 NA
HETATM   13  H   UNL     1       5.599  24.065  54.171  1.00  0.00     0.130 HD
BRANCH  12  14
HETATM   14  C   UNL     1       6.592  24.491  52.389  1.00  0.00     0.100 C 
BRANCH  14  15
HETATM   15  C   UNL     1       7.896  24.089  53.093  1.00  0.00     0.056 C 
BRANCH  15  16
HETATM   16  C   UNL     1       7.968  22.747  53.798  1.00  0.00    -0.024 A 
HETATM   17  C   UNL     1       7.691  22.700  55.183  1.00  0.00     0.074 A 
HETATM   18  C   UNL     1       7.726  21.481  55.867  1.00  0.00     0.037 A 
HETATM   19  C   UNL     1       8.050  20.305  55.191  1.00  0.00     0.003 A 
HETATM   20  C   UNL     1       8.346  20.342  53.834  1.00  0.00     0.001 A 
HETATM   21  C   UNL     1       8.310  21.554  53.142  1.00  0.00     0.010 A 
BRANCH  17  22
HETATM   22  O   UNL     1       7.388  23.907  55.767  1.00  0.00    -0.355 OA
HETATM   23  C   UNL     1       8.324  24.428  56.704  1.00  0.00     0.210 C 
ENDBRANCH  17  22
ENDBRANCH  15  16
ENDBRANCH  14  15
ENDBRANCH  12  14
ENDBRANCH   3  12
BRANCH   1  24
HETATM   24  N   UNL     1       3.760  28.876  52.327  1.00  0.00    -0.273 NA
HETATM   25  H   UNL     1       3.925  29.846  52.589  1.00  0.00     0.129 HD
BRANCH  24  26
HETATM   26  C   UNL     1       4.006  28.660  50.895  1.00  0.00     0.053 C 
HETATM   27  C   UNL     1       5.200  29.487  50.417  1.00  0.00     0.026 C 
HETATM   28  C   UNL     1       2.746  29.080  50.135  1.00  0.00     0.026 C 
ENDBRANCH  24  26
ENDBRANCH   1  24
TORSDOF 7
ENDMDL
MODEL 9
REMARK VINA RESULT:      -8.1      1.503      2.154
REMARK  7 active torsions:
REMARK  status: ('A' for Active; 'I' for Inactive)
REMARK    1  A    between atoms: C_2  and  N_3 
REMARK    2  A    between atoms: N_3  and  C_4 
REMARK    3  A    between atoms: C_6  and  N_7 
REMARK    4  A    between atoms: N_7  and  C_8 
REMARK    5  A    between atoms: C_8  and  C_9 
REMARK    6  A    between atoms: C_9  and  C_10 
REMARK    7  A    between atoms: C_11  and  O_12 
ROOT
HETATM    1  C   UNL     1       7.691  24.223  53.941  1.00  0.00     0.119 A 
HETATM    2  N   UNL     1       7.884  25.063  54.975  1.00  0.00    -0.207 NA
HETATM    3  C   UNL     1       8.287  24.541  56.140  1.00  0.00     0.181 A 
HETATM    4  N   UNL     1       8.487  23.241  56.324  1.00  0.00    -0.330 N 
HETATM    5  H   UNL     1       8.719  22.938  57.261  1.00  0.00     0.168 HD
HETATM    6  C   UNL     1       8.348  22.368  55.322  1.00  0.00     0.048 A 
HETATM    7  C   UNL     1       7.946  22.838  54.056  1.00  0.00     0.031 A 
HETATM    8  C   UNL     1       8.602  21.005  55.537  1.00  0.00     0.030 A 
HETATM    9  C   UNL     1       8.474  20.096  54.488  1.00  0.00     0.002 A 
HETATM   10  C   UNL     1       8.094  20.541  53.225  1.00  0.00     0.001 A 
HETATM   11  C   UNL     1       7.833  21.896  53.008  1.00  0.00     0.017 A 
ENDROOT
BRANCH   3  12
HETATM   12  N   UNL     1       8.411  25.400  57.213  1.00  0.00    -0.262 NA
HETATM   13  H   UNL     1       7.732  25.079  57.911  1.00  0.00     0.130 HD
BRANCH  12  14
HETATM   14  C   UNL     1       8.325  26.844  56.974  1.00  0.00     0.100 C 
BRANCH  14  15
HETATM   15  C   UNL     1       7.026  27.451  57.522  1.00  0.00     0.056 C 
BRANCH  15  16
HETATM   16  C   UNL     1       7.000  28.924  57.891  1.00  0.00    -0.024 A 
HETATM   17  C   UNL     1       5.914  29.710  57.443  1.00  0.00     0.074 A 
HETATM   18  C   UNL     1       5.842  31.065  57.777  1.00  0.00     0.037 A 
HETATM   19  C   UNL     1       6.848  31.656  58.541  1.00  0.00     0.003 A 
HETATM   20  C   UNL     1       7.933  30.899  58.968  1.00  0.00     0.001 A 
HETATM   21  C   UNL     1       8.011  29.544  58.643  1.00  0.00     0.010 A 
BRANCH  17  22
HETATM   22  O   UNL     1       4.974  29.047  56.692  1.00  0.00    -0.355 OA
HETATM   23  C   UNL     1       3.806  29.773  56.325  1.00  0.00     0.210 C 
ENDBRANCH  17  22
ENDBRANCH  15  16
ENDBRANCH  14  15
ENDBRANCH  12  14
ENDBRANCH   3  12
BRANCH   1  24
HETATM   24  N   UNL     1       7.281  24.748  52.712  1.00  0.00    -0.273 NA
HETATM   25  H   UNL     1       7.276  24.040  51.981  1.00  0.00     0.129 HD
BRANCH  24  26
HETATM   26  C   UNL     1       6.068  25.576  52.662  1.00  0.00     0.053 C 
HETATM   27  C   UNL     1       4.838  24.765  53.070  1.00  0.00     0.026 C 
HETATM   28  C   UNL     1       5.905  26.081  51.227  1.00  0.00     0.026 C 
ENDBRANCH  24  26
ENDBRANCH   1  24
TORSDOF 7
ENDMDL
MODEL 10
REMARK VINA RESULT:      -8.0      1.812      4.540
REMARK  7 active torsions:
REMARK  status: ('A' for Active; 'I' for Inactive)
REMARK    1  A    between atoms: C_2  and  N_3 
REMARK    2  A    between atoms: N_3  and  C_4 
REMARK    3  A    between atoms: C_6  and  N_7 
REMARK    4  A    between atoms: N_7  and  C_8 
REMARK    5  A    between atoms: C_8  and  C_9 
REMARK    6  A    between atoms: C_9  and  C_10 
REMARK    7  A    between atoms: C_11  and  O_12 
ROOT
HETATM    1  C   UNL     1       6.719  26.032  54.020  1.00  0.00     0.119 A 
HETATM    2  N   UNL     1       7.147  26.977  54.878  1.00  0.00    -0.207 NA
HETATM    3  C   UNL     1       7.000  28.259  54.523  1.00  0.00     0.181 A 
HETATM    4  N   UNL     1       6.471  28.637  53.365  1.00  0.00    -0.330 N 
HETATM    5  H   UNL     1       6.473  29.627  53.159  1.00  0.00     0.168 HD
HETATM    6  C   UNL     1       5.996  27.743  52.494  1.00  0.00     0.048 A 
HETATM    7  C   UNL     1       6.093  26.371  52.799  1.00  0.00     0.031 A 
HETATM    8  C   UNL     1       5.409  28.173  51.294  1.00  0.00     0.030 A 
HETATM    9  C   UNL     1       4.898  27.242  50.391  1.00  0.00     0.002 A 
HETATM   10  C   UNL     1       4.967  25.883  50.682  1.00  0.00     0.001 A 
HETATM   11  C   UNL     1       5.557  25.448  51.871  1.00  0.00     0.017 A 
ENDROOT
BRANCH   3  12
HETATM   12  N   UNL     1       7.508  29.217  55.377  1.00  0.00    -0.262 NA
HETATM   13  H   UNL     1       8.313  28.783  55.841  1.00  0.00     0.130 HD
BRANCH  12  14
HETATM   14  C   UNL     1       6.601  29.869  56.326  1.00  0.00     0.100 C 
BRANCH  14  15
HETATM   15  C   UNL     1       6.930  29.517  57.785  1.00  0.00     0.056 C 
BRANCH  15  16
HETATM   16  C   UNL     1       7.687  30.524  58.631  1.00  0.00    -0.024 A 
HETATM   17  C   UNL     1       9.098  30.540  58.553  1.00  0.00     0.074 A 
HETATM   18  C   UNL     1       9.834  31.465  59.301  1.00  0.00     0.037 A 
HETATM   19  C   UNL     1       9.182  32.368  60.140  1.00  0.00     0.003 A 
HETATM   20  C   UNL     1       7.796  32.347  60.242  1.00  0.00     0.001 A 
HETATM   21  C   UNL     1       7.053  31.430  59.497  1.00  0.00     0.010 A 
BRANCH  17  22
HETATM   22  O   UNL     1       9.655  29.612  57.706  1.00  0.00    -0.355 OA
HETATM   23  C   UNL     1      10.903  29.946  57.108  1.00  0.00     0.210 C 
ENDBRANCH  17  22
ENDBRANCH  15  16
ENDBRANCH  14  15
ENDBRANCH  12  14
ENDBRANCH   3  12
BRANCH   1  24
HETATM   24  N   UNL     1       6.852  24.686  54.375  1.00  0.00    -0.273 NA
HETATM   25  H   UNL     1       6.058  24.133  54.062  1.00  0.00     0.129 HD
BRANCH  24  26
HETATM   26  C   UNL     1       8.123  24.001  54.102  1.00  0.00     0.053 C 
HETATM   27  C   UNL     1       7.928  22.883  53.077  1.00  0.00     0.026 C 
HETATM   28  C   UNL     1       8.632  23.415  55.420  1.00  0.00     0.026 C 
ENDBRANCH  24  26
ENDBRANCH   1  24
TORSDOF 7
ENDMDL
