MODEL 1
REMARK VINA RESULT:      -9.0      0.000      0.000
REMARK  6 active torsions:
REMARK  status: ('A' for Active; 'I' for Inactive)
REMARK    1  A    between atoms: C_4  and  C_5 
REMARK    2  A    between atoms: C_5  and  N_6 
REMARK       I    between atoms: N_6  and  C_7 
REMARK       I    between atoms: C_7  and  N_8 
REMARK    3  A    between atoms: N_8  and  C_9 
REMARK    4  A    between atoms: C_9  and  C_10 
REMARK    5  A    between atoms: C_12  and  O_13 
REMARK    6  A    between atoms: O_13  and  C_14 
ROOT
HETATM    1  N   UNL     1       7.301  26.365  54.608  1.00  0.00    -0.333 N 
HETATM    2  C   UNL     1       7.339  27.667  54.233  1.00  0.00     0.317 C 
HETATM    3  N   UNL     1       7.913  28.530  55.108  1.00  0.00    -0.339 N 
HETATM    4  O   UNL     1       6.898  28.084  53.168  1.00  0.00    -0.247 OA
HETATM    5  H   UNL     1       7.888  26.056  55.368  1.00  0.00     0.165 HD
HETATM    6  H   UNL     1       7.881  29.487  54.779  1.00  0.00     0.164 HD
ENDROOT
BRANCH   3   7
HETATM    7  C   UNL     1       8.263  28.310  56.496  1.00  0.00     0.163 C 
BRANCH   7   8
HETATM    8  C   UNL     1       9.089  29.401  57.128  1.00  0.00    -0.035 A 
HETATM    9  C   UNL     1       8.554  30.344  58.011  1.00  0.00     0.066 A 
HETATM   10  C   UNL     1       9.380  31.343  58.500  1.00  0.00     0.164 A 
HETATM   11  N   UNL     1      10.696  31.446  58.217  1.00  0.00    -0.237 NA
HETATM   12  C   UNL     1      11.205  30.505  57.397  1.00  0.00     0.120 A 
HETATM   13  C   UNL     1      10.455  29.483  56.834  1.00  0.00     0.028 A 
BRANCH  10  14
HETATM   14  O   UNL     1       8.791  32.289  59.315  1.00  0.00    -0.329 OA
BRANCH  14  15
HETATM   15  C   UNL     1       8.308  31.808  60.587  1.00  0.00     0.130 C 
HETATM   16  C   UNL     1       9.343  31.716  61.742  1.00  0.00     0.032 C 
HETATM   17  C   UNL     1       8.248  32.241  62.686  1.00  0.00     0.005 C 
HETATM   18  C   UNL     1       7.582  32.874  61.450  1.00  0.00     0.032 C 
ENDBRANCH  14  15
ENDBRANCH  10  14
ENDBRANCH   7   8
ENDBRANCH   3   7
BRANCH   1  19
HETATM   19  C   UNL     1       6.826  25.317  53.723  1.00  0.00     0.139 C 
HETATM   20  C   UNL     1       5.327  25.102  53.891  1.00  0.00     0.039 C 
BRANCH  19  21
HETATM   21  C   UNL     1       7.590  24.068  54.030  1.00  0.00     0.075 A 
HETATM   22  O   UNL     1       7.411  23.001  53.192  1.00  0.00    -0.318 OA
HETATM   23  C   UNL     1       8.160  21.975  53.679  1.00  0.00     0.049 A 
HETATM   24  C   UNL     1       8.099  20.702  52.934  1.00  0.00     0.076 C 
HETATM   25  C   UNL     1       8.837  22.376  54.810  1.00  0.00     0.035 A 
HETATM   26  C   UNL     1       8.467  23.724  55.039  1.00  0.00     0.037 A 
ENDBRANCH  19  21
ENDBRANCH   1  19
TORSDOF 6
ENDMDL
MODEL 2
REMARK VINA RESULT:      -8.8      1.652      2.102
REMARK  6 active torsions:
REMARK  status: ('A' for Active; 'I' for Inactive)
REMARK    1  A    between atoms: C_4  and  C_5 
REMARK    2  A    between atoms: C_5  and  N_6 
REMARK       I    between atoms: N_6  and  C_7 
REMARK       I    between atoms: C_7  and  N_8 
REMARK    3  A    between atoms: N_8  and  C_9 
REMARK    4  A    between atoms: C_9  and  C_10 
REMARK    5  A    between atoms: C_12  and  O_13 
REMARK    6  A    between atoms: O_13  and  C_14 
ROOT
HETATM    1  N   UNL     1       7.865  25.490  56.553  1.00  0.00    -0.333 N 
HETATM    2  C   UNL     1       6.968  26.440  56.909  1.00  0.00     0.317 C 
HETATM    3  N   UNL     1       7.410  27.723  56.895  1.00  0.00    -0.339 N 
HETATM    4  O   UNL     1       5.808  26.200  57.227  1.00  0.00    -0.247 OA
HETATM    5  H   UNL     1       8.710  25.767  56.075  1.00  0.00     0.165 HD
HETATM    6  H   UNL     1       6.699  28.376  57.198  1.00  0.00     0.164 HD
ENDROOT
BRANCH   3   7
HETATM    7  C   UNL     1       8.771  28.208  56.801  1.00  0.00     0.163 C 
BRANCH   7   8
HETATM    8  C   UNL     1       9.047  29.487  57.550  1.00  0.00    -0.035 A 
HETATM    9  C   UNL     1       8.181  30.003  58.519  1.00  0.00     0.066 A 
HETATM   10  C   UNL     1       8.493  31.213  59.116  1.00  0.00     0.164 A 
HETATM   11  N   UNL     1       9.614  31.919  58.859  1.00  0.00    -0.237 NA
HETATM   12  C   UNL     1      10.459  31.389  57.953  1.00  0.00     0.120 A 
HETATM   13  C   UNL     1      10.222  30.198  57.280  1.00  0.00     0.028 A 
BRANCH  10  14
HETATM   14  O   UNL     1       7.573  31.714  60.017  1.00  0.00    -0.329 OA
BRANCH  14  15
HETATM   15  C   UNL     1       8.126  32.389  61.166  1.00  0.00     0.130 C 
HETATM   16  C   UNL     1       7.120  33.093  62.118  1.00  0.00     0.032 C 
HETATM   17  C   UNL     1       7.967  32.581  63.295  1.00  0.00     0.005 C 
HETATM   18  C   UNL     1       8.462  31.460  62.363  1.00  0.00     0.032 C 
ENDBRANCH  14  15
ENDBRANCH  10  14
ENDBRANCH   7   8
ENDBRANCH   3   7
BRANCH   1  19
HETATM   19  C   UNL     1       7.499  24.093  56.409  1.00  0.00     0.139 C 
HETATM   20  C   UNL     1       8.357  23.210  57.307  1.00  0.00     0.039 C 
BRANCH  19  21
HETATM   21  C   UNL     1       7.656  23.717  54.970  1.00  0.00     0.075 A 
HETATM   22  O   UNL     1       7.711  22.382  54.672  1.00  0.00    -0.318 OA
HETATM   23  C   UNL     1       7.896  22.276  53.328  1.00  0.00     0.049 A 
HETATM   24  C   UNL     1       8.008  20.909  52.784  1.00  0.00     0.076 C 
HETATM   25  C   UNL     1       7.941  23.527  52.754  1.00  0.00     0.035 A 
HETATM   26  C   UNL     1       7.790  24.457  53.812  1.00  0.00     0.037 A 
ENDBRANCH  19  21
ENDBRANCH   1  19
TORSDOF 6
ENDMDL
MODEL 3
REMARK VINA RESULT:      -8.3      2.722      3.415
REMARK  6 active torsions:
REMARK  status: ('A' for Active; 'I' for Inactive)
REMARK    1  A    between atoms: C_4  and  C_5 
REMARK    2  A    between atoms: C_5  and  N_6 
REMARK       I    between atoms: N_6  and  C_7 
REMARK       I    between atoms: C_7  and  N_8 
REMARK    3  A    between atoms: N_8  and  C_9 
REMARK    4  A    between atoms: C_9  and  C_10 
REMARK    5  A    between atoms: C_12  and  O_13 
REMARK    6  A    between atoms: O_13  and  C_14 
ROOT
HETATM    1  N   UNL     1       6.719  25.632  56.488  1.00  0.00    -0.333 N 
HETATM    2  C   UNL     1       5.468  25.932  56.912  1.00  0.00     0.317 C 
HETATM    3  N   UNL     1       5.064  27.216  56.743  1.00  0.00    -0.339 N 
HETATM    4  O   UNL     1       4.705  25.117  57.420  1.00  0.00    -0.247 OA
HETATM    5  H   UNL     1       7.193  26.272  55.869  1.00  0.00     0.165 HD
HETATM    6  H   UNL     1       4.134  27.376  57.108  1.00  0.00     0.164 HD
ENDROOT
BRANCH   3   7
HETATM    7  C   UNL     1       5.863  28.377  56.409  1.00  0.00     0.163 C 
BRANCH   7   8
HETATM    8  C   UNL     1       5.549  29.619  57.203  1.00  0.00    -0.035 A 
HETATM    9  C   UNL     1       6.539  30.449  57.739  1.00  0.00     0.066 A 
HETATM   10  C   UNL     1       6.153  31.541  58.501  1.00  0.00     0.164 A 
HETATM   11  N   UNL     1       4.870  31.892  58.728  1.00  0.00    -0.237 NA
HETATM   12  C   UNL     1       3.928  31.106  58.171  1.00  0.00     0.120 A 
HETATM   13  C   UNL     1       4.212  29.976  57.416  1.00  0.00     0.028 A 
BRANCH  10  14
HETATM   14  O   UNL     1       7.167  32.290  59.064  1.00  0.00    -0.329 OA
BRANCH  14  15
HETATM   15  C   UNL     1       8.033  31.586  59.980  1.00  0.00     0.130 C 
HETATM   16  C   UNL     1       9.552  31.895  59.888  1.00  0.00     0.032 C 
HETATM   17  C   UNL     1       9.594  31.848  61.425  1.00  0.00     0.005 C 
HETATM   18  C   UNL     1       8.093  32.190  61.408  1.00  0.00     0.032 C 
ENDBRANCH  14  15
ENDBRANCH  10  14
ENDBRANCH   7   8
ENDBRANCH   3   7
BRANCH   1  19
HETATM   19  C   UNL     1       7.237  24.277  56.497  1.00  0.00     0.139 C 
HETATM   20  C   UNL     1       8.556  24.204  57.256  1.00  0.00     0.039 C 
BRANCH  19  21
HETATM   21  C   UNL     1       7.403  23.834  55.078  1.00  0.00     0.075 A 
HETATM   22  O   UNL     1       7.603  22.497  54.858  1.00  0.00    -0.318 OA
HETATM   23  C   UNL     1       7.768  22.330  53.518  1.00  0.00     0.049 A 
HETATM   24  C   UNL     1       8.022  20.952  53.051  1.00  0.00     0.076 C 
HETATM   25  C   UNL     1       7.656  23.540  52.870  1.00  0.00     0.035 A 
HETATM   26  C   UNL     1       7.424  24.510  53.875  1.00  0.00     0.037 A 
ENDBRANCH  19  21
ENDBRANCH   1  19
TORSDOF 6
ENDMDL
MODEL 4
REMARK VINA RESULT:      -8.2      2.195      8.590
REMARK  6 active torsions:
REMARK  status: ('A' for Active; 'I' for Inactive)
REMARK    1  A    between atoms: C_4  and  C_5 
REMARK    2  A    between atoms: C_5  and  N_6 
REMARK       I    between atoms: N_6  and  C_7 
REMARK       I    between atoms: C_7  and  N_8 
REMARK    3  A    between atoms: N_8  and  C_9 
REMARK    4  A    between atoms: C_9  and  C_10 
REMARK    5  A    between atoms: C_12  and  O_13 
REMARK    6  A    between atoms: O_13  and  C_14 
ROOT
HETATM    1  N   UNL     1       8.192  27.158  56.724  1.00  0.00    -0.333 N 
HETATM    2  C   UNL     1       7.152  26.519  57.314  1.00  0.00     0.317 C 
HETATM    3  N   UNL     1       7.433  25.333  57.912  1.00  0.00    -0.339 N 
HETATM    4  O   UNL     1       6.006  26.954  57.334  1.00  0.00    -0.247 OA
HETATM    5  H   UNL     1       9.133  26.875  56.951  1.00  0.00     0.165 HD
HETATM    6  H   UNL     1       6.608  24.898  58.304  1.00  0.00     0.164 HD
ENDROOT
BRANCH   3   7
HETATM    7  C   UNL     1       8.628  24.524  57.796  1.00  0.00     0.163 C 
BRANCH   7   8
HETATM    8  C   UNL     1       8.556  23.419  56.774  1.00  0.00    -0.035 A 
HETATM    9  C   UNL     1       8.763  23.633  55.407  1.00  0.00     0.066 A 
HETATM   10  C   UNL     1       8.624  22.564  54.537  1.00  0.00     0.164 A 
HETATM   11  N   UNL     1       8.342  21.302  54.923  1.00  0.00    -0.237 NA
HETATM   12  C   UNL     1       8.186  21.105  56.247  1.00  0.00     0.120 A 
HETATM   13  C   UNL     1       8.278  22.114  57.195  1.00  0.00     0.028 A 
BRANCH  10  14
HETATM   14  O   UNL     1       8.771  22.839  53.191  1.00  0.00    -0.329 OA
BRANCH  14  15
HETATM   15  C   UNL     1       7.632  23.449  52.548  1.00  0.00     0.130 C 
HETATM   16  C   UNL     1       6.522  24.014  53.474  1.00  0.00     0.032 C 
HETATM   17  C   UNL     1       6.408  25.208  52.511  1.00  0.00     0.005 C 
HETATM   18  C   UNL     1       7.857  24.912  52.083  1.00  0.00     0.032 C 
ENDBRANCH  14  15
ENDBRANCH  10  14
ENDBRANCH   7   8
ENDBRANCH   3   7
BRANCH   1  19
HETATM   19  C   UNL     1       8.062  28.485  56.152  1.00  0.00     0.139 C 
HETATM   20  C   UNL     1       8.211  28.441  54.637  1.00  0.00     0.039 C 
BRANCH  19  21
HETATM   21  C   UNL     1       9.102  29.362  56.774  1.00  0.00     0.075 A 
HETATM   22  O   UNL     1       8.723  30.119  57.849  1.00  0.00    -0.318 OA
HETATM   23  C   UNL     1       9.802  30.861  58.221  1.00  0.00     0.049 A 
HETATM   24  C   UNL     1       9.611  31.778  59.362  1.00  0.00     0.076 C 
HETATM   25  C   UNL     1      10.878  30.574  57.410  1.00  0.00     0.035 A 
HETATM   26  C   UNL     1      10.427  29.611  56.475  1.00  0.00     0.037 A 
ENDBRANCH  19  21
ENDBRANCH   1  19
TORSDOF 6
ENDMDL
MODEL 5
REMARK VINA RESULT:      -8.2      1.897      9.390
REMARK  6 active torsions:
REMARK  status: ('A' for Active; 'I' for Inactive)
REMARK    1  A    between atoms: C_4  and  C_5 
REMARK    2  A    between atoms: C_5  and  N_6 
REMARK       I    between atoms: N_6  and  C_7 
REMARK       I    between atoms: C_7  and  N_8 
REMARK    3  A    between atoms: N_8  and  C_9 
REMARK    4  A    between atoms: C_9  and  C_10 
REMARK    5  A    between atoms: C_12  and  O_13 
REMARK    6  A    between atoms: O_13  and  C_14 
ROOT
HETATM    1  N   UNL     1       8.170  29.724  58.248  1.00  0.00    -0.333 N 
HETATM    2  C   UNL     1       6.903  29.538  57.804  1.00  0.00     0.317 C 
HETATM    3  N   UNL     1       6.556  28.265  57.484  1.00  0.00    -0.339 N 
HETATM    4  O   UNL     1       6.080  30.439  57.689  1.00  0.00    -0.247 OA
HETATM    5  H   UNL     1       8.707  28.924  58.548  1.00  0.00     0.165 HD
HETATM    6  H   UNL     1       5.609  28.203  57.134  1.00  0.00     0.164 HD
ENDROOT
BRANCH   3   7
HETATM    7  C   UNL     1       7.415  27.113  57.304  1.00  0.00     0.163 C 
BRANCH   7   8
HETATM    8  C   UNL     1       7.326  26.455  55.952  1.00  0.00    -0.035 A 
HETATM    9  C   UNL     1       7.043  25.096  55.785  1.00  0.00     0.066 A 
HETATM   10  C   UNL     1       7.035  24.569  54.503  1.00  0.00     0.164 A 
HETATM   11  N   UNL     1       7.239  25.294  53.383  1.00  0.00    -0.237 NA
HETATM   12  C   UNL     1       7.469  26.610  53.558  1.00  0.00     0.120 A 
HETATM   13  C   UNL     1       7.525  27.226  54.801  1.00  0.00     0.028 A 
BRANCH  10  14
HETATM   14  O   UNL     1       6.818  23.209  54.395  1.00  0.00    -0.329 OA
BRANCH  14  15
HETATM   15  C   UNL     1       8.001  22.394  54.262  1.00  0.00     0.130 C 
HETATM   16  C   UNL     1       8.022  21.052  55.043  1.00  0.00     0.032 C 
HETATM   17  C   UNL     1       8.691  20.415  53.814  1.00  0.00     0.005 C 
HETATM   18  C   UNL     1       8.053  21.533  52.971  1.00  0.00     0.032 C 
ENDBRANCH  14  15
ENDBRANCH  10  14
ENDBRANCH   7   8
ENDBRANCH   3   7
BRANCH   1  19
HETATM   19  C   UNL     1       8.639  31.007  58.736  1.00  0.00     0.139 C 
HETATM   20  C   UNL     1      10.098  31.232  58.359  1.00  0.00     0.039 C 
BRANCH  19  21
HETATM   21  C   UNL     1       8.453  31.035  60.221  1.00  0.00     0.075 A 
HETATM   22  O   UNL     1       7.264  31.521  60.694  1.00  0.00    -0.318 OA
HETATM   23  C   UNL     1       7.330  31.493  62.053  1.00  0.00     0.049 A 
HETATM   24  C   UNL     1       6.150  31.999  62.782  1.00  0.00     0.076 C 
HETATM   25  C   UNL     1       8.540  30.975  62.459  1.00  0.00     0.035 A 
HETATM   26  C   UNL     1       9.266  30.683  61.279  1.00  0.00     0.037 A 
ENDBRANCH  19  21
ENDBRANCH   1  19
TORSDOF 6
ENDMDL
MODEL 6
REMARK VINA RESULT:      -8.1      1.849      2.308
REMARK  6 active torsions:
REMARK  status: ('A' for Active; 'I' for Inactive)
REMARK    1  A    between atoms: C_4  and  C_5 
REMARK    2  A    between atoms: C_5  and  N_6 
REMARK       I    between atoms: N_6  and  C_7 
REMARK       I    between atoms: C_7  and  N_8 
REMARK    3  A    between atoms: N_8  and  C_9 
REMARK    4  A    between atoms: C_9  and  C_10 
REMARK    5  A    between atoms: C_12  and  O_13 
REMARK    6  A    between atoms: O_13  and  C_14 
ROOT
HETATM    1  N   UNL     1       6.609  26.079  54.755  1.00  0.00    -0.333 N 
HETATM    2  C   UNL     1       7.388  27.174  54.587  1.00  0.00     0.317 C 
HETATM    3  N   UNL     1       7.591  27.946  55.685  1.00  0.00    -0.339 N 
HETATM    4  O   UNL     1       7.907  27.486  53.520  1.00  0.00    -0.247 OA
HETATM    5  H   UNL     1       6.420  25.751  55.691  1.00  0.00     0.165 HD
HETATM    6  H   UNL     1       8.156  28.760  55.481  1.00  0.00     0.164 HD
ENDROOT
BRANCH   3   7
HETATM    7  C   UNL     1       6.893  27.913  56.953  1.00  0.00     0.163 C 
BRANCH   7   8
HETATM    8  C   UNL     1       6.425  29.253  57.459  1.00  0.00    -0.035 A 
HETATM    9  C   UNL     1       7.248  30.122  58.183  1.00  0.00     0.066 A 
HETATM   10  C   UNL     1       6.714  31.311  58.653  1.00  0.00     0.164 A 
HETATM   11  N   UNL     1       5.448  31.717  58.421  1.00  0.00    -0.237 NA
HETATM   12  C   UNL     1       4.679  30.888  57.688  1.00  0.00     0.120 A 
HETATM   13  C   UNL     1       5.114  29.665  57.196  1.00  0.00     0.028 A 
BRANCH  10  14
HETATM   14  O   UNL     1       7.546  32.103  59.419  1.00  0.00    -0.329 OA
BRANCH  14  15
HETATM   15  C   UNL     1       7.693  31.706  60.799  1.00  0.00     0.130 C 
HETATM   16  C   UNL     1       9.092  31.908  61.443  1.00  0.00     0.032 C 
HETATM   17  C   UNL     1       8.372  32.369  62.721  1.00  0.00     0.005 C 
HETATM   18  C   UNL     1       7.175  32.745  61.830  1.00  0.00     0.032 C 
ENDBRANCH  14  15
ENDBRANCH  10  14
ENDBRANCH   7   8
ENDBRANCH   3   7
BRANCH   1  19
HETATM   19  C   UNL     1       6.405  25.103  53.701  1.00  0.00     0.139 C 
HETATM   20  C   UNL     1       4.924  24.957  53.375  1.00  0.00     0.039 C 
BRANCH  19  21
HETATM   21  C   UNL     1       6.992  23.803  54.151  1.00  0.00     0.075 A 
HETATM   22  O   UNL     1       7.327  22.897  53.181  1.00  0.00    -0.318 OA
HETATM   23  C   UNL     1       7.796  21.786  53.812  1.00  0.00     0.049 A 
HETATM   24  C   UNL     1       8.201  20.659  52.949  1.00  0.00     0.076 C 
HETATM   25  C   UNL     1       7.786  21.974  55.176  1.00  0.00     0.035 A 
HETATM   26  C   UNL     1       7.264  23.272  55.396  1.00  0.00     0.037 A 
ENDBRANCH  19  21
ENDBRANCH   1  19
TORSDOF 6
ENDMDL
MODEL 7
REMARK VINA RESULT:      -8.0      1.829      3.215
REMARK  6 active torsions:
REMARK  status: ('A' for Active; 'I' for Inactive)
REMARK    1  A    between atoms: C_4  and  C_5 
REMARK    2  A    between atoms: C_5  and  N_6 
REMARK       I    between atoms: N_6  and  C_7 
REMARK       I    between atoms: C_7  and  N_8 
REMARK    3  A    between atoms: N_8  and  C_9 
REMARK    4  A    between atoms: C_9  and  C_10 
REMARK    5  A    between atoms: C_12  and  O_13 
REMARK    6  A    between atoms: O_13  and  C_14 
ROOT
HETATM    1  N   UNL     1       7.613  25.989  55.752  1.00  0.00    -0.333 N 
HETATM    2  C   UNL     1       7.645  26.154  57.097  1.00  0.00     0.317 C 
HETATM    3  N   UNL     1       8.059  27.366  57.547  1.00  0.00    -0.339 N 
HETATM    4  O   UNL     1       7.322  25.285  57.900  1.00  0.00    -0.247 OA
HETATM    5  H   UNL     1       7.653  26.803  55.157  1.00  0.00     0.165 HD
HETATM    6  H   UNL     1       8.087  27.410  58.557  1.00  0.00     0.164 HD
ENDROOT
BRANCH   3   7
HETATM    7  C   UNL     1       8.713  28.427  56.810  1.00  0.00     0.163 C 
BRANCH   7   8
HETATM    8  C   UNL     1       9.006  29.672  57.608  1.00  0.00    -0.035 A 
HETATM    9  C   UNL     1       8.132  30.181  58.573  1.00  0.00     0.066 A 
HETATM   10  C   UNL     1       8.464  31.361  59.218  1.00  0.00     0.164 A 
HETATM   11  N   UNL     1       9.610  32.042  59.012  1.00  0.00    -0.237 NA
HETATM   12  C   UNL     1      10.462  31.517  58.108  1.00  0.00     0.120 A 
HETATM   13  C   UNL     1      10.208  30.356  57.391  1.00  0.00     0.028 A 
BRANCH  10  14
HETATM   14  O   UNL     1       7.537  31.858  60.113  1.00  0.00    -0.329 OA
BRANCH  14  15
HETATM   15  C   UNL     1       8.080  32.478  61.298  1.00  0.00     0.130 C 
HETATM   16  C   UNL     1       7.065  33.121  62.282  1.00  0.00     0.032 C 
HETATM   17  C   UNL     1       7.914  32.557  63.434  1.00  0.00     0.005 C 
HETATM   18  C   UNL     1       8.422  31.491  62.446  1.00  0.00     0.032 C 
ENDBRANCH  14  15
ENDBRANCH  10  14
ENDBRANCH   7   8
ENDBRANCH   3   7
BRANCH   1  19
HETATM   19  C   UNL     1       7.081  24.790  55.131  1.00  0.00     0.139 C 
HETATM   20  C   UNL     1       8.205  23.865  54.685  1.00  0.00     0.039 C 
BRANCH  19  21
HETATM   21  C   UNL     1       6.229  25.206  53.974  1.00  0.00     0.075 A 
HETATM   22  O   UNL     1       5.648  26.444  54.036  1.00  0.00    -0.318 OA
HETATM   23  C   UNL     1       4.895  26.592  52.912  1.00  0.00     0.049 A 
HETATM   24  C   UNL     1       4.151  27.860  52.778  1.00  0.00     0.076 C 
HETATM   25  C   UNL     1       5.001  25.472  52.117  1.00  0.00     0.035 A 
HETATM   26  C   UNL     1       5.858  24.577  52.802  1.00  0.00     0.037 A 
ENDBRANCH  19  21
ENDBRANCH   1  19
TORSDOF 6
ENDMDL
MODEL 8
REMARK VINA RESULT:      -7.9      5.291      9.221
REMARK  6 active torsions:
REMARK  status: ('A' for Active; 'I' for Inactive)
REMARK    1  A    between atoms: C_4  and  C_5 
REMARK    2  A    between atoms: C_5  and  N_6 
REMARK       I    between atoms: N_6  and  C_7 
REMARK       I    between atoms: C_7  and  N_8 
REMARK    3  A    between atoms: N_8  and  C_9 
REMARK    4  A    between atoms: C_9  and  C_10 
REMARK    5  A    between atoms: C_12  and  O_13 
REMARK    6  A    between atoms: O_13  and  C_14 
ROOT
HETATM    1  N   UNL     1       3.703  27.516  50.276  1.00  0.00    -0.333 N 
HETATM    2  C   UNL     1       5.050  27.483  50.133  1.00  0.00     0.317 C 
HETATM    3  N   UNL     1       5.694  26.443  50.721  1.00  0.00    -0.339 N 
HETATM    4  O   UNL     1       5.692  28.322  49.511  1.00  0.00    -0.247 OA
HETATM    5  H   UNL     1       3.221  26.683  50.582  1.00  0.00     0.165 HD
HETATM    6  H   UNL     1       6.697  26.496  50.601  1.00  0.00     0.164 HD
ENDROOT
BRANCH   3   7
HETATM    7  C   UNL     1       5.184  25.498  51.693  1.00  0.00     0.163 C 
BRANCH   7   8
HETATM    8  C   UNL     1       5.902  25.495  53.019  1.00  0.00    -0.035 A 
HETATM    9  C   UNL     1       6.581  24.376  53.513  1.00  0.00     0.066 A 
HETATM   10  C   UNL     1       7.167  24.452  54.766  1.00  0.00     0.164 A 
HETATM   11  N   UNL     1       7.169  25.559  55.537  1.00  0.00    -0.237 NA
HETATM   12  C   UNL     1       6.547  26.642  55.029  1.00  0.00     0.120 A 
HETATM   13  C   UNL     1       5.907  26.658  53.797  1.00  0.00     0.028 A 
BRANCH  10  14
HETATM   14  O   UNL     1       7.766  23.300  55.238  1.00  0.00    -0.329 OA
BRANCH  14  15
HETATM   15  C   UNL     1       7.702  22.156  54.362  1.00  0.00     0.130 C 
HETATM   16  C   UNL     1       9.015  21.750  53.639  1.00  0.00     0.032 C 
HETATM   17  C   UNL     1       8.636  20.283  53.899  1.00  0.00     0.005 C 
HETATM   18  C   UNL     1       7.787  20.783  55.082  1.00  0.00     0.032 C 
ENDBRANCH  14  15
ENDBRANCH  10  14
ENDBRANCH   7   8
ENDBRANCH   3   7
BRANCH   1  19
HETATM   19  C   UNL     1       2.876  28.501  49.603  1.00  0.00     0.139 C 
HETATM   20  C   UNL     1       1.842  29.086  50.557  1.00  0.00     0.039 C 
BRANCH  19  21
HETATM   21  C   UNL     1       2.220  27.836  48.435  1.00  0.00     0.075 A 
HETATM   22  O   UNL     1       1.063  28.396  47.964  1.00  0.00    -0.318 OA
HETATM   23  C   UNL     1       0.625  27.613  46.940  1.00  0.00     0.049 A 
HETATM   24  C   UNL     1      -0.637  28.022  46.290  1.00  0.00     0.076 C 
HETATM   25  C   UNL     1       1.497  26.568  46.733  1.00  0.00     0.035 A 
HETATM   26  C   UNL     1       2.524  26.709  47.698  1.00  0.00     0.037 A 
ENDBRANCH  19  21
ENDBRANCH   1  19
TORSDOF 6
ENDMDL
MODEL 9
REMARK VINA RESULT:      -7.9      1.907      9.789
REMARK  6 active torsions:
REMARK  status: ('A' for Active; 'I' for Inactive)
REMARK    1  A    between atoms: C_4  and  C_5 
REMARK    2  A    between atoms: C_5  and  N_6 
REMARK       I    between atoms: N_6  and  C_7 
REMARK       I    between atoms: C_7  and  N_8 
REMARK    3  A    between atoms: N_8  and  C_9 
REMARK    4  A    between atoms: C_9  and  C_10 
REMARK    5  A    between atoms: C_12  and  O_13 
REMARK    6  A    between atoms: O_13  and  C_14 
ROOT
HETATM    1  N   UNL     1       8.613  30.600  60.138  1.00  0.00    -0.333 N 
HETATM    2  C   UNL     1       8.818  31.157  58.920  1.00  0.00     0.317 C 
HETATM    3  N   UNL     1       8.145  30.601  57.881  1.00  0.00    -0.339 N 
HETATM    4  O   UNL     1       9.558  32.114  58.723  1.00  0.00    -0.247 OA
HETATM    5  H   UNL     1       7.822  29.988  60.271  1.00  0.00     0.165 HD
HETATM    6  H   UNL     1       8.367  31.046  57.000  1.00  0.00     0.164 HD
ENDROOT
BRANCH   3   7
HETATM    7  C   UNL     1       7.434  29.341  57.837  1.00  0.00     0.163 C 
BRANCH   7   8
HETATM    8  C   UNL     1       6.916  28.947  56.477  1.00  0.00    -0.035 A 
HETATM    9  C   UNL     1       7.543  27.990  55.672  1.00  0.00     0.066 A 
HETATM   10  C   UNL     1       7.022  27.733  54.414  1.00  0.00     0.164 A 
HETATM   11  N   UNL     1       5.909  28.315  53.920  1.00  0.00    -0.237 NA
HETATM   12  C   UNL     1       5.293  29.204  54.724  1.00  0.00     0.120 A 
HETATM   13  C   UNL     1       5.751  29.550  55.987  1.00  0.00     0.028 A 
BRANCH  10  14
HETATM   14  O   UNL     1       7.715  26.831  53.631  1.00  0.00    -0.329 OA
BRANCH  14  15
HETATM   15  C   UNL     1       7.122  25.520  53.512  1.00  0.00     0.130 C 
HETATM   16  C   UNL     1       7.404  24.739  52.200  1.00  0.00     0.032 C 
HETATM   17  C   UNL     1       7.548  23.469  53.056  1.00  0.00     0.005 C 
HETATM   18  C   UNL     1       7.898  24.390  54.239  1.00  0.00     0.032 C 
ENDBRANCH  14  15
ENDBRANCH  10  14
ENDBRANCH   7   8
ENDBRANCH   3   7
BRANCH   1  19
HETATM   19  C   UNL     1       9.173  31.163  61.353  1.00  0.00     0.139 C 
HETATM   20  C   UNL     1       9.581  30.064  62.325  1.00  0.00     0.039 C 
BRANCH  19  21
HETATM   21  C   UNL     1       8.148  32.070  61.959  1.00  0.00     0.075 A 
HETATM   22  O   UNL     1       8.322  32.423  63.270  1.00  0.00    -0.318 OA
HETATM   23  C   UNL     1       7.265  33.206  63.620  1.00  0.00     0.049 A 
HETATM   24  C   UNL     1       7.235  33.689  65.015  1.00  0.00     0.076 C 
HETATM   25  C   UNL     1       6.424  33.377  62.543  1.00  0.00     0.035 A 
HETATM   26  C   UNL     1       6.990  32.642  61.474  1.00  0.00     0.037 A 
ENDBRANCH  19  21
ENDBRANCH   1  19
TORSDOF 6
ENDMDL
MODEL 10
REMARK VINA RESULT:      -7.6      1.978      8.950
REMARK  6 active torsions:
REMARK  status: ('A' for Active; 'I' for Inactive)
REMARK    1  A    between atoms: C_4  and  C_5 
REMARK    2  A    between atoms: C_5  and  N_6 
REMARK       I    between atoms: N_6  and  C_7 
REMARK       I    between atoms: C_7  and  N_8 
REMARK    3  A    between atoms: N_8  and  C_9 
REMARK    4  A    between atoms: C_9  and  C_10 
REMARK    5  A    between atoms: C_12  and  O_13 
REMARK    6  A    between atoms: O_13  and  C_14 
ROOT
HETATM    1  N   UNL     1       8.430  28.677  57.741  1.00  0.00    -0.333 N 
HETATM    2  C   UNL     1       7.254  28.264  57.208  1.00  0.00     0.317 C 
HETATM    3  N   UNL     1       6.964  26.945  57.335  1.00  0.00    -0.339 N 
HETATM    4  O   UNL     1       6.463  29.009  56.639  1.00  0.00    -0.247 OA
HETATM    5  H   UNL     1       8.908  28.077  58.397  1.00  0.00     0.165 HD
HETATM    6  H   UNL     1       6.088  26.701  56.890  1.00  0.00     0.164 HD
ENDROOT
BRANCH   3   7
HETATM    7  C   UNL     1       7.839  25.862  57.733  1.00  0.00     0.163 C 
BRANCH   7   8
HETATM    8  C   UNL     1       7.921  24.715  56.758  1.00  0.00    -0.035 A 
HETATM    9  C   UNL     1       7.598  24.844  55.403  1.00  0.00     0.066 A 
HETATM   10  C   UNL     1       7.653  23.721  54.595  1.00  0.00     0.164 A 
HETATM   11  N   UNL     1       8.047  22.501  55.016  1.00  0.00    -0.237 NA
HETATM   12  C   UNL     1       8.395  22.402  56.315  1.00  0.00     0.120 A 
HETATM   13  C   UNL     1       8.347  23.461  57.210  1.00  0.00     0.028 A 
BRANCH  10  14
HETATM   14  O   UNL     1       7.259  23.885  53.281  1.00  0.00    -0.329 OA
BRANCH  14  15
HETATM   15  C   UNL     1       6.482  25.069  53.003  1.00  0.00     0.130 C 
HETATM   16  C   UNL     1       6.535  25.620  51.552  1.00  0.00     0.032 C 
HETATM   17  C   UNL     1       5.028  25.903  51.667  1.00  0.00     0.005 C 
HETATM   18  C   UNL     1       4.973  24.807  52.746  1.00  0.00     0.032 C 
ENDBRANCH  14  15
ENDBRANCH  10  14
ENDBRANCH   7   8
ENDBRANCH   3   7
BRANCH   1  19
HETATM   19  C   UNL     1       8.813  30.076  57.783  1.00  0.00     0.139 C 
HETATM   20  C   UNL     1      10.314  30.235  57.579  1.00  0.00     0.039 C 
BRANCH  19  21
HETATM   21  C   UNL     1       8.383  30.635  59.102  1.00  0.00     0.075 A 
HETATM   22  O   UNL     1       7.262  31.420  59.115  1.00  0.00    -0.318 OA
HETATM   23  C   UNL     1       7.085  31.848  60.395  1.00  0.00     0.049 A 
HETATM   24  C   UNL     1       5.931  32.737  60.639  1.00  0.00     0.076 C 
HETATM   25  C   UNL     1       8.068  31.332  61.209  1.00  0.00     0.035 A 
HETATM   26  C   UNL     1       8.907  30.553  60.377  1.00  0.00     0.037 A 
ENDBRANCH  19  21
ENDBRANCH   1  19
TORSDOF 6
ENDMDL
