MODEL 1
REMARK VINA RESULT:      -9.2      0.000      0.000
REMARK  3 active torsions:
REMARK  status: ('A' for Active; 'I' for Inactive)
REMARK    1  A    between atoms: C_5  and  N_6 
REMARK       I    between atoms: N_6  and  C_7 
REMARK    2  A    between atoms: C_7  and  C_8 
REMARK    3  A    between atoms: C_9  and  C_10 
ROOT
HETATM    1  C   UNL     1       5.130  27.093  53.636  1.00  0.00     0.062 C 
HETATM    2  C   UNL     1       4.952  27.696  55.038  1.00  0.00     0.199 C 
HETATM    3  N   UNL     1       4.299  28.998  54.953  1.00  0.00    -0.092 N 
HETATM    4  C   UNL     1       4.175  29.725  53.803  1.00  0.00     0.735 A 
HETATM    5  N   UNL     1       4.639  29.203  52.648  1.00  0.00    -0.191 N 
HETATM    6  N   UNL     1       3.712  29.636  55.975  1.00  0.00     0.012 NA
HETATM    7  N   UNL     1       3.282  30.778  55.447  1.00  0.00     0.033 NA
HETATM    8  N   UNL     1       3.565  30.846  54.094  1.00  0.00     0.030 NA
HETATM    9  C   UNL     1       5.043  27.875  52.527  1.00  0.00     0.037 C 
HETATM   10  C   UNL     1       5.386  27.432  51.126  1.00  0.00     0.070 C 
HETATM   11  H   UNL     1       4.515  29.738  51.791  1.00  0.00     0.184 HD
ENDROOT
BRANCH   1  12
HETATM   12  C   UNL     1       5.387  25.619  53.651  1.00  0.00     0.256 C 
HETATM   13  N   UNL     1       6.689  25.274  53.950  1.00  0.00    -0.323 N 
HETATM   14  H   UNL     1       7.340  26.018  54.157  1.00  0.00     0.169 HD
HETATM   15  O   UNL     1       4.493  24.854  53.321  1.00  0.00    -0.267 OA
BRANCH  13  16
HETATM   16  C   UNL     1       7.223  23.968  54.033  1.00  0.00     0.035 A 
HETATM   17  C   UNL     1       7.705  23.249  52.939  1.00  0.00     0.030 A 
HETATM   18  C   UNL     1       8.210  21.955  53.104  1.00  0.00     0.009 A 
HETATM   19  C   UNL     1       8.239  21.354  54.365  1.00  0.00    -0.062 A 
HETATM   20  C   UNL     1       8.739  19.949  54.518  1.00  0.00     0.048 C 
HETATM   21  C   UNL     1       7.747  22.068  55.461  1.00  0.00     0.009 A 
HETATM   22  C   UNL     1       7.257  23.368  55.298  1.00  0.00     0.030 A 
ENDBRANCH  13  16
ENDBRANCH   1  12
BRANCH   2  23
HETATM   23  C   UNL     1       6.264  27.841  55.795  1.00  0.00    -0.011 A 
HETATM   24  C   UNL     1       6.462  27.265  57.051  1.00  0.00     0.125 A 
HETATM   25  N   UNL     1       7.594  27.389  57.779  1.00  0.00    -0.272 NA
HETATM   26  C   UNL     1       8.587  28.125  57.236  1.00  0.00     0.116 A 
HETATM   27  C   UNL     1       8.501  28.736  55.997  1.00  0.00     0.020 A 
HETATM   28  C   UNL     1       7.324  28.589  55.268  1.00  0.00     0.012 A 
ENDBRANCH   2  23
TORSDOF 3
ENDMDL
MODEL 2
REMARK VINA RESULT:      -8.9      2.474      5.173
REMARK  3 active torsions:
REMARK  status: ('A' for Active; 'I' for Inactive)
REMARK    1  A    between atoms: C_5  and  N_6 
REMARK       I    between atoms: N_6  and  C_7 
REMARK    2  A    between atoms: C_7  and  C_8 
REMARK    3  A    between atoms: C_9  and  C_10 
ROOT
HETATM    1  C   UNL     1       5.210  27.501  51.948  1.00  0.00     0.062 C 
HETATM    2  C   UNL     1       5.518  27.857  50.485  1.00  0.00     0.199 C 
HETATM    3  N   UNL     1       5.717  29.296  50.343  1.00  0.00    -0.092 N 
HETATM    4  C   UNL     1       5.350  30.221  51.280  1.00  0.00     0.735 A 
HETATM    5  N   UNL     1       4.809  29.796  52.440  1.00  0.00    -0.191 N 
HETATM    6  N   UNL     1       6.306  29.895  49.299  1.00  0.00     0.012 NA
HETATM    7  N   UNL     1       6.243  31.193  49.585  1.00  0.00     0.033 NA
HETATM    8  N   UNL     1       5.649  31.409  50.816  1.00  0.00     0.030 NA
HETATM    9  C   UNL     1       4.803  28.456  52.825  1.00  0.00     0.037 C 
HETATM   10  C   UNL     1       4.294  28.191  54.220  1.00  0.00     0.070 C 
HETATM   11  H   UNL     1       4.568  30.490  53.145  1.00  0.00     0.184 HD
ENDROOT
BRANCH   1  12
HETATM   12  C   UNL     1       5.414  26.053  52.262  1.00  0.00     0.256 C 
HETATM   13  N   UNL     1       6.577  25.779  52.949  1.00  0.00    -0.323 N 
HETATM   14  H   UNL     1       7.170  26.557  53.204  1.00  0.00     0.169 HD
HETATM   15  O   UNL     1       4.619  25.230  51.827  1.00  0.00    -0.267 OA
BRANCH  13  16
HETATM   16  C   UNL     1       7.034  24.512  53.377  1.00  0.00     0.035 A 
HETATM   17  C   UNL     1       7.629  23.571  52.536  1.00  0.00     0.030 A 
HETATM   18  C   UNL     1       8.046  22.333  53.036  1.00  0.00     0.009 A 
HETATM   19  C   UNL     1       7.872  22.011  54.384  1.00  0.00    -0.062 A 
HETATM   20  C   UNL     1       8.280  20.661  54.894  1.00  0.00     0.048 C 
HETATM   21  C   UNL     1       7.267  22.947  55.226  1.00  0.00     0.009 A 
HETATM   22  C   UNL     1       6.865  24.191  54.729  1.00  0.00     0.030 A 
ENDBRANCH  13  16
ENDBRANCH   1  12
BRANCH   2  23
HETATM   23  C   UNL     1       4.434  27.402  49.520  1.00  0.00    -0.011 A 
HETATM   24  C   UNL     1       3.160  27.973  49.512  1.00  0.00     0.125 A 
HETATM   25  N   UNL     1       2.153  27.585  48.699  1.00  0.00    -0.272 NA
HETATM   26  C   UNL     1       2.419  26.574  47.845  1.00  0.00     0.116 A 
HETATM   27  C   UNL     1       3.646  25.939  47.763  1.00  0.00     0.020 A 
HETATM   28  C   UNL     1       4.666  26.362  48.611  1.00  0.00     0.012 A 
ENDBRANCH   2  23
TORSDOF 3
ENDMDL
MODEL 3
REMARK VINA RESULT:      -8.6      1.749      2.414
REMARK  3 active torsions:
REMARK  status: ('A' for Active; 'I' for Inactive)
REMARK    1  A    between atoms: C_5  and  N_6 
REMARK       I    between atoms: N_6  and  C_7 
REMARK    2  A    between atoms: C_7  and  C_8 
REMARK    3  A    between atoms: C_9  and  C_10 
ROOT
HETATM    1  C   UNL     1       4.977  27.906  55.762  1.00  0.00     0.062 C 
HETATM    2  C   UNL     1       5.339  28.698  57.028  1.00  0.00     0.199 C 
HETATM    3  N   UNL     1       4.485  29.875  57.152  1.00  0.00    -0.092 N 
HETATM    4  C   UNL     1       3.724  30.386  56.139  1.00  0.00     0.735 A 
HETATM    5  N   UNL     1       3.708  29.750  54.950  1.00  0.00    -0.191 N 
HETATM    6  N   UNL     1       4.312  30.590  58.273  1.00  0.00     0.012 NA
HETATM    7  N   UNL     1       3.485  31.568  57.917  1.00  0.00     0.033 NA
HETATM    8  N   UNL     1       3.111  31.453  56.589  1.00  0.00     0.030 NA
HETATM    9  C   UNL     1       4.256  28.482  54.764  1.00  0.00     0.037 C 
HETATM   10  C   UNL     1       4.009  27.867  53.408  1.00  0.00     0.070 C 
HETATM   11  H   UNL     1       3.113  30.120  54.211  1.00  0.00     0.184 HD
ENDROOT
BRANCH   1  12
HETATM   12  C   UNL     1       5.486  26.499  55.777  1.00  0.00     0.256 C 
HETATM   13  N   UNL     1       6.383  26.210  54.771  1.00  0.00    -0.323 N 
HETATM   14  H   UNL     1       6.642  26.955  54.139  1.00  0.00     0.169 HD
HETATM   15  O   UNL     1       5.023  25.706  56.584  1.00  0.00    -0.267 OA
BRANCH  13  16
HETATM   16  C   UNL     1       7.024  24.972  54.533  1.00  0.00     0.035 A 
HETATM   17  C   UNL     1       7.912  24.368  55.423  1.00  0.00     0.030 A 
HETATM   18  C   UNL     1       8.513  23.145  55.109  1.00  0.00     0.009 A 
HETATM   19  C   UNL     1       8.240  22.505  53.897  1.00  0.00    -0.062 A 
HETATM   20  C   UNL     1       8.929  21.218  53.554  1.00  0.00     0.048 C 
HETATM   21  C   UNL     1       7.358  23.113  52.999  1.00  0.00     0.009 A 
HETATM   22  C   UNL     1       6.746  24.328  53.321  1.00  0.00     0.030 A 
ENDBRANCH  13  16
ENDBRANCH   1  12
BRANCH   2  23
HETATM   23  C   UNL     1       6.798  29.129  57.064  1.00  0.00    -0.011 A 
HETATM   24  C   UNL     1       7.553  29.290  55.901  1.00  0.00     0.125 A 
HETATM   25  N   UNL     1       8.858  29.639  55.880  1.00  0.00    -0.272 NA
HETATM   26  C   UNL     1       9.452  29.841  57.075  1.00  0.00     0.116 A 
HETATM   27  C   UNL     1       8.799  29.716  58.289  1.00  0.00     0.020 A 
HETATM   28  C   UNL     1       7.453  29.357  58.281  1.00  0.00     0.012 A 
ENDBRANCH   2  23
TORSDOF 3
ENDMDL
MODEL 4
REMARK VINA RESULT:      -8.0      2.687      5.383
REMARK  3 active torsions:
REMARK  status: ('A' for Active; 'I' for Inactive)
REMARK    1  A    between atoms: C_5  and  N_6 
REMARK       I    between atoms: N_6  and  C_7 
REMARK    2  A    between atoms: C_7  and  C_8 
REMARK    3  A    between atoms: C_9  and  C_10 
ROOT
HETATM    1  C   UNL     1       4.903  28.927  52.273  1.00  0.00     0.062 C 
HETATM    2  C   UNL     1       5.116  29.051  50.756  1.00  0.00     0.199 C 
HETATM    3  N   UNL     1       5.266  30.453  50.378  1.00  0.00    -0.092 N 
HETATM    4  C   UNL     1       4.929  31.508  51.177  1.00  0.00     0.735 A 
HETATM    5  N   UNL     1       4.468  31.263  52.421  1.00  0.00    -0.191 N 
HETATM    6  N   UNL     1       5.778  30.889  49.218  1.00  0.00     0.012 NA
HETATM    7  N   UNL     1       5.695  32.214  49.299  1.00  0.00     0.033 NA
HETATM    8  N   UNL     1       5.168  32.613  50.515  1.00  0.00     0.030 NA
HETATM    9  C   UNL     1       4.520  30.002  53.012  1.00  0.00     0.037 C 
HETATM   10  C   UNL     1       4.100  29.952  54.460  1.00  0.00     0.070 C 
HETATM   11  H   UNL     1       4.248  32.056  53.021  1.00  0.00     0.184 HD
ENDROOT
BRANCH   1  12
HETATM   12  C   UNL     1       5.164  27.551  52.798  1.00  0.00     0.256 C 
HETATM   13  N   UNL     1       6.490  27.174  52.769  1.00  0.00    -0.323 N 
HETATM   14  H   UNL     1       7.166  27.847  52.432  1.00  0.00     0.169 HD
HETATM   15  O   UNL     1       4.218  26.844  53.117  1.00  0.00    -0.267 OA
BRANCH  13  16
HETATM   16  C   UNL     1       7.034  25.941  53.195  1.00  0.00     0.035 A 
HETATM   17  C   UNL     1       7.255  25.604  54.531  1.00  0.00     0.030 A 
HETATM   18  C   UNL     1       7.806  24.364  54.870  1.00  0.00     0.009 A 
HETATM   19  C   UNL     1       8.150  23.440  53.880  1.00  0.00    -0.062 A 
HETATM   20  C   UNL     1       8.785  22.134  54.257  1.00  0.00     0.048 C 
HETATM   21  C   UNL     1       7.940  23.779  52.541  1.00  0.00     0.009 A 
HETATM   22  C   UNL     1       7.373  25.013  52.203  1.00  0.00     0.030 A 
ENDBRANCH  13  16
ENDBRANCH   1  12
BRANCH   2  23
HETATM   23  C   UNL     1       3.991  28.429  49.943  1.00  0.00    -0.011 A 
HETATM   24  C   UNL     1       4.195  27.312  49.130  1.00  0.00     0.125 A 
HETATM   25  N   UNL     1       3.239  26.741  48.364  1.00  0.00    -0.272 NA
HETATM   26  C   UNL     1       2.013  27.304  48.402  1.00  0.00     0.116 A 
HETATM   27  C   UNL     1       1.698  28.408  49.176  1.00  0.00     0.020 A 
HETATM   28  C   UNL     1       2.702  28.975  49.957  1.00  0.00     0.012 A 
ENDBRANCH   2  23
TORSDOF 3
ENDMDL
MODEL 5
REMARK VINA RESULT:      -7.8      2.368      4.796
REMARK  3 active torsions:
REMARK  status: ('A' for Active; 'I' for Inactive)
REMARK    1  A    between atoms: C_5  and  N_6 
REMARK       I    between atoms: N_6  and  C_7 
REMARK    2  A    between atoms: C_7  and  C_8 
REMARK    3  A    between atoms: C_9  and  C_10 
ROOT
HETATM    1  C   UNL     1       5.005  28.979  53.071  1.00  0.00     0.062 C 
HETATM    2  C   UNL     1       5.034  29.627  51.678  1.00  0.00     0.199 C 
HETATM    3  N   UNL     1       4.303  30.890  51.690  1.00  0.00    -0.092 N 
HETATM    4  C   UNL     1       3.440  31.273  52.677  1.00  0.00     0.735 A 
HETATM    5  N   UNL     1       3.272  30.467  53.746  1.00  0.00    -0.191 N 
HETATM    6  N   UNL     1       4.401  31.848  50.757  1.00  0.00     0.012 NA
HETATM    7  N   UNL     1       3.551  32.788  51.158  1.00  0.00     0.033 NA
HETATM    8  N   UNL     1       2.945  32.442  52.354  1.00  0.00     0.030 NA
HETATM    9  C   UNL     1       4.092  29.369  54.000  1.00  0.00     0.037 C 
HETATM   10  C   UNL     1       3.850  28.678  55.319  1.00  0.00     0.070 C 
HETATM   11  H   UNL     1       2.652  30.775  54.492  1.00  0.00     0.184 HD
ENDROOT
BRANCH   1  12
HETATM   12  C   UNL     1       6.057  27.933  53.262  1.00  0.00     0.256 C 
HETATM   13  N   UNL     1       5.583  26.639  53.227  1.00  0.00    -0.323 N 
HETATM   14  H   UNL     1       4.597  26.501  53.052  1.00  0.00     0.169 HD
HETATM   15  O   UNL     1       7.202  28.278  53.519  1.00  0.00    -0.267 OA
BRANCH  13  16
HETATM   16  C   UNL     1       6.337  25.453  53.378  1.00  0.00     0.035 A 
HETATM   17  C   UNL     1       6.342  24.672  54.534  1.00  0.00     0.030 A 
HETATM   18  C   UNL     1       7.125  23.515  54.609  1.00  0.00     0.009 A 
HETATM   19  C   UNL     1       7.921  23.121  53.531  1.00  0.00    -0.062 A 
HETATM   20  C   UNL     1       8.792  21.905  53.643  1.00  0.00     0.048 C 
HETATM   21  C   UNL     1       7.927  23.907  52.375  1.00  0.00     0.009 A 
HETATM   22  C   UNL     1       7.132  25.055  52.296  1.00  0.00     0.030 A 
ENDBRANCH  13  16
ENDBRANCH   1  12
BRANCH   2  23
HETATM   23  C   UNL     1       4.465  28.727  50.591  1.00  0.00    -0.011 A 
HETATM   24  C   UNL     1       3.114  28.754  50.239  1.00  0.00     0.125 A 
HETATM   25  N   UNL     1       2.553  27.955  49.304  1.00  0.00    -0.272 NA
HETATM   26  C   UNL     1       3.371  27.079  48.683  1.00  0.00     0.116 A 
HETATM   27  C   UNL     1       4.725  26.971  48.949  1.00  0.00     0.020 A 
HETATM   28  C   UNL     1       5.277  27.808  49.915  1.00  0.00     0.012 A 
ENDBRANCH   2  23
TORSDOF 3
ENDMDL
MODEL 6
REMARK VINA RESULT:      -7.6      2.738      3.641
REMARK  3 active torsions:
REMARK  status: ('A' for Active; 'I' for Inactive)
REMARK    1  A    between atoms: C_5  and  N_6 
REMARK       I    between atoms: N_6  and  C_7 
REMARK    2  A    between atoms: C_7  and  C_8 
REMARK    3  A    between atoms: C_9  and  C_10 
ROOT
HETATM    1  C   UNL     1       6.123  29.158  56.547  1.00  0.00     0.062 C 
HETATM    2  C   UNL     1       6.884  29.712  57.761  1.00  0.00     0.199 C 
HETATM    3  N   UNL     1       6.387  31.039  58.110  1.00  0.00    -0.092 N 
HETATM    4  C   UNL     1       5.615  31.814  57.291  1.00  0.00     0.735 A 
HETATM    5  N   UNL     1       5.236  31.321  56.094  1.00  0.00    -0.191 N 
HETATM    6  N   UNL     1       6.594  31.659  59.281  1.00  0.00     0.012 NA
HETATM    7  N   UNL     1       5.989  32.835  59.143  1.00  0.00     0.033 NA
HETATM    8  N   UNL     1       5.375  32.945  57.907  1.00  0.00     0.030 NA
HETATM    9  C   UNL     1       5.408  29.984  55.738  1.00  0.00     0.037 C 
HETATM   10  C   UNL     1       4.786  29.584  54.423  1.00  0.00     0.070 C 
HETATM   11  H   UNL     1       4.635  31.892  55.503  1.00  0.00     0.184 HD
ENDROOT
BRANCH   1  12
HETATM   12  C   UNL     1       6.258  27.677  56.387  1.00  0.00     0.256 C 
HETATM   13  N   UNL     1       6.855  27.285  55.207  1.00  0.00    -0.323 N 
HETATM   14  H   UNL     1       7.171  28.007  54.575  1.00  0.00     0.169 HD
HETATM   15  O   UNL     1       5.768  26.939  57.230  1.00  0.00    -0.267 OA
BRANCH  13  16
HETATM   16  C   UNL     1       7.111  25.961  54.783  1.00  0.00     0.035 A 
HETATM   17  C   UNL     1       7.915  25.059  55.480  1.00  0.00     0.030 A 
HETATM   18  C   UNL     1       8.127  23.767  54.987  1.00  0.00     0.009 A 
HETATM   19  C   UNL     1       7.543  23.355  53.787  1.00  0.00    -0.062 A 
HETATM   20  C   UNL     1       7.819  21.983  53.248  1.00  0.00     0.048 C 
HETATM   21  C   UNL     1       6.746  24.260  53.082  1.00  0.00     0.009 A 
HETATM   22  C   UNL     1       6.521  25.547  53.583  1.00  0.00     0.030 A 
ENDBRANCH  13  16
ENDBRANCH   1  12
BRANCH   2  23
HETATM   23  C   UNL     1       8.388  29.781  57.541  1.00  0.00    -0.011 A 
HETATM   24  C   UNL     1       9.093  28.755  56.910  1.00  0.00     0.125 A 
HETATM   25  N   UNL     1      10.431  28.752  56.718  1.00  0.00    -0.272 NA
HETATM   26  C   UNL     1      11.112  29.823  57.178  1.00  0.00     0.116 A 
HETATM   27  C   UNL     1      10.515  30.898  57.813  1.00  0.00     0.020 A 
HETATM   28  C   UNL     1       9.135  30.876  57.994  1.00  0.00     0.012 A 
ENDBRANCH   2  23
TORSDOF 3
ENDMDL
MODEL 7
REMARK VINA RESULT:      -7.3      3.414      5.336
REMARK  3 active torsions:
REMARK  status: ('A' for Active; 'I' for Inactive)
REMARK    1  A    between atoms: C_5  and  N_6 
REMARK       I    between atoms: N_6  and  C_7 
REMARK    2  A    between atoms: C_7  and  C_8 
REMARK    3  A    between atoms: C_9  and  C_10 
ROOT
HETATM    1  C   UNL     1       4.035  27.796  49.061  1.00  0.00     0.062 C 
HETATM    2  C   UNL     1       2.877  28.571  49.709  1.00  0.00     0.199 C 
HETATM    3  N   UNL     1       2.247  29.454  48.732  1.00  0.00    -0.092 N 
HETATM    4  C   UNL     1       2.804  29.802  47.534  1.00  0.00     0.735 A 
HETATM    5  N   UNL     1       3.994  29.267  47.189  1.00  0.00    -0.191 N 
HETATM    6  N   UNL     1       1.037  30.016  48.866  1.00  0.00     0.012 NA
HETATM    7  N   UNL     1       0.890  30.748  47.765  1.00  0.00     0.033 NA
HETATM    8  N   UNL     1       1.985  30.624  46.927  1.00  0.00     0.030 NA
HETATM    9  C   UNL     1       4.583  28.216  47.890  1.00  0.00     0.037 C 
HETATM   10  C   UNL     1       5.835  27.650  47.267  1.00  0.00     0.070 C 
HETATM   11  H   UNL     1       4.387  29.507  46.280  1.00  0.00     0.184 HD
ENDROOT
BRANCH   1  12
HETATM   12  C   UNL     1       4.449  26.588  49.839  1.00  0.00     0.256 C 
HETATM   13  N   UNL     1       5.351  26.845  50.850  1.00  0.00    -0.323 N 
HETATM   14  H   UNL     1       5.632  27.805  51.000  1.00  0.00     0.169 HD
HETATM   15  O   UNL     1       4.053  25.486  49.485  1.00  0.00    -0.267 OA
BRANCH  13  16
HETATM   16  C   UNL     1       5.919  25.907  51.741  1.00  0.00     0.035 A 
HETATM   17  C   UNL     1       7.161  25.301  51.552  1.00  0.00     0.030 A 
HETATM   18  C   UNL     1       7.649  24.374  52.478  1.00  0.00     0.009 A 
HETATM   19  C   UNL     1       6.903  24.031  53.609  1.00  0.00    -0.062 A 
HETATM   20  C   UNL     1       7.418  22.999  54.567  1.00  0.00     0.048 C 
HETATM   21  C   UNL     1       5.653  24.628  53.795  1.00  0.00     0.009 A 
HETATM   22  C   UNL     1       5.173  25.568  52.877  1.00  0.00     0.030 A 
ENDBRANCH  13  16
ENDBRANCH   1  12
BRANCH   2  23
HETATM   23  C   UNL     1       3.308  29.386  50.919  1.00  0.00    -0.011 A 
HETATM   24  C   UNL     1       3.002  28.994  52.223  1.00  0.00     0.125 A 
HETATM   25  N   UNL     1       3.332  29.696  53.330  1.00  0.00    -0.272 NA
HETATM   26  C   UNL     1       4.003  30.852  53.137  1.00  0.00     0.116 A 
HETATM   27  C   UNL     1       4.362  31.333  51.890  1.00  0.00     0.020 A 
HETATM   28  C   UNL     1       4.011  30.587  50.768  1.00  0.00     0.012 A 
ENDBRANCH   2  23
TORSDOF 3
ENDMDL
MODEL 8
REMARK VINA RESULT:      -7.1      2.363      6.056
REMARK  3 active torsions:
REMARK  status: ('A' for Active; 'I' for Inactive)
REMARK    1  A    between atoms: C_5  and  N_6 
REMARK       I    between atoms: N_6  and  C_7 
REMARK    2  A    between atoms: C_7  and  C_8 
REMARK    3  A    between atoms: C_9  and  C_10 
ROOT
HETATM    1  C   UNL     1       6.221  26.368  54.111  1.00  0.00     0.062 C 
HETATM    2  C   UNL     1       6.324  25.193  55.094  1.00  0.00     0.199 C 
HETATM    3  N   UNL     1       6.969  25.620  56.332  1.00  0.00    -0.092 N 
HETATM    4  C   UNL     1       7.679  26.779  56.471  1.00  0.00     0.735 A 
HETATM    5  N   UNL     1       7.763  27.623  55.422  1.00  0.00    -0.191 N 
HETATM    6  N   UNL     1       6.928  24.954  57.495  1.00  0.00     0.012 NA
HETATM    7  N   UNL     1       7.663  25.691  58.323  1.00  0.00     0.033 NA
HETATM    8  N   UNL     1       8.138  26.831  57.697  1.00  0.00     0.030 NA
HETATM    9  C   UNL     1       6.988  27.480  54.272  1.00  0.00     0.037 C 
HETATM   10  C   UNL     1       7.108  28.602  53.272  1.00  0.00     0.070 C 
HETATM   11  H   UNL     1       8.268  28.499  55.544  1.00  0.00     0.184 HD
ENDROOT
BRANCH   1  12
HETATM   12  C   UNL     1       5.219  26.146  53.022  1.00  0.00     0.256 C 
HETATM   13  N   UNL     1       5.412  26.931  51.905  1.00  0.00    -0.323 N 
HETATM   14  H   UNL     1       6.207  27.556  51.897  1.00  0.00     0.169 HD
HETATM   15  O   UNL     1       4.282  25.386  53.220  1.00  0.00    -0.267 OA
BRANCH  13  16
HETATM   16  C   UNL     1       4.628  26.942  50.729  1.00  0.00     0.035 A 
HETATM   17  C   UNL     1       4.570  25.887  49.818  1.00  0.00     0.030 A 
HETATM   18  C   UNL     1       3.776  25.980  48.671  1.00  0.00     0.009 A 
HETATM   19  C   UNL     1       3.029  27.131  48.410  1.00  0.00    -0.062 A 
HETATM   20  C   UNL     1       2.220  27.235  47.151  1.00  0.00     0.048 C 
HETATM   21  C   UNL     1       3.093  28.194  49.315  1.00  0.00     0.009 A 
HETATM   22  C   UNL     1       3.875  28.094  50.470  1.00  0.00     0.030 A 
ENDBRANCH  13  16
ENDBRANCH   1  12
BRANCH   2  23
HETATM   23  C   UNL     1       7.076  24.001  54.522  1.00  0.00    -0.011 A 
HETATM   24  C   UNL     1       7.294  22.837  55.261  1.00  0.00     0.125 A 
HETATM   25  N   UNL     1       7.981  21.764  54.812  1.00  0.00    -0.272 NA
HETATM   26  C   UNL     1       8.484  21.845  53.562  1.00  0.00     0.116 A 
HETATM   27  C   UNL     1       8.324  22.947  52.739  1.00  0.00     0.020 A 
HETATM   28  C   UNL     1       7.609  24.037  53.227  1.00  0.00     0.012 A 
ENDBRANCH   2  23
TORSDOF 3
ENDMDL
MODEL 9
REMARK VINA RESULT:      -7.1      3.738      5.759
REMARK  3 active torsions:
REMARK  status: ('A' for Active; 'I' for Inactive)
REMARK    1  A    between atoms: C_5  and  N_6 
REMARK       I    between atoms: N_6  and  C_7 
REMARK    2  A    between atoms: C_7  and  C_8 
REMARK    3  A    between atoms: C_9  and  C_10 
ROOT
HETATM    1  C   UNL     1       4.219  28.297  49.615  1.00  0.00     0.062 C 
HETATM    2  C   UNL     1       3.446  29.550  50.054  1.00  0.00     0.199 C 
HETATM    3  N   UNL     1       2.307  29.779  49.171  1.00  0.00    -0.092 N 
HETATM    4  C   UNL     1       2.146  29.188  47.950  1.00  0.00     0.735 A 
HETATM    5  N   UNL     1       3.065  28.293  47.533  1.00  0.00    -0.191 N 
HETATM    6  N   UNL     1       1.261  30.571  49.449  1.00  0.00     0.012 NA
HETATM    7  N   UNL     1       0.494  30.497  48.365  1.00  0.00     0.033 NA
HETATM    8  N   UNL     1       1.035  29.639  47.423  1.00  0.00     0.030 NA
HETATM    9  C   UNL     1       4.054  27.779  48.369  1.00  0.00     0.037 C 
HETATM   10  C   UNL     1       4.894  26.678  47.771  1.00  0.00     0.070 C 
HETATM   11  H   UNL     1       2.921  27.834  46.635  1.00  0.00     0.184 HD
ENDROOT
BRANCH   1  12
HETATM   12  C   UNL     1       5.117  27.750  50.679  1.00  0.00     0.256 C 
HETATM   13  N   UNL     1       4.861  26.438  51.019  1.00  0.00    -0.323 N 
HETATM   14  H   UNL     1       4.128  25.954  50.518  1.00  0.00     0.169 HD
HETATM   15  O   UNL     1       5.922  28.495  51.222  1.00  0.00    -0.267 OA
BRANCH  13  16
HETATM   16  C   UNL     1       5.541  25.663  51.986  1.00  0.00     0.035 A 
HETATM   17  C   UNL     1       5.012  25.330  53.233  1.00  0.00     0.030 A 
HETATM   18  C   UNL     1       5.753  24.565  54.139  1.00  0.00     0.009 A 
HETATM   19  C   UNL     1       7.039  24.123  53.818  1.00  0.00    -0.062 A 
HETATM   20  C   UNL     1       7.840  23.345  54.819  1.00  0.00     0.048 C 
HETATM   21  C   UNL     1       7.576  24.464  52.573  1.00  0.00     0.009 A 
HETATM   22  C   UNL     1       6.827  25.215  51.661  1.00  0.00     0.030 A 
ENDBRANCH  13  16
ENDBRANCH   1  12
BRANCH   2  23
HETATM   23  C   UNL     1       4.311  30.801  50.094  1.00  0.00    -0.011 A 
HETATM   24  C   UNL     1       4.305  31.671  51.185  1.00  0.00     0.125 A 
HETATM   25  N   UNL     1       5.030  32.810  51.258  1.00  0.00    -0.272 NA
HETATM   26  C   UNL     1       5.802  33.107  50.191  1.00  0.00     0.116 A 
HETATM   27  C   UNL     1       5.888  32.314  49.060  1.00  0.00     0.020 A 
HETATM   28  C   UNL     1       5.133  31.145  49.014  1.00  0.00     0.012 A 
ENDBRANCH   2  23
TORSDOF 3
ENDMDL
MODEL 10
REMARK VINA RESULT:      -7.1      2.907      5.683
REMARK  3 active torsions:
REMARK  status: ('A' for Active; 'I' for Inactive)
REMARK    1  A    between atoms: C_5  and  N_6 
REMARK       I    between atoms: N_6  and  C_7 
REMARK    2  A    between atoms: C_7  and  C_8 
REMARK    3  A    between atoms: C_9  and  C_10 
ROOT
HETATM    1  C   UNL     1       5.751  27.872  55.220  1.00  0.00     0.062 C 
HETATM    2  C   UNL     1       6.269  29.270  55.589  1.00  0.00     0.199 C 
HETATM    3  N   UNL     1       7.303  29.174  56.615  1.00  0.00    -0.092 N 
HETATM    4  C   UNL     1       7.533  28.064  57.376  1.00  0.00     0.735 A 
HETATM    5  N   UNL     1       6.800  26.954  57.150  1.00  0.00    -0.191 N 
HETATM    6  N   UNL     1       8.175  30.144  56.925  1.00  0.00     0.012 NA
HETATM    7  N   UNL     1       8.898  29.631  57.917  1.00  0.00     0.033 NA
HETATM    8  N   UNL     1       8.508  28.336  58.208  1.00  0.00     0.030 NA
HETATM    9  C   UNL     1       5.969  26.810  56.040  1.00  0.00     0.037 C 
HETATM   10  C   UNL     1       5.349  25.445  55.875  1.00  0.00     0.070 C 
HETATM   11  H   UNL     1       6.999  26.121  57.701  1.00  0.00     0.184 HD
ENDROOT
BRANCH   1  12
HETATM   12  C   UNL     1       5.024  27.834  53.912  1.00  0.00     0.256 C 
HETATM   13  N   UNL     1       5.842  27.678  52.813  1.00  0.00    -0.323 N 
HETATM   14  H   UNL     1       6.836  27.577  52.973  1.00  0.00     0.169 HD
HETATM   15  O   UNL     1       3.817  28.028  53.895  1.00  0.00    -0.267 OA
BRANCH  13  16
HETATM   16  C   UNL     1       5.443  27.611  51.459  1.00  0.00     0.035 A 
HETATM   17  C   UNL     1       5.354  28.717  50.614  1.00  0.00     0.030 A 
HETATM   18  C   UNL     1       4.940  28.568  49.287  1.00  0.00     0.009 A 
HETATM   19  C   UNL     1       4.603  27.310  48.780  1.00  0.00    -0.062 A 
HETATM   20  C   UNL     1       4.115  27.173  47.369  1.00  0.00     0.048 C 
HETATM   21  C   UNL     1       4.681  26.201  49.627  1.00  0.00     0.009 A 
HETATM   22  C   UNL     1       5.110  26.349  50.950  1.00  0.00     0.030 A 
ENDBRANCH  13  16
ENDBRANCH   1  12
BRANCH   2  23
HETATM   23  C   UNL     1       5.170  30.206  56.069  1.00  0.00    -0.011 A 
HETATM   24  C   UNL     1       4.831  31.368  55.374  1.00  0.00     0.125 A 
HETATM   25  N   UNL     1       3.886  32.249  55.773  1.00  0.00    -0.272 NA
HETATM   26  C   UNL     1       3.240  31.966  56.924  1.00  0.00     0.116 A 
HETATM   27  C   UNL     1       3.491  30.840  57.689  1.00  0.00     0.020 A 
HETATM   28  C   UNL     1       4.468  29.949  57.253  1.00  0.00     0.012 A 
ENDBRANCH   2  23
TORSDOF 3
ENDMDL
