MODEL 1
REMARK VINA RESULT:     -10.2      0.000      0.000
REMARK  4 active torsions:
REMARK  status: ('A' for Active; 'I' for Inactive)
REMARK    1  A    between atoms: C_5  and  C_6 
REMARK       I    between atoms: C_6  and  N_7 
REMARK    2  A    between atoms: N_7  and  C_8 
REMARK    3  A    between atoms: C_12  and  C_13 
REMARK    4  A    between atoms: C_13  and  C_14 
ROOT
HETATM    1  C   UNL     1       6.951  26.969  55.404  1.00  0.00     0.747 A 
HETATM    2  N   UNL     1       5.623  26.882  55.534  1.00  0.00     0.020 NA
HETATM    3  N   UNL     1       5.348  25.795  54.792  1.00  0.00    -0.248 N 
HETATM    4  H   UNL     1       4.386  25.498  54.681  1.00  0.00     0.191 HD
HETATM    5  C   UNL     1       6.482  25.270  54.247  1.00  0.00     0.144 A 
HETATM    6  N   UNL     1       7.509  25.986  54.646  1.00  0.00    -0.046 NA
ENDROOT
BRANCH   1   7
HETATM    7  N   UNL     1       7.645  28.002  55.964  1.00  0.00    -0.150 N 
HETATM    8  C   UNL     1       8.070  28.046  57.268  1.00  0.00     0.271 C 
HETATM    9  O   UNL     1       7.869  27.212  58.143  1.00  0.00    -0.267 OA
HETATM   10  H   UNL     1       7.914  28.710  55.301  1.00  0.00     0.188 HD
BRANCH   8  11
HETATM   11  C   UNL     1       8.928  29.209  57.603  1.00  0.00     0.045 A 
HETATM   12  C   UNL     1       8.490  30.280  58.419  1.00  0.00     0.008 A 
HETATM   13  C   UNL     1       9.368  31.351  58.626  1.00  0.00     0.043 A 
HETATM   14  C   UNL     1       7.312  30.577  59.173  1.00  0.00     0.032 A 
HETATM   15  C   UNL     1      10.657  31.396  58.080  1.00  0.00     0.030 A 
HETATM   16  N   UNL     1       8.724  32.267  59.428  1.00  0.00    -0.365 N 
HETATM   17  C   UNL     1      11.079  30.312  57.306  1.00  0.00     0.003 A 
HETATM   18  C   UNL     1      10.231  29.234  57.072  1.00  0.00     0.018 A 
HETATM   19  H   UNL     1       9.126  33.142  59.735  1.00  0.00     0.165 HD
HETATM   20  C   UNL     1       7.481  31.807  59.766  1.00  0.00     0.089 A 
ENDBRANCH   8  11
ENDBRANCH   1   7
BRANCH   5  21
HETATM   21  C   UNL     1       6.489  24.120  53.302  1.00  0.00     0.119 C 
BRANCH  21  22
HETATM   22  C   UNL     1       7.243  22.919  53.834  1.00  0.00    -0.045 A 
HETATM   23  C   UNL     1       7.356  22.686  55.215  1.00  0.00     0.050 A 
HETATM   24  C   UNL     1       8.039  21.567  55.688  1.00  0.00     0.119 A 
HETATM   25  F   UNL     1       8.152  21.372  57.008  1.00  0.00    -0.206 F 
HETATM   26  C   UNL     1       8.604  20.650  54.814  1.00  0.00     0.084 A 
HETATM   27  C   UNL     1       8.473  20.864  53.450  1.00  0.00     0.119 A 
HETATM   28  F   UNL     1       9.001  19.983  52.591  1.00  0.00    -0.206 F 
HETATM   29  C   UNL     1       7.800  21.981  52.952  1.00  0.00     0.050 A 
ENDBRANCH  21  22
ENDBRANCH   5  21
TORSDOF 4
ENDMDL
MODEL 2
REMARK VINA RESULT:     -10.0      0.784      2.462
REMARK  4 active torsions:
REMARK  status: ('A' for Active; 'I' for Inactive)
REMARK    1  A    between atoms: C_5  and  C_6 
REMARK       I    between atoms: C_6  and  N_7 
REMARK    2  A    between atoms: N_7  and  C_8 
REMARK    3  A    between atoms: C_12  and  C_13 
REMARK    4  A    between atoms: C_13  and  C_14 
ROOT
HETATM    1  C   UNL     1       6.413  26.914  55.456  1.00  0.00     0.747 A 
HETATM    2  N   UNL     1       5.117  26.591  55.400  1.00  0.00     0.020 NA
HETATM    3  N   UNL     1       5.135  25.533  54.571  1.00  0.00    -0.248 N 
HETATM    4  H   UNL     1       4.263  25.085  54.315  1.00  0.00     0.191 HD
HETATM    5  C   UNL     1       6.404  25.253  54.156  1.00  0.00     0.144 A 
HETATM    6  N   UNL     1       7.228  26.102  54.729  1.00  0.00    -0.046 NA
ENDROOT
BRANCH   1   7
HETATM    7  N   UNL     1       6.835  28.004  56.159  1.00  0.00    -0.150 N 
HETATM    8  C   UNL     1       7.447  27.958  57.387  1.00  0.00     0.271 C 
HETATM    9  O   UNL     1       7.674  26.964  58.066  1.00  0.00    -0.267 OA
HETATM   10  H   UNL     1       6.749  28.868  55.649  1.00  0.00     0.188 HD
BRANCH   8  11
HETATM   11  C   UNL     1       7.942  29.266  57.884  1.00  0.00     0.045 A 
HETATM   12  C   UNL     1       9.278  29.701  57.707  1.00  0.00     0.008 A 
HETATM   13  C   UNL     1       9.647  30.932  58.264  1.00  0.00     0.043 A 
HETATM   14  C   UNL     1      10.437  29.201  57.038  1.00  0.00     0.032 A 
HETATM   15  C   UNL     1       8.752  31.750  58.966  1.00  0.00     0.030 A 
HETATM   16  N   UNL     1      10.979  31.132  57.980  1.00  0.00    -0.365 N 
HETATM   17  C   UNL     1       7.431  31.315  59.097  1.00  0.00     0.003 A 
HETATM   18  C   UNL     1       7.030  30.094  58.564  1.00  0.00     0.018 A 
HETATM   19  H   UNL     1      11.510  31.944  58.265  1.00  0.00     0.165 HD
HETATM   20  C   UNL     1      11.466  30.093  57.237  1.00  0.00     0.089 A 
ENDBRANCH   8  11
ENDBRANCH   1   7
BRANCH   5  21
HETATM   21  C   UNL     1       6.734  24.197  53.162  1.00  0.00     0.119 C 
BRANCH  21  22
HETATM   22  C   UNL     1       7.341  22.959  53.788  1.00  0.00    -0.045 A 
HETATM   23  C   UNL     1       7.860  21.923  52.993  1.00  0.00     0.050 A 
HETATM   24  C   UNL     1       8.430  20.798  53.585  1.00  0.00     0.119 A 
HETATM   25  F   UNL     1       8.902  19.813  52.810  1.00  0.00    -0.206 F 
HETATM   26  C   UNL     1       8.517  20.680  54.964  1.00  0.00     0.084 A 
HETATM   27  C   UNL     1       8.027  21.711  55.751  1.00  0.00     0.119 A 
HETATM   28  F   UNL     1       8.114  21.620  57.084  1.00  0.00    -0.206 F 
HETATM   29  C   UNL     1       7.446  22.845  55.182  1.00  0.00     0.050 A 
ENDBRANCH  21  22
ENDBRANCH   5  21
TORSDOF 4
ENDMDL
MODEL 3
REMARK VINA RESULT:      -9.9      5.897      8.656
REMARK  4 active torsions:
REMARK  status: ('A' for Active; 'I' for Inactive)
REMARK    1  A    between atoms: C_5  and  C_6 
REMARK       I    between atoms: C_6  and  N_7 
REMARK    2  A    between atoms: N_7  and  C_8 
REMARK    3  A    between atoms: C_12  and  C_13 
REMARK    4  A    between atoms: C_13  and  C_14 
ROOT
HETATM    1  C   UNL     1       5.367  25.475  52.171  1.00  0.00     0.747 A 
HETATM    2  N   UNL     1       4.674  26.338  52.921  1.00  0.00     0.020 NA
HETATM    3  N   UNL     1       4.368  27.293  52.026  1.00  0.00    -0.248 N 
HETATM    4  H   UNL     1       3.855  28.113  52.327  1.00  0.00     0.191 HD
HETATM    5  C   UNL     1       4.870  26.993  50.794  1.00  0.00     0.144 A 
HETATM    6  N   UNL     1       5.483  25.832  50.863  1.00  0.00    -0.046 NA
ENDROOT
BRANCH   1   7
HETATM    7  N   UNL     1       5.933  24.363  52.723  1.00  0.00    -0.150 N 
HETATM    8  C   UNL     1       7.280  24.102  52.755  1.00  0.00     0.271 C 
HETATM    9  O   UNL     1       8.180  24.777  52.271  1.00  0.00    -0.267 OA
HETATM   10  H   UNL     1       5.273  23.776  53.206  1.00  0.00     0.188 HD
BRANCH   8  11
HETATM   11  C   UNL     1       7.661  22.899  53.536  1.00  0.00     0.045 A 
HETATM   12  C   UNL     1       7.929  22.935  54.926  1.00  0.00     0.008 A 
HETATM   13  C   UNL     1       8.331  21.748  55.550  1.00  0.00     0.043 A 
HETATM   14  C   UNL     1       7.870  23.927  55.954  1.00  0.00     0.032 A 
HETATM   15  C   UNL     1       8.457  20.532  54.865  1.00  0.00     0.030 A 
HETATM   16  N   UNL     1       8.547  22.031  56.880  1.00  0.00    -0.365 N 
HETATM   17  C   UNL     1       8.154  20.514  53.502  1.00  0.00     0.003 A 
HETATM   18  C   UNL     1       7.760  21.676  52.846  1.00  0.00     0.018 A 
HETATM   19  H   UNL     1       8.849  21.354  57.567  1.00  0.00     0.165 HD
HETATM   20  C   UNL     1       8.269  23.345  57.135  1.00  0.00     0.089 A 
ENDBRANCH   8  11
ENDBRANCH   1   7
BRANCH   5  21
HETATM   21  C   UNL     1       4.775  27.901  49.619  1.00  0.00     0.119 C 
BRANCH  21  22
HETATM   22  C   UNL     1       3.628  27.557  48.693  1.00  0.00    -0.045 A 
HETATM   23  C   UNL     1       2.528  28.419  48.548  1.00  0.00     0.050 A 
HETATM   24  C   UNL     1       1.487  28.095  47.679  1.00  0.00     0.119 A 
HETATM   25  F   UNL     1       0.439  28.921  47.569  1.00  0.00    -0.206 F 
HETATM   26  C   UNL     1       1.520  26.932  46.924  1.00  0.00     0.084 A 
HETATM   27  C   UNL     1       2.616  26.091  47.046  1.00  0.00     0.119 A 
HETATM   28  F   UNL     1       2.670  24.970  46.317  1.00  0.00    -0.206 F 
HETATM   29  C   UNL     1       3.666  26.390  47.915  1.00  0.00     0.050 A 
ENDBRANCH  21  22
ENDBRANCH   5  21
TORSDOF 4
ENDMDL
MODEL 4
REMARK VINA RESULT:      -9.8      5.834      8.687
REMARK  4 active torsions:
REMARK  status: ('A' for Active; 'I' for Inactive)
REMARK    1  A    between atoms: C_5  and  C_6 
REMARK       I    between atoms: C_6  and  N_7 
REMARK    2  A    between atoms: N_7  and  C_8 
REMARK    3  A    between atoms: C_12  and  C_13 
REMARK    4  A    between atoms: C_13  and  C_14 
ROOT
HETATM    1  C   UNL     1       5.542  25.464  52.467  1.00  0.00     0.747 A 
HETATM    2  N   UNL     1       4.567  26.210  52.996  1.00  0.00     0.020 NA
HETATM    3  N   UNL     1       4.279  27.043  51.982  1.00  0.00    -0.248 N 
HETATM    4  H   UNL     1       3.575  27.761  52.109  1.00  0.00     0.191 HD
HETATM    5  C   UNL     1       5.066  26.790  50.897  1.00  0.00     0.144 A 
HETATM    6  N   UNL     1       5.852  25.775  51.179  1.00  0.00    -0.046 NA
ENDROOT
BRANCH   1   7
HETATM    7  N   UNL     1       6.177  24.511  53.208  1.00  0.00    -0.150 N 
HETATM    8  C   UNL     1       7.322  24.716  53.936  1.00  0.00     0.271 C 
HETATM    9  O   UNL     1       7.979  25.748  54.011  1.00  0.00    -0.267 OA
HETATM   10  H   UNL     1       5.672  23.641  53.260  1.00  0.00     0.188 HD
BRANCH   8  11
HETATM   11  C   UNL     1       7.742  23.565  54.773  1.00  0.00     0.045 A 
HETATM   12  C   UNL     1       7.987  22.276  54.242  1.00  0.00     0.008 A 
HETATM   13  C   UNL     1       8.328  21.252  55.133  1.00  0.00     0.043 A 
HETATM   14  C   UNL     1       8.012  21.694  52.936  1.00  0.00     0.032 A 
HETATM   15  C   UNL     1       8.454  21.453  56.514  1.00  0.00     0.030 A 
HETATM   16  N   UNL     1       8.501  20.101  54.397  1.00  0.00    -0.365 N 
HETATM   17  C   UNL     1       8.240  22.742  57.010  1.00  0.00     0.003 A 
HETATM   18  C   UNL     1       7.892  23.782  56.155  1.00  0.00     0.018 A 
HETATM   19  H   UNL     1       8.750  19.203  54.788  1.00  0.00     0.165 HD
HETATM   20  C   UNL     1       8.315  20.359  53.067  1.00  0.00     0.089 A 
ENDBRANCH   8  11
ENDBRANCH   1   7
BRANCH   5  21
HETATM   21  C   UNL     1       5.047  27.605  49.653  1.00  0.00     0.119 C 
BRANCH  21  22
HETATM   22  C   UNL     1       3.840  27.332  48.781  1.00  0.00    -0.045 A 
HETATM   23  C   UNL     1       2.754  28.223  48.743  1.00  0.00     0.050 A 
HETATM   24  C   UNL     1       1.658  27.965  47.922  1.00  0.00     0.119 A 
HETATM   25  F   UNL     1       0.625  28.817  47.914  1.00  0.00    -0.206 F 
HETATM   26  C   UNL     1       1.618  26.840  47.112  1.00  0.00     0.084 A 
HETATM   27  C   UNL     1       2.699  25.971  47.129  1.00  0.00     0.119 A 
HETATM   28  F   UNL     1       2.683  24.885  46.345  1.00  0.00    -0.206 F 
HETATM   29  C   UNL     1       3.805  26.204  47.947  1.00  0.00     0.050 A 
ENDBRANCH  21  22
ENDBRANCH   5  21
TORSDOF 4
ENDMDL
MODEL 5
REMARK VINA RESULT:      -9.8      5.114      8.064
REMARK  4 active torsions:
REMARK  status: ('A' for Active; 'I' for Inactive)
REMARK    1  A    between atoms: C_5  and  C_6 
REMARK       I    between atoms: C_6  and  N_7 
REMARK    2  A    between atoms: N_7  and  C_8 
REMARK    3  A    between atoms: C_12  and  C_13 
REMARK    4  A    between atoms: C_13  and  C_14 
ROOT
HETATM    1  C   UNL     1       5.253  25.314  52.289  1.00  0.00     0.747 A 
HETATM    2  N   UNL     1       4.636  25.165  53.465  1.00  0.00     0.020 NA
HETATM    3  N   UNL     1       5.667  24.879  54.279  1.00  0.00    -0.248 N 
HETATM    4  H   UNL     1       5.491  24.682  55.258  1.00  0.00     0.191 HD
HETATM    5  C   UNL     1       6.846  24.860  53.594  1.00  0.00     0.144 A 
HETATM    6  N   UNL     1       6.604  25.160  52.338  1.00  0.00    -0.046 NA
ENDROOT
BRANCH   1   7
HETATM    7  N   UNL     1       4.542  25.555  51.149  1.00  0.00    -0.150 N 
HETATM    8  C   UNL     1       4.762  26.606  50.295  1.00  0.00     0.271 C 
HETATM    9  O   UNL     1       5.579  27.510  50.423  1.00  0.00    -0.267 OA
HETATM   10  H   UNL     1       3.886  24.825  50.925  1.00  0.00     0.188 HD
BRANCH   8  11
HETATM   11  C   UNL     1       3.955  26.574  49.050  1.00  0.00     0.045 A 
HETATM   12  C   UNL     1       3.472  27.743  48.414  1.00  0.00     0.008 A 
HETATM   13  C   UNL     1       2.676  27.590  47.272  1.00  0.00     0.043 A 
HETATM   14  C   UNL     1       3.610  29.151  48.620  1.00  0.00     0.032 A 
HETATM   15  C   UNL     1       2.357  26.340  46.728  1.00  0.00     0.030 A 
HETATM   16  N   UNL     1       2.317  28.849  46.846  1.00  0.00    -0.365 N 
HETATM   17  C   UNL     1       2.873  25.202  47.353  1.00  0.00     0.003 A 
HETATM   18  C   UNL     1       3.661  25.315  48.494  1.00  0.00     0.018 A 
HETATM   19  H   UNL     1       1.738  29.037  46.038  1.00  0.00     0.165 HD
HETATM   20  C   UNL     1       2.879  29.800  47.652  1.00  0.00     0.089 A 
ENDBRANCH   8  11
ENDBRANCH   1   7
BRANCH   5  21
HETATM   21  C   UNL     1       8.150  24.483  54.203  1.00  0.00     0.119 C 
BRANCH  21  22
HETATM   22  C   UNL     1       8.331  22.986  54.342  1.00  0.00    -0.045 A 
HETATM   23  C   UNL     1       8.601  22.400  55.590  1.00  0.00     0.050 A 
HETATM   24  C   UNL     1       8.749  21.019  55.703  1.00  0.00     0.119 A 
HETATM   25  F   UNL     1       9.024  20.481  56.898  1.00  0.00    -0.206 F 
HETATM   26  C   UNL     1       8.614  20.190  54.599  1.00  0.00     0.084 A 
HETATM   27  C   UNL     1       8.324  20.763  53.370  1.00  0.00     0.119 A 
HETATM   28  F   UNL     1       8.179  19.979  52.295  1.00  0.00    -0.206 F 
HETATM   29  C   UNL     1       8.179  22.144  53.230  1.00  0.00     0.050 A 
ENDBRANCH  21  22
ENDBRANCH   5  21
TORSDOF 4
ENDMDL
MODEL 6
REMARK VINA RESULT:      -9.8      5.013      8.280
REMARK  4 active torsions:
REMARK  status: ('A' for Active; 'I' for Inactive)
REMARK    1  A    between atoms: C_5  and  C_6 
REMARK       I    between atoms: C_6  and  N_7 
REMARK    2  A    between atoms: N_7  and  C_8 
REMARK    3  A    between atoms: C_12  and  C_13 
REMARK    4  A    between atoms: C_13  and  C_14 
ROOT
HETATM    1  C   UNL     1       5.272  25.820  52.250  1.00  0.00     0.747 A 
HETATM    2  N   UNL     1       4.796  26.197  53.441  1.00  0.00     0.020 NA
HETATM    3  N   UNL     1       5.795  25.830  54.262  1.00  0.00    -0.248 N 
HETATM    4  H   UNL     1       5.698  25.970  55.261  1.00  0.00     0.191 HD
HETATM    5  C   UNL     1       6.818  25.255  53.568  1.00  0.00     0.144 A 
HETATM    6  N   UNL     1       6.514  25.265  52.290  1.00  0.00    -0.046 NA
ENDROOT
BRANCH   1   7
HETATM    7  N   UNL     1       4.521  25.957  51.119  1.00  0.00    -0.150 N 
HETATM    8  C   UNL     1       4.694  26.938  50.176  1.00  0.00     0.271 C 
HETATM    9  O   UNL     1       5.499  27.861  50.203  1.00  0.00    -0.267 OA
HETATM   10  H   UNL     1       3.870  25.201  50.977  1.00  0.00     0.188 HD
BRANCH   8  11
HETATM   11  C   UNL     1       3.848  26.792  48.965  1.00  0.00     0.045 A 
HETATM   12  C   UNL     1       3.191  27.885  48.348  1.00  0.00     0.008 A 
HETATM   13  C   UNL     1       2.377  27.621  47.240  1.00  0.00     0.043 A 
HETATM   14  C   UNL     1       3.153  29.300  48.546  1.00  0.00     0.032 A 
HETATM   15  C   UNL     1       2.201  26.336  46.711  1.00  0.00     0.030 A 
HETATM   16  N   UNL     1       1.840  28.820  46.827  1.00  0.00    -0.365 N 
HETATM   17  C   UNL     1       2.886  25.280  47.316  1.00  0.00     0.003 A 
HETATM   18  C   UNL     1       3.698  25.502  48.424  1.00  0.00     0.018 A 
HETATM   19  H   UNL     1       1.208  28.925  46.044  1.00  0.00     0.165 HD
HETATM   20  C   UNL     1       2.305  29.841  47.608  1.00  0.00     0.089 A 
ENDBRANCH   8  11
ENDBRANCH   1   7
BRANCH   5  21
HETATM   21  C   UNL     1       8.024  24.664  54.209  1.00  0.00     0.119 C 
BRANCH  21  22
HETATM   22  C   UNL     1       7.986  23.151  54.266  1.00  0.00    -0.045 A 
HETATM   23  C   UNL     1       8.200  22.376  53.113  1.00  0.00     0.050 A 
HETATM   24  C   UNL     1       8.178  20.984  53.186  1.00  0.00     0.119 A 
HETATM   25  F   UNL     1       8.366  20.263  52.073  1.00  0.00    -0.206 F 
HETATM   26  C   UNL     1       7.965  20.332  54.391  1.00  0.00     0.084 A 
HETATM   27  C   UNL     1       7.778  21.094  55.534  1.00  0.00     0.119 A 
HETATM   28  F   UNL     1       7.583  20.482  56.710  1.00  0.00    -0.206 F 
HETATM   29  C   UNL     1       7.788  22.489  55.487  1.00  0.00     0.050 A 
ENDBRANCH  21  22
ENDBRANCH   5  21
TORSDOF 4
ENDMDL
MODEL 7
REMARK VINA RESULT:      -9.7      3.506      8.727
REMARK  4 active torsions:
REMARK  status: ('A' for Active; 'I' for Inactive)
REMARK    1  A    between atoms: C_5  and  C_6 
REMARK       I    between atoms: C_6  and  N_7 
REMARK    2  A    between atoms: N_7  and  C_8 
REMARK    3  A    between atoms: C_12  and  C_13 
REMARK    4  A    between atoms: C_13  and  C_14 
ROOT
HETATM    1  C   UNL     1       7.611  26.365  55.327  1.00  0.00     0.747 A 
HETATM    2  N   UNL     1       7.390  27.231  54.333  1.00  0.00     0.020 NA
HETATM    3  N   UNL     1       7.092  28.353  55.010  1.00  0.00    -0.248 N 
HETATM    4  H   UNL     1       6.843  29.193  54.501  1.00  0.00     0.191 HD
HETATM    5  C   UNL     1       7.137  28.143  56.357  1.00  0.00     0.144 A 
HETATM    6  N   UNL     1       7.490  26.896  56.574  1.00  0.00    -0.046 NA
ENDROOT
BRANCH   1   7
HETATM    7  N   UNL     1       7.888  25.055  55.067  1.00  0.00    -0.150 N 
HETATM    8  C   UNL     1       6.982  24.141  54.591  1.00  0.00     0.271 C 
HETATM    9  O   UNL     1       5.792  24.323  54.365  1.00  0.00    -0.267 OA
HETATM   10  H   UNL     1       8.864  24.825  55.162  1.00  0.00     0.188 HD
BRANCH   8  11
HETATM   11  C   UNL     1       7.556  22.815  54.252  1.00  0.00     0.045 A 
HETATM   12  C   UNL     1       8.025  21.905  55.230  1.00  0.00     0.008 A 
HETATM   13  C   UNL     1       8.595  20.704  54.792  1.00  0.00     0.043 A 
HETATM   14  C   UNL     1       8.052  21.863  56.659  1.00  0.00     0.032 A 
HETATM   15  C   UNL     1       8.702  20.361  53.438  1.00  0.00     0.030 A 
HETATM   16  N   UNL     1       8.988  20.000  55.908  1.00  0.00    -0.365 N 
HETATM   17  C   UNL     1       8.201  21.259  52.493  1.00  0.00     0.003 A 
HETATM   18  C   UNL     1       7.635  22.466  52.891  1.00  0.00     0.018 A 
HETATM   19  H   UNL     1       9.434  19.093  55.885  1.00  0.00     0.165 HD
HETATM   20  C   UNL     1       8.661  20.690  57.042  1.00  0.00     0.089 A 
ENDBRANCH   8  11
ENDBRANCH   1   7
BRANCH   5  21
HETATM   21  C   UNL     1       6.765  29.170  57.368  1.00  0.00     0.119 C 
BRANCH  21  22
HETATM   22  C   UNL     1       7.940  30.011  57.820  1.00  0.00    -0.045 A 
HETATM   23  C   UNL     1       7.779  31.030  58.775  1.00  0.00     0.050 A 
HETATM   24  C   UNL     1       8.873  31.785  59.193  1.00  0.00     0.119 A 
HETATM   25  F   UNL     1       8.696  32.763  60.089  1.00  0.00    -0.206 F 
HETATM   26  C   UNL     1      10.145  31.538  58.697  1.00  0.00     0.084 A 
HETATM   27  C   UNL     1      10.312  30.517  57.773  1.00  0.00     0.119 A 
HETATM   28  F   UNL     1      11.534  30.257  57.292  1.00  0.00    -0.206 F 
HETATM   29  C   UNL     1       9.230  29.753  57.334  1.00  0.00     0.050 A 
ENDBRANCH  21  22
ENDBRANCH   5  21
TORSDOF 4
ENDMDL
MODEL 8
REMARK VINA RESULT:      -9.6      3.512      8.823
REMARK  4 active torsions:
REMARK  status: ('A' for Active; 'I' for Inactive)
REMARK    1  A    between atoms: C_5  and  C_6 
REMARK       I    between atoms: C_6  and  N_7 
REMARK    2  A    between atoms: N_7  and  C_8 
REMARK    3  A    between atoms: C_12  and  C_13 
REMARK    4  A    between atoms: C_13  and  C_14 
ROOT
HETATM    1  C   UNL     1       7.589  26.490  55.250  1.00  0.00     0.747 A 
HETATM    2  N   UNL     1       7.412  27.340  54.234  1.00  0.00     0.020 NA
HETATM    3  N   UNL     1       7.110  28.479  54.880  1.00  0.00    -0.248 N 
HETATM    4  H   UNL     1       6.891  29.313  54.347  1.00  0.00     0.191 HD
HETATM    5  C   UNL     1       7.110  28.295  56.231  1.00  0.00     0.144 A 
HETATM    6  N   UNL     1       7.437  27.047  56.483  1.00  0.00    -0.046 NA
ENDROOT
BRANCH   1   7
HETATM    7  N   UNL     1       7.853  25.171  55.024  1.00  0.00    -0.150 N 
HETATM    8  C   UNL     1       6.945  24.258  54.550  1.00  0.00     0.271 C 
HETATM    9  O   UNL     1       5.762  24.451  54.296  1.00  0.00    -0.267 OA
HETATM   10  H   UNL     1       8.824  24.931  55.144  1.00  0.00     0.188 HD
BRANCH   8  11
HETATM   11  C   UNL     1       7.509  22.918  54.251  1.00  0.00     0.045 A 
HETATM   12  C   UNL     1       7.955  22.028  55.258  1.00  0.00     0.008 A 
HETATM   13  C   UNL     1       8.517  20.810  54.857  1.00  0.00     0.043 A 
HETATM   14  C   UNL     1       7.963  22.021  56.687  1.00  0.00     0.032 A 
HETATM   15  C   UNL     1       8.636  20.432  53.513  1.00  0.00     0.030 A 
HETATM   16  N   UNL     1       8.887  20.130  55.995  1.00  0.00    -0.365 N 
HETATM   17  C   UNL     1       8.158  21.312  52.540  1.00  0.00     0.003 A 
HETATM   18  C   UNL     1       7.601  22.534  52.900  1.00  0.00     0.018 A 
HETATM   19  H   UNL     1       9.323  19.217  56.000  1.00  0.00     0.165 HD
HETATM   20  C   UNL     1       8.554  20.852  57.107  1.00  0.00     0.089 A 
ENDBRANCH   8  11
ENDBRANCH   1   7
BRANCH   5  21
HETATM   21  C   UNL     1       6.722  29.347  57.209  1.00  0.00     0.119 C 
BRANCH  21  22
HETATM   22  C   UNL     1       7.908  30.108  57.765  1.00  0.00    -0.045 A 
HETATM   23  C   UNL     1       9.211  29.865  57.296  1.00  0.00     0.050 A 
HETATM   24  C   UNL     1      10.289  30.586  57.806  1.00  0.00     0.119 A 
HETATM   25  F   UNL     1      11.524  30.327  57.361  1.00  0.00    -0.206 F 
HETATM   26  C   UNL     1      10.104  31.568  58.768  1.00  0.00     0.084 A 
HETATM   27  C   UNL     1       8.817  31.827  59.214  1.00  0.00     0.119 A 
HETATM   28  F   UNL     1       8.617  32.779  60.134  1.00  0.00    -0.206 F 
HETATM   29  C   UNL     1       7.722  31.114  58.724  1.00  0.00     0.050 A 
ENDBRANCH  21  22
ENDBRANCH   5  21
TORSDOF 4
ENDMDL
MODEL 9
REMARK VINA RESULT:      -9.5      1.291      2.289
REMARK  4 active torsions:
REMARK  status: ('A' for Active; 'I' for Inactive)
REMARK    1  A    between atoms: C_5  and  C_6 
REMARK       I    between atoms: C_6  and  N_7 
REMARK    2  A    between atoms: N_7  and  C_8 
REMARK    3  A    between atoms: C_12  and  C_13 
REMARK    4  A    between atoms: C_13  and  C_14 
ROOT
HETATM    1  C   UNL     1       6.566  26.821  56.413  1.00  0.00     0.747 A 
HETATM    2  N   UNL     1       5.304  26.382  56.459  1.00  0.00     0.020 NA
HETATM    3  N   UNL     1       5.298  25.468  55.474  1.00  0.00    -0.248 N 
HETATM    4  H   UNL     1       4.439  24.978  55.253  1.00  0.00     0.191 HD
HETATM    5  C   UNL     1       6.519  25.381  54.874  1.00  0.00     0.144 A 
HETATM    6  N   UNL     1       7.341  26.212  55.475  1.00  0.00    -0.046 NA
ENDROOT
BRANCH   1   7
HETATM    7  N   UNL     1       6.988  27.830  57.229  1.00  0.00    -0.150 N 
HETATM    8  C   UNL     1       7.569  28.996  56.799  1.00  0.00     0.271 C 
HETATM    9  O   UNL     1       7.843  29.308  55.646  1.00  0.00    -0.267 OA
HETATM   10  H   UNL     1       6.745  27.692  58.196  1.00  0.00     0.188 HD
BRANCH   8  11
HETATM   11  C   UNL     1       7.810  30.001  57.864  1.00  0.00     0.045 A 
HETATM   12  C   UNL     1       6.806  30.881  58.335  1.00  0.00     0.008 A 
HETATM   13  C   UNL     1       7.161  31.823  59.307  1.00  0.00     0.043 A 
HETATM   14  C   UNL     1       5.410  31.066  58.088  1.00  0.00     0.032 A 
HETATM   15  C   UNL     1       8.452  31.917  59.843  1.00  0.00     0.030 A 
HETATM   16  N   UNL     1       6.038  32.568  59.592  1.00  0.00    -0.365 N 
HETATM   17  C   UNL     1       9.417  31.015  59.388  1.00  0.00     0.003 A 
HETATM   18  C   UNL     1       9.103  30.071  58.416  1.00  0.00     0.018 A 
HETATM   19  H   UNL     1       6.008  33.325  60.262  1.00  0.00     0.165 HD
HETATM   20  C   UNL     1       4.974  32.117  58.863  1.00  0.00     0.089 A 
ENDBRANCH   8  11
ENDBRANCH   1   7
BRANCH   5  21
HETATM   21  C   UNL     1       6.800  24.524  53.690  1.00  0.00     0.119 C 
BRANCH  21  22
HETATM   22  C   UNL     1       7.293  23.141  54.061  1.00  0.00    -0.045 A 
HETATM   23  C   UNL     1       7.669  22.215  53.072  1.00  0.00     0.050 A 
HETATM   24  C   UNL     1       8.136  20.952  53.431  1.00  0.00     0.119 A 
HETATM   25  F   UNL     1       8.471  20.077  52.474  1.00  0.00    -0.206 F 
HETATM   26  C   UNL     1       8.260  20.584  54.763  1.00  0.00     0.084 A 
HETATM   27  C   UNL     1       7.913  21.504  55.740  1.00  0.00     0.119 A 
HETATM   28  F   UNL     1       8.037  21.172  57.032  1.00  0.00    -0.206 F 
HETATM   29  C   UNL     1       7.436  22.773  55.407  1.00  0.00     0.050 A 
ENDBRANCH  21  22
ENDBRANCH   5  21
TORSDOF 4
ENDMDL
MODEL 10
REMARK VINA RESULT:      -9.5      5.317      8.324
REMARK  4 active torsions:
REMARK  status: ('A' for Active; 'I' for Inactive)
REMARK    1  A    between atoms: C_5  and  C_6 
REMARK       I    between atoms: C_6  and  N_7 
REMARK    2  A    between atoms: N_7  and  C_8 
REMARK    3  A    between atoms: C_12  and  C_13 
REMARK    4  A    between atoms: C_13  and  C_14 
ROOT
HETATM    1  C   UNL     1       5.524  25.545  51.898  1.00  0.00     0.747 A 
HETATM    2  N   UNL     1       6.791  25.539  51.474  1.00  0.00     0.020 NA
HETATM    3  N   UNL     1       7.424  24.968  52.513  1.00  0.00    -0.248 N 
HETATM    4  H   UNL     1       8.431  24.856  52.485  1.00  0.00     0.191 HD
HETATM    5  C   UNL     1       6.549  24.654  53.511  1.00  0.00     0.144 A 
HETATM    6  N   UNL     1       5.338  24.988  53.126  1.00  0.00    -0.046 NA
ENDROOT
BRANCH   1   7
HETATM    7  N   UNL     1       4.535  26.114  51.148  1.00  0.00    -0.150 N 
HETATM    8  C   UNL     1       4.627  27.332  50.524  1.00  0.00     0.271 C 
HETATM    9  O   UNL     1       5.565  28.119  50.564  1.00  0.00    -0.267 OA
HETATM   10  H   UNL     1       3.744  25.508  51.004  1.00  0.00     0.188 HD
BRANCH   8  11
HETATM   11  C   UNL     1       3.476  27.670  49.650  1.00  0.00     0.045 A 
HETATM   12  C   UNL     1       3.108  26.893  48.525  1.00  0.00     0.008 A 
HETATM   13  C   UNL     1       2.036  27.337  47.742  1.00  0.00     0.043 A 
HETATM   14  C   UNL     1       3.551  25.666  47.940  1.00  0.00     0.032 A 
HETATM   15  C   UNL     1       1.306  28.496  48.035  1.00  0.00     0.030 A 
HETATM   16  N   UNL     1       1.878  26.439  46.709  1.00  0.00    -0.365 N 
HETATM   17  C   UNL     1       1.666  29.227  49.169  1.00  0.00     0.003 A 
HETATM   18  C   UNL     1       2.732  28.822  49.966  1.00  0.00     0.018 A 
HETATM   19  H   UNL     1       1.174  26.516  45.987  1.00  0.00     0.165 HD
HETATM   20  C   UNL     1       2.787  25.425  46.821  1.00  0.00     0.089 A 
ENDBRANCH   8  11
ENDBRANCH   1   7
BRANCH   5  21
HETATM   21  C   UNL     1       6.961  24.094  54.827  1.00  0.00     0.119 C 
BRANCH  21  22
HETATM   22  C   UNL     1       7.583  22.718  54.720  1.00  0.00    -0.045 A 
HETATM   23  C   UNL     1       7.647  22.044  53.488  1.00  0.00     0.050 A 
HETATM   24  C   UNL     1       8.238  20.785  53.403  1.00  0.00     0.119 A 
HETATM   25  F   UNL     1       8.273  20.151  52.224  1.00  0.00    -0.206 F 
HETATM   26  C   UNL     1       8.791  20.176  54.520  1.00  0.00     0.084 A 
HETATM   27  C   UNL     1       8.751  20.849  55.732  1.00  0.00     0.119 A 
HETATM   28  F   UNL     1       9.290  20.282  56.818  1.00  0.00    -0.206 F 
HETATM   29  C   UNL     1       8.159  22.107  55.843  1.00  0.00     0.050 A 
ENDBRANCH  21  22
ENDBRANCH   5  21
TORSDOF 4
ENDMDL
