MODEL 1
REMARK VINA RESULT:     -10.9      0.000      0.000
REMARK  7 active torsions:
REMARK  status: ('A' for Active; 'I' for Inactive)
REMARK    1  A    between atoms: C_2  and  C_3 
REMARK    2  A    between atoms: C_6  and  C_7 
REMARK    3  A    between atoms: C_10  and  C_11 
REMARK       I    between atoms: C_11  and  N_12 
REMARK    4  A    between atoms: N_12  and  C_13 
REMARK    5  A    between atoms: C_25  and  C_26 
REMARK       I    between atoms: C_26  and  N_27 
REMARK    6  A    between atoms: N_27  and  C_28 
REMARK    7  A    between atoms: C_31  and  O_32 
ROOT
HETATM    1  C   UNL     1       6.153  29.235  57.560  1.00  0.00     0.185 C 
HETATM    2  N   UNL     1       6.134  27.870  57.016  1.00  0.00    -0.239 N 
HETATM    3  C   UNL     1       7.160  27.317  56.288  1.00  0.00     0.142 A 
HETATM    4  C   UNL     1       6.704  26.074  55.887  1.00  0.00     0.097 A 
HETATM    5  C   UNL     1       5.449  25.946  56.541  1.00  0.00     0.160 A 
HETATM    6  N   UNL     1       5.106  27.027  57.246  1.00  0.00    -0.181 NA
HETATM    7  N   UNL     1       8.318  28.020  56.159  1.00  0.00    -0.343 N 
HETATM    8  C   UNL     1       8.564  29.185  56.904  1.00  0.00     0.021 C 
HETATM    9  C   UNL     1       9.991  29.681  56.869  1.00  0.00     0.069 C 
HETATM   10  C   UNL     1       7.569  29.787  57.607  1.00  0.00     0.061 C 
HETATM   11  H   UNL     1       9.177  27.528  55.907  1.00  0.00     0.167 HD
ENDROOT
BRANCH  10  12
HETATM   12  C   UNL     1       7.869  30.847  58.628  1.00  0.00     0.256 C 
HETATM   13  N   UNL     1       7.100  30.788  59.772  1.00  0.00    -0.323 N 
HETATM   14  H   UNL     1       6.325  30.140  59.800  1.00  0.00     0.169 HD
HETATM   15  O   UNL     1       8.785  31.636  58.422  1.00  0.00    -0.267 OA
BRANCH  13  16
HETATM   16  C   UNL     1       7.283  31.525  60.965  1.00  0.00     0.035 A 
HETATM   17  C   UNL     1       8.307  31.297  61.882  1.00  0.00     0.032 A 
HETATM   18  C   UNL     1       8.382  32.053  63.059  1.00  0.00     0.039 A 
HETATM   19  C   UNL     1       7.434  33.036  63.344  1.00  0.00     0.068 A 
HETATM   20  C   UNL     1       6.416  33.277  62.425  1.00  0.00     0.039 A 
HETATM   21  C   UNL     1       6.345  32.529  61.242  1.00  0.00     0.032 A 
BRANCH  19  22
HETATM   22  O   UNL     1       7.618  33.683  64.534  1.00  0.00    -0.356 OA
HETATM   23  C   UNL     1       6.513  33.706  65.429  1.00  0.00     0.210 C 
ENDBRANCH  19  22
ENDBRANCH  13  16
ENDBRANCH  10  12
BRANCH   1  24
HETATM   24  C   UNL     1       5.167  30.091  56.757  1.00  0.00    -0.029 A 
HETATM   25  C   UNL     1       4.228  30.881  57.441  1.00  0.00     0.010 A 
HETATM   26  C   UNL     1       3.292  31.647  56.745  1.00  0.00     0.007 A 
HETATM   27  C   UNL     1       3.271  31.647  55.346  1.00  0.00    -0.059 A 
HETATM   28  C   UNL     1       4.202  30.864  54.657  1.00  0.00     0.007 A 
HETATM   29  C   UNL     1       5.132  30.084  55.352  1.00  0.00     0.010 A 
BRANCH  27  30
HETATM   30  C   UNL     1       2.241  32.455  54.597  1.00  0.00     0.034 C 
HETATM   31  C   UNL     1       1.878  33.745  55.316  1.00  0.00     0.010 C 
ENDBRANCH  27  30
ENDBRANCH   1  24
BRANCH   4  32
HETATM   32  C   UNL     1       7.307  25.055  55.044  1.00  0.00     0.261 C 
HETATM   33  N   UNL     1       7.049  23.757  55.446  1.00  0.00    -0.323 N 
HETATM   34  H   UNL     1       6.517  23.654  56.299  1.00  0.00     0.169 HD
HETATM   35  O   UNL     1       8.002  25.386  54.089  1.00  0.00    -0.267 OA
BRANCH  33  36
HETATM   36  C   UNL     1       7.521  22.567  54.852  1.00  0.00     0.035 A 
HETATM   37  C   UNL     1       7.610  22.363  53.473  1.00  0.00     0.029 A 
HETATM   38  C   UNL     1       8.103  21.159  52.960  1.00  0.00     0.002 A 
HETATM   39  C   UNL     1       8.502  20.142  53.823  1.00  0.00     0.000 A 
HETATM   40  C   UNL     1       8.413  20.331  55.199  1.00  0.00     0.002 A 
HETATM   41  C   UNL     1       7.931  21.540  55.712  1.00  0.00     0.029 A 
ENDBRANCH  33  36
ENDBRANCH   4  32
TORSDOF 7
ENDMDL
MODEL 2
REMARK VINA RESULT:     -10.6      1.190      1.279
REMARK  7 active torsions:
REMARK  status: ('A' for Active; 'I' for Inactive)
REMARK    1  A    between atoms: C_2  and  C_3 
REMARK    2  A    between atoms: C_6  and  C_7 
REMARK    3  A    between atoms: C_10  and  C_11 
REMARK       I    between atoms: C_11  and  N_12 
REMARK    4  A    between atoms: N_12  and  C_13 
REMARK    5  A    between atoms: C_25  and  C_26 
REMARK       I    between atoms: C_26  and  N_27 
REMARK    6  A    between atoms: N_27  and  C_28 
REMARK    7  A    between atoms: C_31  and  O_32 
ROOT
HETATM    1  C   UNL     1       6.026  30.261  57.940  1.00  0.00     0.185 C 
HETATM    2  N   UNL     1       6.017  28.969  57.238  1.00  0.00    -0.239 N 
HETATM    3  C   UNL     1       7.098  28.449  56.569  1.00  0.00     0.142 A 
HETATM    4  C   UNL     1       6.644  27.286  55.975  1.00  0.00     0.097 A 
HETATM    5  C   UNL     1       5.317  27.151  56.464  1.00  0.00     0.160 A 
HETATM    6  N   UNL     1       4.936  28.161  57.249  1.00  0.00    -0.181 NA
HETATM    7  N   UNL     1       8.291  29.100  56.655  1.00  0.00    -0.343 N 
HETATM    8  C   UNL     1       8.494  30.158  57.556  1.00  0.00     0.021 C 
HETATM    9  C   UNL     1       9.934  30.578  57.741  1.00  0.00     0.069 C 
HETATM   10  C   UNL     1       7.448  30.728  58.211  1.00  0.00     0.061 C 
HETATM   11  H   UNL     1       9.153  28.594  56.444  1.00  0.00     0.167 HD
ENDROOT
BRANCH  10  12
HETATM   12  C   UNL     1       7.668  31.647  59.377  1.00  0.00     0.256 C 
HETATM   13  N   UNL     1       6.831  31.433  60.453  1.00  0.00    -0.323 N 
HETATM   14  H   UNL     1       6.065  30.781  60.348  1.00  0.00     0.169 HD
HETATM   15  O   UNL     1       8.582  32.463  59.333  1.00  0.00    -0.267 OA
BRANCH  13  16
HETATM   16  C   UNL     1       6.928  32.009  61.741  1.00  0.00     0.035 A 
HETATM   17  C   UNL     1       8.121  32.172  62.443  1.00  0.00     0.032 A 
HETATM   18  C   UNL     1       8.113  32.716  63.734  1.00  0.00     0.039 A 
HETATM   19  C   UNL     1       6.919  33.094  64.347  1.00  0.00     0.068 A 
HETATM   20  C   UNL     1       5.724  32.945  63.646  1.00  0.00     0.039 A 
HETATM   21  C   UNL     1       5.732  32.411  62.349  1.00  0.00     0.032 A 
BRANCH  19  22
HETATM   22  O   UNL     1       7.055  33.592  65.612  1.00  0.00    -0.356 OA
HETATM   23  C   UNL     1       5.888  34.136  66.216  1.00  0.00     0.210 C 
ENDBRANCH  19  22
ENDBRANCH  13  16
ENDBRANCH  10  12
BRANCH   1  24
HETATM   24  C   UNL     1       5.176  31.253  57.139  1.00  0.00    -0.029 A 
HETATM   25  C   UNL     1       4.294  32.107  57.821  1.00  0.00     0.010 A 
HETATM   26  C   UNL     1       3.478  33.001  57.125  1.00  0.00     0.007 A 
HETATM   27  C   UNL     1       3.525  33.068  55.728  1.00  0.00    -0.059 A 
HETATM   28  C   UNL     1       4.401  32.222  55.041  1.00  0.00     0.007 A 
HETATM   29  C   UNL     1       5.208  31.315  55.735  1.00  0.00     0.010 A 
BRANCH  27  30
HETATM   30  C   UNL     1       2.624  34.015  54.976  1.00  0.00     0.034 C 
HETATM   31  C   UNL     1       1.203  33.487  54.848  1.00  0.00     0.010 C 
ENDBRANCH  27  30
ENDBRANCH   1  24
BRANCH   4  32
HETATM   32  C   UNL     1       7.300  26.339  55.088  1.00  0.00     0.261 C 
HETATM   33  N   UNL     1       7.148  25.014  55.456  1.00  0.00    -0.323 N 
HETATM   34  H   UNL     1       6.644  24.848  56.316  1.00  0.00     0.169 HD
HETATM   35  O   UNL     1       7.948  26.747  54.130  1.00  0.00    -0.267 OA
BRANCH  33  36
HETATM   36  C   UNL     1       7.692  23.879  54.817  1.00  0.00     0.035 A 
HETATM   37  C   UNL     1       7.234  23.374  53.598  1.00  0.00     0.029 A 
HETATM   38  C   UNL     1       7.835  22.252  53.020  1.00  0.00     0.002 A 
HETATM   39  C   UNL     1       8.895  21.617  53.661  1.00  0.00     0.000 A 
HETATM   40  C   UNL     1       9.357  22.108  54.879  1.00  0.00     0.002 A 
HETATM   41  C   UNL     1       8.763  23.237  55.451  1.00  0.00     0.029 A 
ENDBRANCH  33  36
ENDBRANCH   4  32
TORSDOF 7
ENDMDL
MODEL 3
REMARK VINA RESULT:     -10.3      3.110      5.837
REMARK  7 active torsions:
REMARK  status: ('A' for Active; 'I' for Inactive)
REMARK    1  A    between atoms: C_2  and  C_3 
REMARK    2  A    between atoms: C_6  and  C_7 
REMARK    3  A    between atoms: C_10  and  C_11 
REMARK       I    between atoms: C_11  and  N_12 
REMARK    4  A    between atoms: N_12  and  C_13 
REMARK    5  A    between atoms: C_25  and  C_26 
REMARK       I    between atoms: C_26  and  N_27 
REMARK    6  A    between atoms: N_27  and  C_28 
REMARK    7  A    between atoms: C_31  and  O_32 
ROOT
HETATM    1  C   UNL     1       6.936  31.811  58.476  1.00  0.00     0.185 C 
HETATM    2  N   UNL     1       7.569  30.549  58.071  1.00  0.00    -0.239 N 
HETATM    3  C   UNL     1       6.877  29.399  57.776  1.00  0.00     0.142 A 
HETATM    4  C   UNL     1       7.839  28.433  57.545  1.00  0.00     0.097 A 
HETATM    5  C   UNL     1       9.062  29.152  57.604  1.00  0.00     0.160 A 
HETATM    6  N   UNL     1       8.904  30.444  57.903  1.00  0.00    -0.181 NA
HETATM    7  N   UNL     1       5.517  29.452  57.735  1.00  0.00    -0.343 N 
HETATM    8  C   UNL     1       4.821  30.671  57.785  1.00  0.00     0.021 C 
HETATM    9  C   UNL     1       3.353  30.588  57.438  1.00  0.00     0.069 C 
HETATM   10  C   UNL     1       5.459  31.826  58.110  1.00  0.00     0.061 C 
HETATM   11  H   UNL     1       5.003  28.728  57.230  1.00  0.00     0.167 HD
ENDROOT
BRANCH  10  12
HETATM   12  C   UNL     1       4.812  33.162  57.887  1.00  0.00     0.256 C 
HETATM   13  N   UNL     1       3.868  33.517  58.829  1.00  0.00    -0.323 N 
HETATM   14  H   UNL     1       3.588  32.829  59.515  1.00  0.00     0.169 HD
HETATM   15  O   UNL     1       5.186  33.861  56.951  1.00  0.00    -0.267 OA
BRANCH  13  16
HETATM   16  C   UNL     1       3.243  34.775  58.982  1.00  0.00     0.035 A 
HETATM   17  C   UNL     1       2.218  35.250  58.167  1.00  0.00     0.032 A 
HETATM   18  C   UNL     1       1.687  36.531  58.371  1.00  0.00     0.039 A 
HETATM   19  C   UNL     1       2.178  37.359  59.379  1.00  0.00     0.068 A 
HETATM   20  C   UNL     1       3.194  36.886  60.206  1.00  0.00     0.039 A 
HETATM   21  C   UNL     1       3.718  35.600  60.010  1.00  0.00     0.032 A 
BRANCH  19  22
HETATM   22  O   UNL     1       1.583  38.587  59.454  1.00  0.00    -0.356 OA
HETATM   23  C   UNL     1       2.267  39.587  60.199  1.00  0.00     0.210 C 
ENDBRANCH  19  22
ENDBRANCH  13  16
ENDBRANCH  10  12
BRANCH   1  24
HETATM   24  C   UNL     1       7.221  32.041  59.964  1.00  0.00    -0.029 A 
HETATM   25  C   UNL     1       6.144  32.171  60.857  1.00  0.00     0.010 A 
HETATM   26  C   UNL     1       6.363  32.415  62.214  1.00  0.00     0.007 A 
HETATM   27  C   UNL     1       7.664  32.532  62.716  1.00  0.00    -0.059 A 
HETATM   28  C   UNL     1       8.741  32.404  61.834  1.00  0.00     0.007 A 
HETATM   29  C   UNL     1       8.525  32.175  60.471  1.00  0.00     0.010 A 
BRANCH  27  30
HETATM   30  C   UNL     1       7.897  32.823  64.177  1.00  0.00     0.034 C 
HETATM   31  C   UNL     1       6.966  33.901  64.711  1.00  0.00     0.010 C 
ENDBRANCH  27  30
ENDBRANCH   1  24
BRANCH   4  32
HETATM   32  C   UNL     1       7.726  27.013  57.257  1.00  0.00     0.261 C 
HETATM   33  N   UNL     1       7.791  26.697  55.912  1.00  0.00    -0.323 N 
HETATM   34  H   UNL     1       7.861  27.479  55.275  1.00  0.00     0.169 HD
HETATM   35  O   UNL     1       7.555  26.215  58.173  1.00  0.00    -0.267 OA
BRANCH  33  36
HETATM   36  C   UNL     1       7.679  25.418  55.325  1.00  0.00     0.035 A 
HETATM   37  C   UNL     1       8.345  24.283  55.793  1.00  0.00     0.029 A 
HETATM   38  C   UNL     1       8.172  23.045  55.165  1.00  0.00     0.002 A 
HETATM   39  C   UNL     1       7.338  22.933  54.057  1.00  0.00     0.000 A 
HETATM   40  C   UNL     1       6.673  24.058  53.578  1.00  0.00     0.002 A 
HETATM   41  C   UNL     1       6.837  25.294  54.213  1.00  0.00     0.029 A 
ENDBRANCH  33  36
ENDBRANCH   4  32
TORSDOF 7
ENDMDL
MODEL 4
REMARK VINA RESULT:     -10.3      4.610      8.046
REMARK  7 active torsions:
REMARK  status: ('A' for Active; 'I' for Inactive)
REMARK    1  A    between atoms: C_2  and  C_3 
REMARK    2  A    between atoms: C_6  and  C_7 
REMARK    3  A    between atoms: C_10  and  C_11 
REMARK       I    between atoms: C_11  and  N_12 
REMARK    4  A    between atoms: N_12  and  C_13 
REMARK    5  A    between atoms: C_25  and  C_26 
REMARK       I    between atoms: C_26  and  N_27 
REMARK    6  A    between atoms: N_27  and  C_28 
REMARK    7  A    between atoms: C_31  and  O_32 
ROOT
HETATM    1  C   UNL     1       6.566  27.525  53.429  1.00  0.00     0.185 C 
HETATM    2  N   UNL     1       5.779  27.859  52.233  1.00  0.00    -0.239 N 
HETATM    3  C   UNL     1       4.436  28.151  52.252  1.00  0.00     0.142 A 
HETATM    4  C   UNL     1       4.069  28.303  50.928  1.00  0.00     0.097 A 
HETATM    5  C   UNL     1       5.298  28.206  50.222  1.00  0.00     0.160 A 
HETATM    6  N   UNL     1       6.345  27.956  51.012  1.00  0.00    -0.181 NA
HETATM    7  N   UNL     1       3.812  28.260  53.457  1.00  0.00    -0.343 N 
HETATM    8  C   UNL     1       4.530  28.284  54.664  1.00  0.00     0.021 C 
HETATM    9  C   UNL     1       3.733  28.701  55.879  1.00  0.00     0.069 C 
HETATM   10  C   UNL     1       5.851  27.965  54.697  1.00  0.00     0.061 C 
HETATM   11  H   UNL     1       2.928  28.768  53.518  1.00  0.00     0.167 HD
ENDROOT
BRANCH  10  12
HETATM   12  C   UNL     1       6.693  28.261  55.903  1.00  0.00     0.256 C 
HETATM   13  N   UNL     1       7.282  29.509  55.911  1.00  0.00    -0.323 N 
HETATM   14  H   UNL     1       7.218  30.078  55.078  1.00  0.00     0.169 HD
HETATM   15  O   UNL     1       6.759  27.433  56.807  1.00  0.00    -0.267 OA
BRANCH  13  16
HETATM   16  C   UNL     1       7.963  30.127  56.985  1.00  0.00     0.035 A 
HETATM   17  C   UNL     1       7.337  30.804  58.029  1.00  0.00     0.032 A 
HETATM   18  C   UNL     1       8.100  31.422  59.029  1.00  0.00     0.039 A 
HETATM   19  C   UNL     1       9.494  31.385  58.996  1.00  0.00     0.068 A 
HETATM   20  C   UNL     1      10.125  30.698  57.961  1.00  0.00     0.039 A 
HETATM   21  C   UNL     1       9.363  30.070  56.966  1.00  0.00     0.032 A 
BRANCH  19  22
HETATM   22  O   UNL     1      10.111  32.044  60.022  1.00  0.00    -0.356 OA
HETATM   23  C   UNL     1       9.521  31.922  61.310  1.00  0.00     0.210 C 
ENDBRANCH  19  22
ENDBRANCH  13  16
ENDBRANCH  10  12
BRANCH   1  24
HETATM   24  C   UNL     1       6.912  26.033  53.381  1.00  0.00    -0.029 A 
HETATM   25  C   UNL     1       7.784  25.562  52.386  1.00  0.00     0.010 A 
HETATM   26  C   UNL     1       8.095  24.205  52.289  1.00  0.00     0.007 A 
HETATM   27  C   UNL     1       7.547  23.282  53.187  1.00  0.00    -0.059 A 
HETATM   28  C   UNL     1       6.679  23.743  54.181  1.00  0.00     0.007 A 
HETATM   29  C   UNL     1       6.352  25.100  54.272  1.00  0.00     0.010 A 
BRANCH  27  30
HETATM   30  C   UNL     1       7.864  21.813  53.064  1.00  0.00     0.034 C 
HETATM   31  C   UNL     1       7.794  21.090  54.400  1.00  0.00     0.010 C 
ENDBRANCH  27  30
ENDBRANCH   1  24
BRANCH   4  32
HETATM   32  C   UNL     1       2.777  28.552  50.311  1.00  0.00     0.261 C 
HETATM   33  N   UNL     1       2.758  28.379  48.939  1.00  0.00    -0.323 N 
HETATM   34  H   UNL     1       3.642  28.147  48.508  1.00  0.00     0.169 HD
HETATM   35  O   UNL     1       1.830  28.916  51.001  1.00  0.00    -0.267 OA
BRANCH  33  36
HETATM   36  C   UNL     1       1.667  28.577  48.065  1.00  0.00     0.035 A 
HETATM   37  C   UNL     1       1.127  29.829  47.761  1.00  0.00     0.029 A 
HETATM   38  C   UNL     1       0.053  29.946  46.872  1.00  0.00     0.002 A 
HETATM   39  C   UNL     1      -0.497  28.810  46.286  1.00  0.00     0.000 A 
HETATM   40  C   UNL     1       0.030  27.557  46.584  1.00  0.00     0.002 A 
HETATM   41  C   UNL     1       1.111  27.441  47.465  1.00  0.00     0.029 A 
ENDBRANCH  33  36
ENDBRANCH   4  32
TORSDOF 7
ENDMDL
MODEL 5
REMARK VINA RESULT:     -10.2      1.622      2.384
REMARK  7 active torsions:
REMARK  status: ('A' for Active; 'I' for Inactive)
REMARK    1  A    between atoms: C_2  and  C_3 
REMARK    2  A    between atoms: C_6  and  C_7 
REMARK    3  A    between atoms: C_10  and  C_11 
REMARK       I    between atoms: C_11  and  N_12 
REMARK    4  A    between atoms: N_12  and  C_13 
REMARK    5  A    between atoms: C_25  and  C_26 
REMARK       I    between atoms: C_26  and  N_27 
REMARK    6  A    between atoms: N_27  and  C_28 
REMARK    7  A    between atoms: C_31  and  O_32 
ROOT
HETATM    1  C   UNL     1       5.192  29.206  57.094  1.00  0.00     0.185 C 
HETATM    2  N   UNL     1       5.483  27.768  57.007  1.00  0.00    -0.239 N 
HETATM    3  C   UNL     1       6.751  27.242  56.939  1.00  0.00     0.142 A 
HETATM    4  C   UNL     1       6.581  25.880  56.769  1.00  0.00     0.097 A 
HETATM    5  C   UNL     1       5.176  25.698  56.878  1.00  0.00     0.160 A 
HETATM    6  N   UNL     1       4.504  26.840  57.044  1.00  0.00    -0.181 NA
HETATM    7  N   UNL     1       7.812  28.082  57.082  1.00  0.00    -0.343 N 
HETATM    8  C   UNL     1       7.651  29.416  57.492  1.00  0.00     0.021 C 
HETATM    9  C   UNL     1       8.926  30.127  57.884  1.00  0.00     0.069 C 
HETATM   10  C   UNL     1       6.420  29.988  57.537  1.00  0.00     0.061 C 
HETATM   11  H   UNL     1       8.722  27.699  57.345  1.00  0.00     0.167 HD
ENDROOT
BRANCH  10  12
HETATM   12  C   UNL     1       6.194  31.296  58.239  1.00  0.00     0.256 C 
HETATM   13  N   UNL     1       5.954  31.197  59.594  1.00  0.00    -0.323 N 
HETATM   14  H   UNL     1       5.823  30.278  59.995  1.00  0.00     0.169 HD
HETATM   15  O   UNL     1       6.293  32.342  57.604  1.00  0.00    -0.267 OA
BRANCH  13  16
HETATM   16  C   UNL     1       5.896  32.253  60.532  1.00  0.00     0.035 A 
HETATM   17  C   UNL     1       4.788  33.076  60.725  1.00  0.00     0.032 A 
HETATM   18  C   UNL     1       4.839  34.125  61.652  1.00  0.00     0.039 A 
HETATM   19  C   UNL     1       5.996  34.376  62.389  1.00  0.00     0.068 A 
HETATM   20  C   UNL     1       7.103  33.550  62.210  1.00  0.00     0.039 A 
HETATM   21  C   UNL     1       7.049  32.492  61.291  1.00  0.00     0.032 A 
BRANCH  19  22
HETATM   22  O   UNL     1       5.913  35.441  63.242  1.00  0.00    -0.356 OA
HETATM   23  C   UNL     1       5.764  36.726  62.652  1.00  0.00     0.210 C 
ENDBRANCH  19  22
ENDBRANCH  13  16
ENDBRANCH  10  12
BRANCH   1  24
HETATM   24  C   UNL     1       4.600  29.662  55.756  1.00  0.00    -0.029 A 
HETATM   25  C   UNL     1       5.100  29.117  54.563  1.00  0.00     0.010 A 
HETATM   26  C   UNL     1       4.610  29.532  53.323  1.00  0.00     0.007 A 
HETATM   27  C   UNL     1       3.604  30.501  53.243  1.00  0.00    -0.059 A 
HETATM   28  C   UNL     1       3.100  31.049  54.427  1.00  0.00     0.007 A 
HETATM   29  C   UNL     1       3.599  30.646  55.670  1.00  0.00     0.010 A 
BRANCH  27  30
HETATM   30  C   UNL     1       3.095  30.967  51.903  1.00  0.00     0.034 C 
HETATM   31  C   UNL     1       4.186  30.989  50.843  1.00  0.00     0.010 C 
ENDBRANCH  27  30
ENDBRANCH   1  24
BRANCH   4  32
HETATM   32  C   UNL     1       7.541  24.808  56.567  1.00  0.00     0.261 C 
HETATM   33  N   UNL     1       7.033  23.703  55.909  1.00  0.00    -0.323 N 
HETATM   34  H   UNL     1       6.048  23.736  55.683  1.00  0.00     0.169 HD
HETATM   35  O   UNL     1       8.684  24.923  56.999  1.00  0.00    -0.267 OA
BRANCH  33  36
HETATM   36  C   UNL     1       7.708  22.503  55.600  1.00  0.00     0.035 A 
HETATM   37  C   UNL     1       8.284  21.662  56.556  1.00  0.00     0.029 A 
HETATM   38  C   UNL     1       8.925  20.480  56.173  1.00  0.00     0.002 A 
HETATM   39  C   UNL     1       9.006  20.132  54.827  1.00  0.00     0.000 A 
HETATM   40  C   UNL     1       8.441  20.964  53.865  1.00  0.00     0.002 A 
HETATM   41  C   UNL     1       7.789  22.141  54.250  1.00  0.00     0.029 A 
ENDBRANCH  33  36
ENDBRANCH   4  32
TORSDOF 7
ENDMDL
MODEL 6
REMARK VINA RESULT:      -9.7      6.005     10.831
REMARK  7 active torsions:
REMARK  status: ('A' for Active; 'I' for Inactive)
REMARK    1  A    between atoms: C_2  and  C_3 
REMARK    2  A    between atoms: C_6  and  C_7 
REMARK    3  A    between atoms: C_10  and  C_11 
REMARK       I    between atoms: C_11  and  N_12 
REMARK    4  A    between atoms: N_12  and  C_13 
REMARK    5  A    between atoms: C_25  and  C_26 
REMARK       I    between atoms: C_26  and  N_27 
REMARK    6  A    between atoms: N_27  and  C_28 
REMARK    7  A    between atoms: C_31  and  O_32 
ROOT
HETATM    1  C   UNL     1       5.338  28.078  50.371  1.00  0.00     0.185 C 
HETATM    2  N   UNL     1       5.527  29.535  50.367  1.00  0.00    -0.239 N 
HETATM    3  C   UNL     1       5.133  30.366  51.388  1.00  0.00     0.142 A 
HETATM    4  C   UNL     1       5.399  31.649  50.949  1.00  0.00     0.097 A 
HETATM    5  C   UNL     1       6.065  31.452  49.709  1.00  0.00     0.160 A 
HETATM    6  N   UNL     1       6.164  30.167  49.359  1.00  0.00    -0.181 NA
HETATM    7  N   UNL     1       4.648  29.806  52.531  1.00  0.00    -0.343 N 
HETATM    8  C   UNL     1       4.727  28.424  52.770  1.00  0.00     0.021 C 
HETATM    9  C   UNL     1       4.418  27.998  54.186  1.00  0.00     0.069 C 
HETATM   10  C   UNL     1       5.074  27.563  51.777  1.00  0.00     0.061 C 
HETATM   11  H   UNL     1       4.645  30.352  53.393  1.00  0.00     0.167 HD
ENDROOT
BRANCH  10  12
HETATM   12  C   UNL     1       5.443  26.139  52.077  1.00  0.00     0.256 C 
HETATM   13  N   UNL     1       6.635  25.974  52.751  1.00  0.00    -0.323 N 
HETATM   14  H   UNL     1       7.229  26.782  52.885  1.00  0.00     0.169 HD
HETATM   15  O   UNL     1       4.664  25.241  51.771  1.00  0.00    -0.267 OA
BRANCH  13  16
HETATM   16  C   UNL     1       7.137  24.784  53.325  1.00  0.00     0.035 A 
HETATM   17  C   UNL     1       7.892  23.835  52.638  1.00  0.00     0.032 A 
HETATM   18  C   UNL     1       8.312  22.664  53.281  1.00  0.00     0.039 A 
HETATM   19  C   UNL     1       7.975  22.416  54.612  1.00  0.00     0.068 A 
HETATM   20  C   UNL     1       7.232  23.365  55.308  1.00  0.00     0.039 A 
HETATM   21  C   UNL     1       6.821  24.544  54.668  1.00  0.00     0.032 A 
BRANCH  19  22
HETATM   22  O   UNL     1       8.433  21.227  55.108  1.00  0.00    -0.356 OA
HETATM   23  C   UNL     1       8.360  21.049  56.517  1.00  0.00     0.210 C 
ENDBRANCH  19  22
ENDBRANCH  13  16
ENDBRANCH  10  12
BRANCH   1  24
HETATM   24  C   UNL     1       4.246  27.727  49.353  1.00  0.00    -0.029 A 
HETATM   25  C   UNL     1       2.971  28.301  49.491  1.00  0.00     0.010 A 
HETATM   26  C   UNL     1       1.942  27.980  48.605  1.00  0.00     0.007 A 
HETATM   27  C   UNL     1       2.159  27.081  47.555  1.00  0.00    -0.059 A 
HETATM   28  C   UNL     1       3.426  26.506  47.410  1.00  0.00     0.007 A 
HETATM   29  C   UNL     1       4.456  26.814  48.306  1.00  0.00     0.010 A 
BRANCH  27  30
HETATM   30  C   UNL     1       1.038  26.716  46.615  1.00  0.00     0.034 C 
HETATM   31  C   UNL     1       0.108  27.887  46.338  1.00  0.00     0.010 C 
ENDBRANCH  27  30
ENDBRANCH   1  24
BRANCH   4  32
HETATM   32  C   UNL     1       5.142  32.946  51.553  1.00  0.00     0.261 C 
HETATM   33  N   UNL     1       6.173  33.856  51.410  1.00  0.00    -0.323 N 
HETATM   34  H   UNL     1       7.005  33.516  50.948  1.00  0.00     0.169 HD
HETATM   35  O   UNL     1       4.091  33.141  52.156  1.00  0.00    -0.267 OA
BRANCH  33  36
HETATM   36  C   UNL     1       6.229  35.174  51.913  1.00  0.00     0.035 A 
HETATM   37  C   UNL     1       5.608  36.269  51.308  1.00  0.00     0.029 A 
HETATM   38  C   UNL     1       5.697  37.543  51.877  1.00  0.00     0.002 A 
HETATM   39  C   UNL     1       6.418  37.737  53.052  1.00  0.00     0.000 A 
HETATM   40  C   UNL     1       7.046  36.655  53.661  1.00  0.00     0.002 A 
HETATM   41  C   UNL     1       6.947  35.378  53.098  1.00  0.00     0.029 A 
ENDBRANCH  33  36
ENDBRANCH   4  32
TORSDOF 7
ENDMDL
MODEL 7
REMARK VINA RESULT:      -9.6      4.125     10.426
REMARK  7 active torsions:
REMARK  status: ('A' for Active; 'I' for Inactive)
REMARK    1  A    between atoms: C_2  and  C_3 
REMARK    2  A    between atoms: C_6  and  C_7 
REMARK    3  A    between atoms: C_10  and  C_11 
REMARK       I    between atoms: C_11  and  N_12 
REMARK    4  A    between atoms: N_12  and  C_13 
REMARK    5  A    between atoms: C_25  and  C_26 
REMARK       I    between atoms: C_26  and  N_27 
REMARK    6  A    between atoms: N_27  and  C_28 
REMARK    7  A    between atoms: C_31  and  O_32 
ROOT
HETATM    1  C   UNL     1       5.050  28.028  55.348  1.00  0.00     0.185 C 
HETATM    2  N   UNL     1       4.209  29.227  55.483  1.00  0.00    -0.239 N 
HETATM    3  C   UNL     1       3.768  29.981  54.423  1.00  0.00     0.142 A 
HETATM    4  C   UNL     1       3.105  31.058  54.982  1.00  0.00     0.097 A 
HETATM    5  C   UNL     1       3.105  30.771  56.373  1.00  0.00     0.160 A 
HETATM    6  N   UNL     1       3.758  29.648  56.683  1.00  0.00    -0.181 NA
HETATM    7  N   UNL     1       4.015  29.535  53.160  1.00  0.00    -0.343 N 
HETATM    8  C   UNL     1       4.520  28.248  52.915  1.00  0.00     0.021 C 
HETATM    9  C   UNL     1       4.464  27.799  51.473  1.00  0.00     0.069 C 
HETATM   10  C   UNL     1       5.002  27.483  53.929  1.00  0.00     0.061 C 
HETATM   11  H   UNL     1       3.450  29.888  52.386  1.00  0.00     0.167 HD
ENDROOT
BRANCH  10  12
HETATM   12  C   UNL     1       5.272  26.018  53.738  1.00  0.00     0.256 C 
HETATM   13  N   UNL     1       6.553  25.615  54.053  1.00  0.00    -0.323 N 
HETATM   14  H   UNL     1       7.244  26.323  54.263  1.00  0.00     0.169 HD
HETATM   15  O   UNL     1       4.356  25.281  53.386  1.00  0.00    -0.267 OA
BRANCH  13  16
HETATM   16  C   UNL     1       7.033  24.289  54.152  1.00  0.00     0.035 A 
HETATM   17  C   UNL     1       7.157  23.582  55.346  1.00  0.00     0.032 A 
HETATM   18  C   UNL     1       7.683  22.284  55.349  1.00  0.00     0.039 A 
HETATM   19  C   UNL     1       8.104  21.678  54.166  1.00  0.00     0.068 A 
HETATM   20  C   UNL     1       7.972  22.373  52.967  1.00  0.00     0.039 A 
HETATM   21  C   UNL     1       7.435  23.669  52.961  1.00  0.00     0.032 A 
BRANCH  19  22
HETATM   22  O   UNL     1       8.614  20.418  54.316  1.00  0.00    -0.356 OA
HETATM   23  C   UNL     1       8.779  19.947  55.648  1.00  0.00     0.210 C 
ENDBRANCH  19  22
ENDBRANCH  13  16
ENDBRANCH  10  12
BRANCH   1  24
HETATM   24  C   UNL     1       6.458  28.365  55.850  1.00  0.00    -0.029 A 
HETATM   25  C   UNL     1       7.422  28.818  54.935  1.00  0.00     0.010 A 
HETATM   26  C   UNL     1       8.725  29.102  55.348  1.00  0.00     0.007 A 
HETATM   27  C   UNL     1       9.098  28.944  56.688  1.00  0.00    -0.059 A 
HETATM   28  C   UNL     1       8.145  28.493  57.605  1.00  0.00     0.007 A 
HETATM   29  C   UNL     1       6.842  28.194  57.192  1.00  0.00     0.010 A 
BRANCH  27  30
HETATM   30  C   UNL     1      10.514  29.226  57.126  1.00  0.00     0.034 C 
HETATM   31  C   UNL     1      10.714  30.674  57.546  1.00  0.00     0.010 C 
ENDBRANCH  27  30
ENDBRANCH   1  24
BRANCH   4  32
HETATM   32  C   UNL     1       2.482  32.224  54.377  1.00  0.00     0.261 C 
HETATM   33  N   UNL     1       1.875  33.078  55.279  1.00  0.00    -0.323 N 
HETATM   34  H   UNL     1       1.886  32.783  56.246  1.00  0.00     0.169 HD
HETATM   35  O   UNL     1       2.500  32.362  53.159  1.00  0.00    -0.267 OA
BRANCH  33  36
HETATM   36  C   UNL     1       1.166  34.265  54.993  1.00  0.00     0.035 A 
HETATM   37  C   UNL     1      -0.225  34.340  54.895  1.00  0.00     0.029 A 
HETATM   38  C   UNL     1      -0.856  35.558  54.621  1.00  0.00     0.002 A 
HETATM   39  C   UNL     1      -0.101  36.711  54.434  1.00  0.00     0.000 A 
HETATM   40  C   UNL     1       1.287  36.648  54.524  1.00  0.00     0.002 A 
HETATM   41  C   UNL     1       1.917  35.432  54.808  1.00  0.00     0.029 A 
ENDBRANCH  33  36
ENDBRANCH   4  32
TORSDOF 7
ENDMDL
MODEL 8
REMARK VINA RESULT:      -9.5      2.815      6.461
REMARK  7 active torsions:
REMARK  status: ('A' for Active; 'I' for Inactive)
REMARK    1  A    between atoms: C_2  and  C_3 
REMARK    2  A    between atoms: C_6  and  C_7 
REMARK    3  A    between atoms: C_10  and  C_11 
REMARK       I    between atoms: C_11  and  N_12 
REMARK    4  A    between atoms: N_12  and  C_13 
REMARK    5  A    between atoms: C_25  and  C_26 
REMARK       I    between atoms: C_26  and  N_27 
REMARK    6  A    between atoms: N_27  and  C_28 
REMARK    7  A    between atoms: C_31  and  O_32 
ROOT
HETATM    1  C   UNL     1       6.953  31.741  58.438  1.00  0.00     0.185 C 
HETATM    2  N   UNL     1       7.595  30.473  58.064  1.00  0.00    -0.239 N 
HETATM    3  C   UNL     1       6.909  29.315  57.789  1.00  0.00     0.142 A 
HETATM    4  C   UNL     1       7.877  28.348  57.585  1.00  0.00     0.097 A 
HETATM    5  C   UNL     1       9.097  29.074  57.638  1.00  0.00     0.160 A 
HETATM    6  N   UNL     1       8.932  30.371  57.909  1.00  0.00    -0.181 NA
HETATM    7  N   UNL     1       5.550  29.361  57.737  1.00  0.00    -0.343 N 
HETATM    8  C   UNL     1       4.848  30.578  57.755  1.00  0.00     0.021 C 
HETATM    9  C   UNL     1       3.383  30.481  57.399  1.00  0.00     0.069 C 
HETATM   10  C   UNL     1       5.479  31.742  58.061  1.00  0.00     0.061 C 
HETATM   11  H   UNL     1       5.042  28.625  57.243  1.00  0.00     0.167 HD
ENDROOT
BRANCH  10  12
HETATM   12  C   UNL     1       4.828  33.070  57.805  1.00  0.00     0.256 C 
HETATM   13  N   UNL     1       5.060  33.603  56.554  1.00  0.00    -0.323 N 
HETATM   14  H   UNL     1       5.733  33.147  55.952  1.00  0.00     0.169 HD
HETATM   15  O   UNL     1       4.105  33.559  58.668  1.00  0.00    -0.267 OA
BRANCH  13  16
HETATM   16  C   UNL     1       4.433  34.729  55.973  1.00  0.00     0.035 A 
HETATM   17  C   UNL     1       4.941  36.025  56.020  1.00  0.00     0.032 A 
HETATM   18  C   UNL     1       4.226  37.086  55.450  1.00  0.00     0.039 A 
HETATM   19  C   UNL     1       2.992  36.873  54.836  1.00  0.00     0.068 A 
HETATM   20  C   UNL     1       2.484  35.577  54.774  1.00  0.00     0.039 A 
HETATM   21  C   UNL     1       3.204  34.513  55.335  1.00  0.00     0.032 A 
BRANCH  19  22
HETATM   22  O   UNL     1       2.395  37.998  54.339  1.00  0.00    -0.356 OA
HETATM   23  C   UNL     1       2.937  39.247  54.750  1.00  0.00     0.210 C 
ENDBRANCH  19  22
ENDBRANCH  13  16
ENDBRANCH  10  12
BRANCH   1  24
HETATM   24  C   UNL     1       7.226  32.004  59.923  1.00  0.00    -0.029 A 
HETATM   25  C   UNL     1       6.143  32.131  60.808  1.00  0.00     0.010 A 
HETATM   26  C   UNL     1       6.350  32.404  62.161  1.00  0.00     0.007 A 
HETATM   27  C   UNL     1       7.646  32.553  62.667  1.00  0.00    -0.059 A 
HETATM   28  C   UNL     1       8.730  32.428  61.793  1.00  0.00     0.007 A 
HETATM   29  C   UNL     1       8.525  32.169  60.434  1.00  0.00     0.010 A 
BRANCH  27  30
HETATM   30  C   UNL     1       7.866  32.875  64.124  1.00  0.00     0.034 C 
HETATM   31  C   UNL     1       6.910  33.942  64.635  1.00  0.00     0.010 C 
ENDBRANCH  27  30
ENDBRANCH   1  24
BRANCH   4  32
HETATM   32  C   UNL     1       7.772  26.922  57.325  1.00  0.00     0.261 C 
HETATM   33  N   UNL     1       7.775  26.585  55.984  1.00  0.00    -0.323 N 
HETATM   34  H   UNL     1       7.802  27.357  55.332  1.00  0.00     0.169 HD
HETATM   35  O   UNL     1       7.659  26.138  58.262  1.00  0.00    -0.267 OA
BRANCH  33  36
HETATM   36  C   UNL     1       7.655  25.294  55.424  1.00  0.00     0.035 A 
HETATM   37  C   UNL     1       7.919  24.113  56.121  1.00  0.00     0.029 A 
HETATM   38  C   UNL     1       7.762  22.869  55.501  1.00  0.00     0.002 A 
HETATM   39  C   UNL     1       7.349  22.796  54.173  1.00  0.00     0.000 A 
HETATM   40  C   UNL     1       7.089  23.966  53.467  1.00  0.00     0.002 A 
HETATM   41  C   UNL     1       7.234  25.210  54.091  1.00  0.00     0.029 A 
ENDBRANCH  33  36
ENDBRANCH   4  32
TORSDOF 7
ENDMDL
MODEL 9
REMARK VINA RESULT:      -9.5      5.211     10.867
REMARK  7 active torsions:
REMARK  status: ('A' for Active; 'I' for Inactive)
REMARK    1  A    between atoms: C_2  and  C_3 
REMARK    2  A    between atoms: C_6  and  C_7 
REMARK    3  A    between atoms: C_10  and  C_11 
REMARK       I    between atoms: C_11  and  N_12 
REMARK    4  A    between atoms: N_12  and  C_13 
REMARK    5  A    between atoms: C_25  and  C_26 
REMARK       I    between atoms: C_26  and  N_27 
REMARK    6  A    between atoms: N_27  and  C_28 
REMARK    7  A    between atoms: C_31  and  O_32 
ROOT
HETATM    1  C   UNL     1       4.930  29.522  51.902  1.00  0.00     0.185 C 
HETATM    2  N   UNL     1       4.284  30.840  51.975  1.00  0.00    -0.239 N 
HETATM    3  C   UNL     1       3.436  31.226  52.986  1.00  0.00     0.142 A 
HETATM    4  C   UNL     1       2.975  32.480  52.626  1.00  0.00     0.097 A 
HETATM    5  C   UNL     1       3.714  32.788  51.452  1.00  0.00     0.160 A 
HETATM    6  N   UNL     1       4.526  31.803  51.063  1.00  0.00    -0.181 NA
HETATM    7  N   UNL     1       3.271  30.394  54.050  1.00  0.00    -0.343 N 
HETATM    8  C   UNL     1       4.084  29.265  54.240  1.00  0.00     0.021 C 
HETATM    9  C   UNL     1       3.976  28.616  55.601  1.00  0.00     0.069 C 
HETATM   10  C   UNL     1       4.909  28.825  53.254  1.00  0.00     0.061 C 
HETATM   11  H   UNL     1       2.914  30.772  54.930  1.00  0.00     0.167 HD
ENDROOT
BRANCH  10  12
HETATM   12  C   UNL     1       5.983  27.813  53.531  1.00  0.00     0.256 C 
HETATM   13  N   UNL     1       5.601  26.497  53.370  1.00  0.00    -0.323 N 
HETATM   14  H   UNL     1       4.624  26.295  53.206  1.00  0.00     0.169 HD
HETATM   15  O   UNL     1       7.112  28.200  53.815  1.00  0.00    -0.267 OA
BRANCH  13  16
HETATM   16  C   UNL     1       6.435  25.356  53.376  1.00  0.00     0.035 A 
HETATM   17  C   UNL     1       7.241  24.964  52.310  1.00  0.00     0.032 A 
HETATM   18  C   UNL     1       8.004  23.792  52.394  1.00  0.00     0.039 A 
HETATM   19  C   UNL     1       7.966  22.990  53.535  1.00  0.00     0.068 A 
HETATM   20  C   UNL     1       7.173  23.384  54.610  1.00  0.00     0.039 A 
HETATM   21  C   UNL     1       6.417  24.562  54.531  1.00  0.00     0.032 A 
BRANCH  19  22
HETATM   22  O   UNL     1       8.745  21.868  53.475  1.00  0.00    -0.356 OA
HETATM   23  C   UNL     1       8.094  20.654  53.120  1.00  0.00     0.210 C 
ENDBRANCH  19  22
ENDBRANCH  13  16
ENDBRANCH  10  12
BRANCH   1  24
HETATM   24  C   UNL     1       4.277  28.724  50.768  1.00  0.00    -0.029 A 
HETATM   25  C   UNL     1       5.061  27.834  50.016  1.00  0.00     0.010 A 
HETATM   26  C   UNL     1       4.511  27.115  48.954  1.00  0.00     0.007 A 
HETATM   27  C   UNL     1       3.161  27.263  48.617  1.00  0.00    -0.059 A 
HETATM   28  C   UNL     1       2.373  28.147  49.361  1.00  0.00     0.007 A 
HETATM   29  C   UNL     1       2.925  28.880  50.416  1.00  0.00     0.010 A 
BRANCH  27  30
HETATM   30  C   UNL     1       2.575  26.505  47.452  1.00  0.00     0.034 C 
HETATM   31  C   UNL     1       2.959  25.034  47.464  1.00  0.00     0.010 C 
ENDBRANCH  27  30
ENDBRANCH   1  24
BRANCH   4  32
HETATM   32  C   UNL     1       2.009  33.366  53.254  1.00  0.00     0.261 C 
HETATM   33  N   UNL     1       0.708  32.897  53.233  1.00  0.00    -0.323 N 
HETATM   34  H   UNL     1       0.559  32.022  52.750  1.00  0.00     0.169 HD
HETATM   35  O   UNL     1       2.377  34.442  53.714  1.00  0.00    -0.267 OA
BRANCH  33  36
HETATM   36  C   UNL     1      -0.444  33.544  53.731  1.00  0.00     0.035 A 
HETATM   37  C   UNL     1      -1.125  34.557  53.052  1.00  0.00     0.029 A 
HETATM   38  C   UNL     1      -2.271  35.140  53.605  1.00  0.00     0.002 A 
HETATM   39  C   UNL     1      -2.739  34.722  54.847  1.00  0.00     0.000 A 
HETATM   40  C   UNL     1      -2.066  33.717  55.535  1.00  0.00     0.002 A 
HETATM   41  C   UNL     1      -0.927  33.126  54.977  1.00  0.00     0.029 A 
ENDBRANCH  33  36
ENDBRANCH   4  32
TORSDOF 7
ENDMDL
MODEL 10
REMARK VINA RESULT:      -8.8      3.767      7.379
REMARK  7 active torsions:
REMARK  status: ('A' for Active; 'I' for Inactive)
REMARK    1  A    between atoms: C_2  and  C_3 
REMARK    2  A    between atoms: C_6  and  C_7 
REMARK    3  A    between atoms: C_10  and  C_11 
REMARK       I    between atoms: C_11  and  N_12 
REMARK    4  A    between atoms: N_12  and  C_13 
REMARK    5  A    between atoms: C_25  and  C_26 
REMARK       I    between atoms: C_26  and  N_27 
REMARK    6  A    between atoms: N_27  and  C_28 
REMARK    7  A    between atoms: C_31  and  O_32 
ROOT
HETATM    1  C   UNL     1       5.565  30.085  55.227  1.00  0.00     0.185 C 
HETATM    2  N   UNL     1       6.247  28.813  55.504  1.00  0.00    -0.239 N 
HETATM    3  C   UNL     1       5.740  27.579  55.173  1.00  0.00     0.142 A 
HETATM    4  C   UNL     1       6.631  26.658  55.692  1.00  0.00     0.097 A 
HETATM    5  C   UNL     1       7.690  27.459  56.197  1.00  0.00     0.160 A 
HETATM    6  N   UNL     1       7.472  28.770  56.067  1.00  0.00    -0.181 NA
HETATM    7  N   UNL     1       4.597  27.523  54.436  1.00  0.00    -0.343 N 
HETATM    8  C   UNL     1       4.041  28.668  53.842  1.00  0.00     0.021 C 
HETATM    9  C   UNL     1       2.953  28.403  52.827  1.00  0.00     0.069 C 
HETATM   10  C   UNL     1       4.485  29.910  54.170  1.00  0.00     0.061 C 
HETATM   11  H   UNL     1       4.374  26.668  53.922  1.00  0.00     0.167 HD
ENDROOT
BRANCH  10  12
HETATM   12  C   UNL     1       4.116  31.110  53.349  1.00  0.00     0.256 C 
HETATM   13  N   UNL     1       4.867  31.289  52.205  1.00  0.00    -0.323 N 
HETATM   14  H   UNL     1       5.674  30.697  52.061  1.00  0.00     0.169 HD
HETATM   15  O   UNL     1       3.164  31.803  53.694  1.00  0.00    -0.267 OA
BRANCH  13  16
HETATM   16  C   UNL     1       4.628  32.208  51.158  1.00  0.00     0.035 A 
HETATM   17  C   UNL     1       3.635  32.060  50.192  1.00  0.00     0.032 A 
HETATM   18  C   UNL     1       3.500  33.004  49.166  1.00  0.00     0.039 A 
HETATM   19  C   UNL     1       4.358  34.100  49.081  1.00  0.00     0.068 A 
HETATM   20  C   UNL     1       5.345  34.261  50.052  1.00  0.00     0.039 A 
HETATM   21  C   UNL     1       5.474  33.323  51.086  1.00  0.00     0.032 A 
BRANCH  19  22
HETATM   22  O   UNL     1       4.126  34.931  48.021  1.00  0.00    -0.356 OA
HETATM   23  C   UNL     1       4.801  34.626  46.807  1.00  0.00     0.210 C 
ENDBRANCH  19  22
ENDBRANCH  13  16
ENDBRANCH  10  12
BRANCH   1  24
HETATM   24  C   UNL     1       5.063  30.664  56.554  1.00  0.00    -0.029 A 
HETATM   25  C   UNL     1       3.850  30.200  57.091  1.00  0.00     0.010 A 
HETATM   26  C   UNL     1       3.343  30.728  58.279  1.00  0.00     0.007 A 
HETATM   27  C   UNL     1       4.036  31.730  58.967  1.00  0.00    -0.059 A 
HETATM   28  C   UNL     1       5.244  32.198  58.440  1.00  0.00     0.007 A 
HETATM   29  C   UNL     1       5.748  31.681  57.241  1.00  0.00     0.010 A 
BRANCH  27  30
HETATM   30  C   UNL     1       3.473  32.318  60.236  1.00  0.00     0.034 C 
HETATM   31  C   UNL     1       4.487  33.173  60.980  1.00  0.00     0.010 C 
ENDBRANCH  27  30
ENDBRANCH   1  24
BRANCH   4  32
HETATM   32  C   UNL     1       6.605  25.205  55.722  1.00  0.00     0.261 C 
HETATM   33  N   UNL     1       7.497  24.600  54.857  1.00  0.00    -0.323 N 
HETATM   34  H   UNL     1       8.034  25.221  54.267  1.00  0.00     0.169 HD
HETATM   35  O   UNL     1       5.808  24.624  56.453  1.00  0.00    -0.267 OA
BRANCH  33  36
HETATM   36  C   UNL     1       7.678  23.217  54.640  1.00  0.00     0.035 A 
HETATM   37  C   UNL     1       7.771  22.271  55.664  1.00  0.00     0.029 A 
HETATM   38  C   UNL     1       7.935  20.914  55.368  1.00  0.00     0.002 A 
HETATM   39  C   UNL     1       8.019  20.491  54.045  1.00  0.00     0.000 A 
HETATM   40  C   UNL     1       7.933  21.424  53.016  1.00  0.00     0.002 A 
HETATM   41  C   UNL     1       7.757  22.781  53.312  1.00  0.00     0.029 A 
ENDBRANCH  33  36
ENDBRANCH   4  32
TORSDOF 7
ENDMDL
