MODEL 1
REMARK VINA RESULT:      -8.9      0.000      0.000
REMARK  8 active torsions:
REMARK  status: ('A' for Active; 'I' for Inactive)
REMARK    1  A    between atoms: O_2  and  C_3 
REMARK    2  A    between atoms: C_6  and  N_7 
REMARK    3  A    between atoms: N_7  and  C_8 
REMARK    4  A    between atoms: C_8  and  C_9 
REMARK    5  A    between atoms: C_9  and  C_10 
REMARK    6  A    between atoms: C_10  and  C_11 
REMARK       I    between atoms: C_11  and  N_12 
REMARK    7  A    between atoms: N_12  and  N_13 
REMARK    8  A    between atoms: C_14  and  C_15 
ROOT
HETATM    1  C   UNL     1       8.350  29.772  58.265  1.00  0.00     0.237 C 
HETATM    2  N   UNL     1       7.477  28.693  58.208  1.00  0.00    -0.247 N 
HETATM    3  O   UNL     1       9.541  29.731  57.971  1.00  0.00    -0.272 OA
HETATM    4  H   UNL     1       6.500  28.795  58.456  1.00  0.00     0.192 HD
ENDROOT
BRANCH   1   5
HETATM    5  C   UNL     1       7.668  31.041  58.742  1.00  0.00     0.106 C 
BRANCH   5   6
HETATM    6  C   UNL     1       8.598  31.872  59.625  1.00  0.00     0.029 C 
BRANCH   6   7
HETATM    7  C   UNL     1       8.901  31.186  60.956  1.00  0.00     0.120 C 
BRANCH   7   8
HETATM    8  N   UNL     1       7.644  30.871  61.621  1.00  0.00    -0.390 N 
HETATM    9  H   UNL     1       7.583  29.900  61.923  1.00  0.00     0.159 HD
BRANCH   8  10
HETATM   10  C   UNL     1       7.100  31.740  62.568  1.00  0.00     0.028 A 
HETATM   11  C   UNL     1       5.733  31.840  62.839  1.00  0.00     0.032 A 
HETATM   12  C   UNL     1       5.248  32.669  63.863  1.00  0.00     0.039 A 
HETATM   13  C   UNL     1       6.132  33.399  64.655  1.00  0.00     0.068 A 
HETATM   14  C   UNL     1       7.500  33.284  64.416  1.00  0.00     0.039 A 
HETATM   15  C   UNL     1       7.976  32.453  63.398  1.00  0.00     0.032 A 
BRANCH  13  16
HETATM   16  O   UNL     1       5.797  34.238  65.681  1.00  0.00    -0.356 OA
HETATM   17  C   UNL     1       4.474  34.132  66.190  1.00  0.00     0.210 C 
ENDBRANCH  13  16
ENDBRANCH   8  10
ENDBRANCH   7   8
ENDBRANCH   6   7
ENDBRANCH   5   6
ENDBRANCH   1   5
BRANCH   2  18
HETATM   18  N   UNL     1       7.956  27.475  57.825  1.00  0.00    -0.184 NA
HETATM   19  C   UNL     1       7.361  26.898  56.832  1.00  0.00     0.152 C 
BRANCH  19  20
HETATM   20  C   UNL     1       7.824  25.596  56.398  1.00  0.00     0.011 A 
HETATM   21  C   UNL     1       7.692  25.004  55.101  1.00  0.00     0.004 A 
HETATM   22  C   UNL     1       8.284  23.739  55.158  1.00  0.00     0.043 A 
HETATM   23  C   UNL     1       7.127  25.420  53.876  1.00  0.00     0.014 A 
HETATM   24  C   UNL     1       8.336  22.873  54.060  1.00  0.00     0.030 A 
HETATM   25  N   UNL     1       8.758  23.570  56.438  1.00  0.00    -0.364 N 
HETATM   26  C   UNL     1       7.769  23.311  52.861  1.00  0.00     0.002 A 
HETATM   27  C   UNL     1       7.172  24.566  52.767  1.00  0.00     0.001 A 
HETATM   28  H   UNL     1       9.236  22.743  56.770  1.00  0.00     0.165 HD
HETATM   29  C   UNL     1       8.489  24.678  57.190  1.00  0.00     0.102 A 
ENDBRANCH  19  20
ENDBRANCH   2  18
TORSDOF 8
ENDMDL
MODEL 2
REMARK VINA RESULT:      -8.8      1.673      2.370
REMARK  8 active torsions:
REMARK  status: ('A' for Active; 'I' for Inactive)
REMARK    1  A    between atoms: O_2  and  C_3 
REMARK    2  A    between atoms: C_6  and  N_7 
REMARK    3  A    between atoms: N_7  and  C_8 
REMARK    4  A    between atoms: C_8  and  C_9 
REMARK    5  A    between atoms: C_9  and  C_10 
REMARK    6  A    between atoms: C_10  and  C_11 
REMARK       I    between atoms: C_11  and  N_12 
REMARK    7  A    between atoms: N_12  and  N_13 
REMARK    8  A    between atoms: C_14  and  C_15 
ROOT
HETATM    1  C   UNL     1       7.928  28.662  56.838  1.00  0.00     0.237 C 
HETATM    2  N   UNL     1       7.483  27.347  56.879  1.00  0.00    -0.247 N 
HETATM    3  O   UNL     1       8.383  29.222  55.845  1.00  0.00    -0.272 OA
HETATM    4  H   UNL     1       7.109  26.945  57.730  1.00  0.00     0.192 HD
ENDROOT
BRANCH   1   5
HETATM    5  C   UNL     1       7.795  29.357  58.181  1.00  0.00     0.106 C 
BRANCH   5   6
HETATM    6  C   UNL     1       9.044  30.175  58.509  1.00  0.00     0.029 C 
BRANCH   6   7
HETATM    7  C   UNL     1       9.089  30.606  59.973  1.00  0.00     0.120 C 
BRANCH   7   8
HETATM    8  N   UNL     1       7.726  30.802  60.449  1.00  0.00    -0.390 N 
HETATM    9  H   UNL     1       7.239  29.927  60.639  1.00  0.00     0.159 HD
BRANCH   8  10
HETATM   10  C   UNL     1       7.439  31.770  61.412  1.00  0.00     0.028 A 
HETATM   11  C   UNL     1       6.313  32.597  61.372  1.00  0.00     0.032 A 
HETATM   12  C   UNL     1       6.027  33.495  62.412  1.00  0.00     0.039 A 
HETATM   13  C   UNL     1       6.857  33.564  63.529  1.00  0.00     0.068 A 
HETATM   14  C   UNL     1       7.965  32.723  63.596  1.00  0.00     0.039 A 
HETATM   15  C   UNL     1       8.241  31.827  62.559  1.00  0.00     0.032 A 
BRANCH  13  16
HETATM   16  O   UNL     1       6.696  34.388  64.609  1.00  0.00    -0.356 OA
HETATM   17  C   UNL     1       6.845  33.797  65.894  1.00  0.00     0.210 C 
ENDBRANCH  13  16
ENDBRANCH   8  10
ENDBRANCH   7   8
ENDBRANCH   6   7
ENDBRANCH   5   6
ENDBRANCH   1   5
BRANCH   2  18
HETATM   18  N   UNL     1       7.571  26.585  55.750  1.00  0.00    -0.184 NA
HETATM   19  C   UNL     1       7.631  25.304  55.914  1.00  0.00     0.152 C 
BRANCH  19  20
HETATM   20  C   UNL     1       7.740  24.453  54.747  1.00  0.00     0.011 A 
HETATM   21  C   UNL     1       7.821  23.023  54.705  1.00  0.00     0.004 A 
HETATM   22  C   UNL     1       7.919  22.650  53.362  1.00  0.00     0.043 A 
HETATM   23  C   UNL     1       7.818  22.004  55.682  1.00  0.00     0.014 A 
HETATM   24  C   UNL     1       8.017  21.317  52.947  1.00  0.00     0.030 A 
HETATM   25  N   UNL     1       7.897  23.806  52.617  1.00  0.00    -0.364 N 
HETATM   26  C   UNL     1       8.012  20.329  53.935  1.00  0.00     0.002 A 
HETATM   27  C   UNL     1       7.914  20.665  55.283  1.00  0.00     0.001 A 
HETATM   28  H   UNL     1       7.953  23.842  51.608  1.00  0.00     0.165 HD
HETATM   29  C   UNL     1       7.789  24.893  53.437  1.00  0.00     0.102 A 
ENDBRANCH  19  20
ENDBRANCH   2  18
TORSDOF 8
ENDMDL
MODEL 3
REMARK VINA RESULT:      -8.3      1.282      1.774
REMARK  8 active torsions:
REMARK  status: ('A' for Active; 'I' for Inactive)
REMARK    1  A    between atoms: O_2  and  C_3 
REMARK    2  A    between atoms: C_6  and  N_7 
REMARK    3  A    between atoms: N_7  and  C_8 
REMARK    4  A    between atoms: C_8  and  C_9 
REMARK    5  A    between atoms: C_9  and  C_10 
REMARK    6  A    between atoms: C_10  and  C_11 
REMARK       I    between atoms: C_11  and  N_12 
REMARK    7  A    between atoms: N_12  and  N_13 
REMARK    8  A    between atoms: C_14  and  C_15 
ROOT
HETATM    1  C   UNL     1       8.032  28.655  56.608  1.00  0.00     0.237 C 
HETATM    2  N   UNL     1       8.069  27.533  57.425  1.00  0.00    -0.247 N 
HETATM    3  O   UNL     1       8.244  28.655  55.399  1.00  0.00    -0.272 OA
HETATM    4  H   UNL     1       7.875  27.599  58.418  1.00  0.00     0.192 HD
ENDROOT
BRANCH   1   5
HETATM    5  C   UNL     1       7.696  29.919  57.380  1.00  0.00     0.106 C 
BRANCH   5   6
HETATM    6  C   UNL     1       8.727  30.189  58.476  1.00  0.00     0.029 C 
BRANCH   6   7
HETATM    7  C   UNL     1       8.324  31.354  59.378  1.00  0.00     0.120 C 
BRANCH   7   8
HETATM    8  N   UNL     1       7.586  30.832  60.520  1.00  0.00    -0.390 N 
HETATM    9  H   UNL     1       7.878  29.894  60.790  1.00  0.00     0.159 HD
BRANCH   8  10
HETATM   10  C   UNL     1       7.335  31.635  61.634  1.00  0.00     0.028 A 
HETATM   11  C   UNL     1       8.272  31.884  62.641  1.00  0.00     0.032 A 
HETATM   12  C   UNL     1       7.995  32.769  63.695  1.00  0.00     0.039 A 
HETATM   13  C   UNL     1       6.776  33.442  63.746  1.00  0.00     0.068 A 
HETATM   14  C   UNL     1       5.846  33.227  62.732  1.00  0.00     0.039 A 
HETATM   15  C   UNL     1       6.130  32.349  61.682  1.00  0.00     0.032 A 
BRANCH  13  16
HETATM   16  O   UNL     1       6.380  34.328  64.709  1.00  0.00    -0.356 OA
HETATM   17  C   UNL     1       5.335  33.908  65.577  1.00  0.00     0.210 C 
ENDBRANCH  13  16
ENDBRANCH   8  10
ENDBRANCH   7   8
ENDBRANCH   6   7
ENDBRANCH   5   6
ENDBRANCH   1   5
BRANCH   2  18
HETATM   18  N   UNL     1       8.390  26.326  56.876  1.00  0.00    -0.184 NA
HETATM   19  C   UNL     1       7.629  25.325  57.178  1.00  0.00     0.152 C 
BRANCH  19  20
HETATM   20  C   UNL     1       7.936  24.020  56.631  1.00  0.00     0.011 A 
HETATM   21  C   UNL     1       7.866  23.600  55.264  1.00  0.00     0.004 A 
HETATM   22  C   UNL     1       8.250  22.257  55.219  1.00  0.00     0.043 A 
HETATM   23  C   UNL     1       7.515  24.233  54.052  1.00  0.00     0.014 A 
HETATM   24  C   UNL     1       8.298  21.518  54.032  1.00  0.00     0.030 A 
HETATM   25  N   UNL     1       8.543  21.876  56.508  1.00  0.00    -0.364 N 
HETATM   26  C   UNL     1       7.944  22.170  52.848  1.00  0.00     0.002 A 
HETATM   27  C   UNL     1       7.559  23.507  52.855  1.00  0.00     0.001 A 
HETATM   28  H   UNL     1       8.850  20.951  56.779  1.00  0.00     0.165 HD
HETATM   29  C   UNL     1       8.360  22.925  57.363  1.00  0.00     0.102 A 
ENDBRANCH  19  20
ENDBRANCH   2  18
TORSDOF 8
ENDMDL
MODEL 4
REMARK VINA RESULT:      -8.1      3.158     10.354
REMARK  8 active torsions:
REMARK  status: ('A' for Active; 'I' for Inactive)
REMARK    1  A    between atoms: O_2  and  C_3 
REMARK    2  A    between atoms: C_6  and  N_7 
REMARK    3  A    between atoms: N_7  and  C_8 
REMARK    4  A    between atoms: C_8  and  C_9 
REMARK    5  A    between atoms: C_9  and  C_10 
REMARK    6  A    between atoms: C_10  and  C_11 
REMARK       I    between atoms: C_11  and  N_12 
REMARK    7  A    between atoms: N_12  and  N_13 
REMARK    8  A    between atoms: C_14  and  C_15 
ROOT
HETATM    1  C   UNL     1       8.277  25.818  57.566  1.00  0.00     0.237 C 
HETATM    2  N   UNL     1       8.175  27.046  56.925  1.00  0.00    -0.247 N 
HETATM    3  O   UNL     1       7.845  25.570  58.688  1.00  0.00    -0.272 OA
HETATM    4  H   UNL     1       8.546  27.184  55.993  1.00  0.00     0.192 HD
ENDROOT
BRANCH   1   5
HETATM    5  C   UNL     1       8.998  24.784  56.720  1.00  0.00     0.106 C 
BRANCH   5   6
HETATM    6  C   UNL     1       8.380  23.398  56.894  1.00  0.00     0.029 C 
BRANCH   6   7
HETATM    7  C   UNL     1       8.628  22.494  55.688  1.00  0.00     0.120 C 
BRANCH   7   8
HETATM    8  N   UNL     1       7.449  22.517  54.832  1.00  0.00    -0.390 N 
HETATM    9  H   UNL     1       6.599  22.226  55.314  1.00  0.00     0.159 HD
BRANCH   8  10
HETATM   10  C   UNL     1       7.211  23.590  53.972  1.00  0.00     0.028 A 
HETATM   11  C   UNL     1       7.952  23.837  52.813  1.00  0.00     0.032 A 
HETATM   12  C   UNL     1       7.615  24.882  51.938  1.00  0.00     0.039 A 
HETATM   13  C   UNL     1       6.508  25.687  52.198  1.00  0.00     0.068 A 
HETATM   14  C   UNL     1       5.742  25.431  53.333  1.00  0.00     0.039 A 
HETATM   15  C   UNL     1       6.080  24.386  54.197  1.00  0.00     0.032 A 
BRANCH  13  16
HETATM   16  O   UNL     1       6.068  26.731  51.432  1.00  0.00    -0.356 OA
HETATM   17  C   UNL     1       5.695  27.918  52.120  1.00  0.00     0.210 C 
ENDBRANCH  13  16
ENDBRANCH   8  10
ENDBRANCH   7   8
ENDBRANCH   6   7
ENDBRANCH   5   6
ENDBRANCH   1   5
BRANCH   2  18
HETATM   18  N   UNL     1       7.578  28.085  57.578  1.00  0.00    -0.184 NA
HETATM   19  C   UNL     1       8.310  29.124  57.816  1.00  0.00     0.152 C 
BRANCH  19  20
HETATM   20  C   UNL     1       7.725  30.246  58.520  1.00  0.00     0.011 A 
HETATM   21  C   UNL     1       8.117  30.792  59.785  1.00  0.00     0.004 A 
HETATM   22  C   UNL     1       7.261  31.863  60.060  1.00  0.00     0.043 A 
HETATM   23  C   UNL     1       9.121  30.483  60.727  1.00  0.00     0.014 A 
HETATM   24  C   UNL     1       7.356  32.633  61.225  1.00  0.00     0.030 A 
HETATM   25  N   UNL     1       6.385  31.964  59.004  1.00  0.00    -0.364 N 
HETATM   26  C   UNL     1       8.359  32.303  62.140  1.00  0.00     0.002 A 
HETATM   27  C   UNL     1       9.230  31.245  61.897  1.00  0.00     0.001 A 
HETATM   28  H   UNL     1       5.649  32.653  58.931  1.00  0.00     0.165 HD
HETATM   29  C   UNL     1       6.655  31.001  58.074  1.00  0.00     0.102 A 
ENDBRANCH  19  20
ENDBRANCH   2  18
TORSDOF 8
ENDMDL
MODEL 5
REMARK VINA RESULT:      -8.0      8.347     12.388
REMARK  8 active torsions:
REMARK  status: ('A' for Active; 'I' for Inactive)
REMARK    1  A    between atoms: O_2  and  C_3 
REMARK    2  A    between atoms: C_6  and  N_7 
REMARK    3  A    between atoms: N_7  and  C_8 
REMARK    4  A    between atoms: C_8  and  C_9 
REMARK    5  A    between atoms: C_9  and  C_10 
REMARK    6  A    between atoms: C_10  and  C_11 
REMARK       I    between atoms: C_11  and  N_12 
REMARK    7  A    between atoms: N_12  and  N_13 
REMARK    8  A    between atoms: C_14  and  C_15 
ROOT
HETATM    1  C   UNL     1       5.312  27.050  51.342  1.00  0.00     0.237 C 
HETATM    2  N   UNL     1       6.258  26.061  51.107  1.00  0.00    -0.247 N 
HETATM    3  O   UNL     1       4.976  27.454  52.451  1.00  0.00    -0.272 OA
HETATM    4  H   UNL     1       6.499  25.778  50.164  1.00  0.00     0.192 HD
ENDROOT
BRANCH   1   5
HETATM    5  C   UNL     1       4.717  27.597  50.057  1.00  0.00     0.106 C 
BRANCH   5   6
HETATM    6  C   UNL     1       4.806  26.573  48.926  1.00  0.00     0.029 C 
BRANCH   6   7
HETATM    7  C   UNL     1       3.447  25.967  48.583  1.00  0.00     0.120 C 
BRANCH   7   8
HETATM    8  N   UNL     1       2.403  26.921  48.934  1.00  0.00    -0.390 N 
HETATM    9  H   UNL     1       2.678  27.556  49.681  1.00  0.00     0.159 HD
BRANCH   8  10
HETATM   10  C   UNL     1       1.673  27.577  47.942  1.00  0.00     0.028 A 
HETATM   11  C   UNL     1       0.929  26.918  46.959  1.00  0.00     0.032 A 
HETATM   12  C   UNL     1       0.143  27.629  46.038  1.00  0.00     0.039 A 
HETATM   13  C   UNL     1       0.069  29.018  46.101  1.00  0.00     0.068 A 
HETATM   14  C   UNL     1       0.780  29.685  47.095  1.00  0.00     0.039 A 
HETATM   15  C   UNL     1       1.557  28.972  48.013  1.00  0.00     0.032 A 
BRANCH  13  16
HETATM   16  O   UNL     1      -0.656  29.829  45.272  1.00  0.00    -0.356 OA
HETATM   17  C   UNL     1      -1.418  29.191  44.256  1.00  0.00     0.210 C 
ENDBRANCH  13  16
ENDBRANCH   8  10
ENDBRANCH   7   8
ENDBRANCH   6   7
ENDBRANCH   5   6
ENDBRANCH   1   5
BRANCH   2  18
HETATM   18  N   UNL     1       6.858  25.453  52.171  1.00  0.00    -0.184 NA
HETATM   19  C   UNL     1       6.243  24.439  52.687  1.00  0.00     0.152 C 
BRANCH  19  20
HETATM   20  C   UNL     1       6.832  23.769  53.828  1.00  0.00     0.011 A 
HETATM   21  C   UNL     1       7.507  22.506  53.855  1.00  0.00     0.004 A 
HETATM   22  C   UNL     1       7.896  22.269  55.176  1.00  0.00     0.043 A 
HETATM   23  C   UNL     1       7.828  21.537  52.881  1.00  0.00     0.014 A 
HETATM   24  C   UNL     1       8.585  21.117  55.572  1.00  0.00     0.030 A 
HETATM   25  N   UNL     1       7.477  23.346  55.923  1.00  0.00    -0.364 N 
HETATM   26  C   UNL     1       8.890  20.174  54.587  1.00  0.00     0.002 A 
HETATM   27  C   UNL     1       8.519  20.378  53.261  1.00  0.00     0.001 A 
HETATM   28  H   UNL     1       7.621  23.448  56.918  1.00  0.00     0.165 HD
HETATM   29  C   UNL     1       6.838  24.252  55.124  1.00  0.00     0.102 A 
ENDBRANCH  19  20
ENDBRANCH   2  18
TORSDOF 8
ENDMDL
MODEL 6
REMARK VINA RESULT:      -8.0      2.725     10.927
REMARK  8 active torsions:
REMARK  status: ('A' for Active; 'I' for Inactive)
REMARK    1  A    between atoms: O_2  and  C_3 
REMARK    2  A    between atoms: C_6  and  N_7 
REMARK    3  A    between atoms: N_7  and  C_8 
REMARK    4  A    between atoms: C_8  and  C_9 
REMARK    5  A    between atoms: C_9  and  C_10 
REMARK    6  A    between atoms: C_10  and  C_11 
REMARK       I    between atoms: C_11  and  N_12 
REMARK    7  A    between atoms: N_12  and  N_13 
REMARK    8  A    between atoms: C_14  and  C_15 
ROOT
HETATM    1  C   UNL     1       7.189  28.414  56.800  1.00  0.00     0.237 C 
HETATM    2  N   UNL     1       7.375  29.751  57.129  1.00  0.00    -0.247 N 
HETATM    3  O   UNL     1       7.481  27.463  57.519  1.00  0.00    -0.272 OA
HETATM    4  H   UNL     1       7.103  30.491  56.494  1.00  0.00     0.192 HD
ENDROOT
BRANCH   1   5
HETATM    5  C   UNL     1       6.572  28.240  55.423  1.00  0.00     0.106 C 
BRANCH   5   6
HETATM    6  C   UNL     1       7.638  27.923  54.376  1.00  0.00     0.029 C 
BRANCH   6   7
HETATM    7  C   UNL     1       7.197  26.823  53.412  1.00  0.00     0.120 C 
BRANCH   7   8
HETATM    8  N   UNL     1       6.500  25.788  54.165  1.00  0.00    -0.390 N 
HETATM    9  H   UNL     1       5.488  25.830  54.060  1.00  0.00     0.159 HD
BRANCH   8  10
HETATM   10  C   UNL     1       6.964  24.472  54.166  1.00  0.00     0.028 A 
HETATM   11  C   UNL     1       7.453  23.818  53.032  1.00  0.00     0.032 A 
HETATM   12  C   UNL     1       7.988  22.522  53.109  1.00  0.00     0.039 A 
HETATM   13  C   UNL     1       8.065  21.865  54.334  1.00  0.00     0.068 A 
HETATM   14  C   UNL     1       7.611  22.517  55.477  1.00  0.00     0.039 A 
HETATM   15  C   UNL     1       7.084  23.810  55.396  1.00  0.00     0.032 A 
BRANCH  13  16
HETATM   16  O   UNL     1       8.563  20.609  54.550  1.00  0.00    -0.356 OA
HETATM   17  C   UNL     1       9.052  20.329  55.855  1.00  0.00     0.210 C 
ENDBRANCH  13  16
ENDBRANCH   8  10
ENDBRANCH   7   8
ENDBRANCH   6   7
ENDBRANCH   5   6
ENDBRANCH   1   5
BRANCH   2  18
HETATM   18  N   UNL     1       7.950  30.062  58.327  1.00  0.00    -0.184 NA
HETATM   19  C   UNL     1       7.392  31.004  59.016  1.00  0.00     0.152 C 
BRANCH  19  20
HETATM   20  C   UNL     1       7.974  31.381  60.287  1.00  0.00     0.011 A 
HETATM   21  C   UNL     1       7.314  31.954  61.421  1.00  0.00     0.004 A 
HETATM   22  C   UNL     1       8.280  32.151  62.411  1.00  0.00     0.043 A 
HETATM   23  C   UNL     1       5.982  32.324  61.707  1.00  0.00     0.014 A 
HETATM   24  C   UNL     1       7.986  32.700  63.664  1.00  0.00     0.030 A 
HETATM   25  N   UNL     1       9.480  31.714  61.900  1.00  0.00    -0.364 N 
HETATM   26  C   UNL     1       6.660  33.057  63.920  1.00  0.00     0.002 A 
HETATM   27  C   UNL     1       5.670  32.873  62.958  1.00  0.00     0.001 A 
HETATM   28  H   UNL     1      10.360  31.737  62.397  1.00  0.00     0.165 HD
HETATM   29  C   UNL     1       9.308  31.249  60.627  1.00  0.00     0.102 A 
ENDBRANCH  19  20
ENDBRANCH   2  18
TORSDOF 8
ENDMDL
MODEL 7
REMARK VINA RESULT:      -8.0      4.088      9.525
REMARK  8 active torsions:
REMARK  status: ('A' for Active; 'I' for Inactive)
REMARK    1  A    between atoms: O_2  and  C_3 
REMARK    2  A    between atoms: C_6  and  N_7 
REMARK    3  A    between atoms: N_7  and  C_8 
REMARK    4  A    between atoms: C_8  and  C_9 
REMARK    5  A    between atoms: C_9  and  C_10 
REMARK    6  A    between atoms: C_10  and  C_11 
REMARK       I    between atoms: C_11  and  N_12 
REMARK    7  A    between atoms: N_12  and  N_13 
REMARK    8  A    between atoms: C_14  and  C_15 
ROOT
HETATM    1  C   UNL     1       7.595  24.317  56.870  1.00  0.00     0.237 C 
HETATM    2  N   UNL     1       8.311  25.300  57.540  1.00  0.00    -0.247 N 
HETATM    3  O   UNL     1       6.408  24.391  56.568  1.00  0.00    -0.272 OA
HETATM    4  H   UNL     1       9.295  25.182  57.752  1.00  0.00     0.192 HD
ENDROOT
BRANCH   1   5
HETATM    5  C   UNL     1       8.450  23.106  56.539  1.00  0.00     0.106 C 
BRANCH   5   6
HETATM    6  C   UNL     1       9.124  23.260  55.176  1.00  0.00     0.029 C 
BRANCH   6   7
HETATM    7  C   UNL     1       8.226  22.806  54.028  1.00  0.00     0.120 C 
BRANCH   7   8
HETATM    8  N   UNL     1       8.113  23.890  53.061  1.00  0.00    -0.390 N 
HETATM    9  H   UNL     1       8.194  23.575  52.096  1.00  0.00     0.159 HD
BRANCH   8  10
HETATM   10  C   UNL     1       7.133  24.873  53.202  1.00  0.00     0.028 A 
HETATM   11  C   UNL     1       5.766  24.641  53.025  1.00  0.00     0.032 A 
HETATM   12  C   UNL     1       4.816  25.646  53.265  1.00  0.00     0.039 A 
HETATM   13  C   UNL     1       5.219  26.902  53.712  1.00  0.00     0.068 A 
HETATM   14  C   UNL     1       6.575  27.138  53.923  1.00  0.00     0.039 A 
HETATM   15  C   UNL     1       7.516  26.131  53.688  1.00  0.00     0.032 A 
BRANCH  13  16
HETATM   16  O   UNL     1       4.403  27.965  53.985  1.00  0.00    -0.356 OA
HETATM   17  C   UNL     1       3.500  28.360  52.960  1.00  0.00     0.210 C 
ENDBRANCH  13  16
ENDBRANCH   8  10
ENDBRANCH   7   8
ENDBRANCH   6   7
ENDBRANCH   5   6
ENDBRANCH   1   5
BRANCH   2  18
HETATM   18  N   UNL     1       7.665  26.437  57.932  1.00  0.00    -0.184 NA
HETATM   19  C   UNL     1       8.031  27.541  57.368  1.00  0.00     0.152 C 
BRANCH  19  20
HETATM   20  C   UNL     1       7.386  28.776  57.760  1.00  0.00     0.011 A 
HETATM   21  C   UNL     1       7.956  29.877  58.477  1.00  0.00     0.004 A 
HETATM   22  C   UNL     1       6.954  30.840  58.630  1.00  0.00     0.043 A 
HETATM   23  C   UNL     1       9.232  30.154  59.013  1.00  0.00     0.014 A 
HETATM   24  C   UNL     1       7.160  32.056  59.289  1.00  0.00     0.030 A 
HETATM   25  N   UNL     1       5.820  30.344  58.028  1.00  0.00    -0.364 N 
HETATM   26  C   UNL     1       8.433  32.303  59.810  1.00  0.00     0.002 A 
HETATM   27  C   UNL     1       9.456  31.368  59.675  1.00  0.00     0.001 A 
HETATM   28  H   UNL     1       4.934  30.828  57.984  1.00  0.00     0.165 HD
HETATM   29  C   UNL     1       6.068  29.108  57.503  1.00  0.00     0.102 A 
ENDBRANCH  19  20
ENDBRANCH   2  18
TORSDOF 8
ENDMDL
MODEL 8
REMARK VINA RESULT:      -7.7      7.957     10.653
REMARK  8 active torsions:
REMARK  status: ('A' for Active; 'I' for Inactive)
REMARK    1  A    between atoms: O_2  and  C_3 
REMARK    2  A    between atoms: C_6  and  N_7 
REMARK    3  A    between atoms: N_7  and  C_8 
REMARK    4  A    between atoms: C_8  and  C_9 
REMARK    5  A    between atoms: C_9  and  C_10 
REMARK    6  A    between atoms: C_10  and  C_11 
REMARK       I    between atoms: C_11  and  N_12 
REMARK    7  A    between atoms: N_12  and  N_13 
REMARK    8  A    between atoms: C_14  and  C_15 
ROOT
HETATM    1  C   UNL     1       4.535  26.482  53.298  1.00  0.00     0.237 C 
HETATM    2  N   UNL     1       4.949  26.315  54.614  1.00  0.00    -0.247 N 
HETATM    3  O   UNL     1       4.639  25.637  52.414  1.00  0.00    -0.272 OA
HETATM    4  H   UNL     1       4.827  27.050  55.300  1.00  0.00     0.192 HD
ENDROOT
BRANCH   1   5
HETATM    5  C   UNL     1       3.928  27.852  53.054  1.00  0.00     0.106 C 
BRANCH   5   6
HETATM    6  C   UNL     1       5.008  28.928  52.964  1.00  0.00     0.029 C 
BRANCH   6   7
HETATM    7  C   UNL     1       5.987  28.675  51.818  1.00  0.00     0.120 C 
BRANCH   7   8
HETATM    8  N   UNL     1       5.516  29.381  50.633  1.00  0.00    -0.390 N 
HETATM    9  H   UNL     1       6.259  29.872  50.139  1.00  0.00     0.159 HD
BRANCH   8  10
HETATM   10  C   UNL     1       4.623  28.773  49.749  1.00  0.00     0.028 A 
HETATM   11  C   UNL     1       3.551  29.437  49.146  1.00  0.00     0.032 A 
HETATM   12  C   UNL     1       2.736  28.800  48.198  1.00  0.00     0.039 A 
HETATM   13  C   UNL     1       2.997  27.486  47.816  1.00  0.00     0.068 A 
HETATM   14  C   UNL     1       4.081  26.823  48.385  1.00  0.00     0.039 A 
HETATM   15  C   UNL     1       4.893  27.465  49.325  1.00  0.00     0.032 A 
BRANCH  13  16
HETATM   16  O   UNL     1       2.288  26.751  46.906  1.00  0.00    -0.356 OA
HETATM   17  C   UNL     1       0.949  27.159  46.656  1.00  0.00     0.210 C 
ENDBRANCH  13  16
ENDBRANCH   8  10
ENDBRANCH   7   8
ENDBRANCH   6   7
ENDBRANCH   5   6
ENDBRANCH   1   5
BRANCH   2  18
HETATM   18  N   UNL     1       5.544  25.141  54.975  1.00  0.00    -0.184 NA
HETATM   19  C   UNL     1       6.814  25.180  55.215  1.00  0.00     0.152 C 
BRANCH  19  20
HETATM   20  C   UNL     1       7.494  23.957  55.588  1.00  0.00     0.011 A 
HETATM   21  C   UNL     1       7.791  22.827  54.759  1.00  0.00     0.004 A 
HETATM   22  C   UNL     1       8.451  21.887  55.555  1.00  0.00     0.043 A 
HETATM   23  C   UNL     1       7.565  22.510  53.402  1.00  0.00     0.014 A 
HETATM   24  C   UNL     1       8.891  20.652  55.068  1.00  0.00     0.030 A 
HETATM   25  N   UNL     1       8.553  22.424  56.818  1.00  0.00    -0.364 N 
HETATM   26  C   UNL     1       8.654  20.364  53.721  1.00  0.00     0.002 A 
HETATM   27  C   UNL     1       8.001  21.278  52.899  1.00  0.00     0.001 A 
HETATM   28  H   UNL     1       8.986  21.964  57.606  1.00  0.00     0.165 HD
HETATM   29  C   UNL     1       7.983  23.666  56.848  1.00  0.00     0.102 A 
ENDBRANCH  19  20
ENDBRANCH   2  18
TORSDOF 8
ENDMDL
MODEL 9
REMARK VINA RESULT:      -7.7      5.277      8.061
REMARK  8 active torsions:
REMARK  status: ('A' for Active; 'I' for Inactive)
REMARK    1  A    between atoms: O_2  and  C_3 
REMARK    2  A    between atoms: C_6  and  N_7 
REMARK    3  A    between atoms: N_7  and  C_8 
REMARK    4  A    between atoms: C_8  and  C_9 
REMARK    5  A    between atoms: C_9  and  C_10 
REMARK    6  A    between atoms: C_10  and  C_11 
REMARK       I    between atoms: C_11  and  N_12 
REMARK    7  A    between atoms: N_12  and  N_13 
REMARK    8  A    between atoms: C_14  and  C_15 
ROOT
HETATM    1  C   UNL     1       7.504  28.370  56.390  1.00  0.00     0.237 C 
HETATM    2  N   UNL     1       7.241  27.375  57.324  1.00  0.00    -0.247 N 
HETATM    3  O   UNL     1       8.202  28.232  55.391  1.00  0.00    -0.272 OA
HETATM    4  H   UNL     1       6.647  27.551  58.125  1.00  0.00     0.192 HD
ENDROOT
BRANCH   1   5
HETATM    5  C   UNL     1       6.824  29.682  56.740  1.00  0.00     0.106 C 
BRANCH   5   6
HETATM    6  C   UNL     1       5.669  29.978  55.785  1.00  0.00     0.029 C 
BRANCH   6   7
HETATM    7  C   UNL     1       4.335  29.442  56.301  1.00  0.00     0.120 C 
BRANCH   7   8
HETATM    8  N   UNL     1       4.046  28.178  55.636  1.00  0.00    -0.390 N 
HETATM    9  H   UNL     1       3.119  27.815  55.852  1.00  0.00     0.159 HD
BRANCH   8  10
HETATM   10  C   UNL     1       4.374  27.989  54.293  1.00  0.00     0.028 A 
HETATM   11  C   UNL     1       5.285  27.029  53.841  1.00  0.00     0.032 A 
HETATM   12  C   UNL     1       5.512  26.824  52.471  1.00  0.00     0.039 A 
HETATM   13  C   UNL     1       4.808  27.562  51.523  1.00  0.00     0.068 A 
HETATM   14  C   UNL     1       3.874  28.499  51.958  1.00  0.00     0.039 A 
HETATM   15  C   UNL     1       3.648  28.696  53.324  1.00  0.00     0.032 A 
BRANCH  13  16
HETATM   16  O   UNL     1       4.929  27.462  50.165  1.00  0.00    -0.356 OA
HETATM   17  C   UNL     1       3.912  28.076  49.383  1.00  0.00     0.210 C 
ENDBRANCH  13  16
ENDBRANCH   8  10
ENDBRANCH   7   8
ENDBRANCH   6   7
ENDBRANCH   5   6
ENDBRANCH   1   5
BRANCH   2  18
HETATM   18  N   UNL     1       7.812  26.147  57.158  1.00  0.00    -0.184 NA
HETATM   19  C   UNL     1       7.134  25.273  56.489  1.00  0.00     0.152 C 
BRANCH  19  20
HETATM   20  C   UNL     1       7.691  23.950  56.299  1.00  0.00     0.011 A 
HETATM   21  C   UNL     1       7.791  23.204  55.080  1.00  0.00     0.004 A 
HETATM   22  C   UNL     1       8.392  21.980  55.388  1.00  0.00     0.043 A 
HETATM   23  C   UNL     1       7.430  23.451  53.738  1.00  0.00     0.014 A 
HETATM   24  C   UNL     1       8.647  20.995  54.428  1.00  0.00     0.030 A 
HETATM   25  N   UNL     1       8.649  21.982  56.739  1.00  0.00    -0.364 N 
HETATM   26  C   UNL     1       8.279  21.265  53.107  1.00  0.00     0.002 A 
HETATM   27  C   UNL     1       7.680  22.474  52.765  1.00  0.00     0.001 A 
HETATM   28  H   UNL     1       9.082  21.221  57.244  1.00  0.00     0.165 HD
HETATM   29  C   UNL     1       8.233  23.159  57.295  1.00  0.00     0.102 A 
ENDBRANCH  19  20
ENDBRANCH   2  18
TORSDOF 8
ENDMDL
MODEL 10
REMARK VINA RESULT:      -7.5      2.630     11.293
REMARK  8 active torsions:
REMARK  status: ('A' for Active; 'I' for Inactive)
REMARK    1  A    between atoms: O_2  and  C_3 
REMARK    2  A    between atoms: C_6  and  N_7 
REMARK    3  A    between atoms: N_7  and  C_8 
REMARK    4  A    between atoms: C_8  and  C_9 
REMARK    5  A    between atoms: C_9  and  C_10 
REMARK    6  A    between atoms: C_10  and  C_11 
REMARK       I    between atoms: C_11  and  N_12 
REMARK    7  A    between atoms: N_12  and  N_13 
REMARK    8  A    between atoms: C_14  and  C_15 
ROOT
HETATM    1  C   UNL     1       7.424  31.290  59.406  1.00  0.00     0.237 C 
HETATM    2  N   UNL     1       7.507  30.980  60.757  1.00  0.00    -0.247 N 
HETATM    3  O   UNL     1       6.861  32.277  58.942  1.00  0.00    -0.272 OA
HETATM    4  H   UNL     1       7.996  30.153  61.077  1.00  0.00     0.192 HD
ENDROOT
BRANCH   1   5
HETATM    5  C   UNL     1       8.116  30.258  58.534  1.00  0.00     0.106 C 
BRANCH   5   6
HETATM    6  C   UNL     1       7.106  29.309  57.891  1.00  0.00     0.029 C 
BRANCH   6   7
HETATM    7  C   UNL     1       7.764  28.326  56.924  1.00  0.00     0.120 C 
BRANCH   7   8
HETATM    8  N   UNL     1       8.015  27.073  57.624  1.00  0.00    -0.390 N 
HETATM    9  H   UNL     1       7.632  27.059  58.568  1.00  0.00     0.159 HD
BRANCH   8  10
HETATM   10  C   UNL     1       7.839  25.848  56.978  1.00  0.00     0.028 A 
HETATM   11  C   UNL     1       7.056  25.677  55.833  1.00  0.00     0.032 A 
HETATM   12  C   UNL     1       6.984  24.440  55.175  1.00  0.00     0.039 A 
HETATM   13  C   UNL     1       7.718  23.351  55.640  1.00  0.00     0.068 A 
HETATM   14  C   UNL     1       8.527  23.516  56.762  1.00  0.00     0.039 A 
HETATM   15  C   UNL     1       8.599  24.753  57.410  1.00  0.00     0.032 A 
BRANCH  13  16
HETATM   16  O   UNL     1       7.741  22.097  55.096  1.00  0.00    -0.356 OA
HETATM   17  C   UNL     1       9.020  21.519  54.870  1.00  0.00     0.210 C 
ENDBRANCH  13  16
ENDBRANCH   8  10
ENDBRANCH   7   8
ENDBRANCH   6   7
ENDBRANCH   5   6
ENDBRANCH   1   5
BRANCH   2  18
HETATM   18  N   UNL     1       6.903  31.803  61.662  1.00  0.00    -0.184 NA
HETATM   19  C   UNL     1       7.678  32.498  62.429  1.00  0.00     0.152 C 
BRANCH  19  20
HETATM   20  C   UNL     1       7.084  33.375  63.417  1.00  0.00     0.011 A 
HETATM   21  C   UNL     1       6.195  34.476  63.194  1.00  0.00     0.004 A 
HETATM   22  C   UNL     1       5.891  35.026  64.442  1.00  0.00     0.043 A 
HETATM   23  C   UNL     1       5.614  35.061  62.049  1.00  0.00     0.014 A 
HETATM   24  C   UNL     1       5.043  36.127  64.603  1.00  0.00     0.030 A 
HETATM   25  N   UNL     1       6.567  34.288  65.386  1.00  0.00    -0.364 N 
HETATM   26  C   UNL     1       4.482  36.687  63.452  1.00  0.00     0.002 A 
HETATM   27  C   UNL     1       4.761  36.163  62.193  1.00  0.00     0.001 A 
HETATM   28  H   UNL     1       6.535  34.460  66.382  1.00  0.00     0.165 HD
HETATM   29  C   UNL     1       7.284  33.295  64.783  1.00  0.00     0.102 A 
ENDBRANCH  19  20
ENDBRANCH   2  18
TORSDOF 8
ENDMDL
