MODEL 1
REMARK VINA RESULT:      -8.6      0.000      0.000
REMARK  5 active torsions:
REMARK  status: ('A' for Active; 'I' for Inactive)
REMARK    1  A    between atoms: C_2  and  O_3 
REMARK    2  A    between atoms: O_3  and  C_4 
REMARK    3  A    between atoms: C_8  and  C_9 
REMARK    4  A    between atoms: C_9  and  N_10 
REMARK       I    between atoms: N_10  and  C_11 
REMARK    5  A    between atoms: C_11  and  C_12 
ROOT
HETATM    1  C   UNL     1       6.490  25.534  57.281  1.00  0.00     0.161 C 
ENDROOT
BRANCH   1   2
HETATM    2  C   UNL     1       7.145  26.816  56.855  1.00  0.00    -0.035 A 
HETATM    3  C   UNL     1       6.990  27.307  55.556  1.00  0.00     0.028 A 
HETATM    4  C   UNL     1       7.637  28.485  55.215  1.00  0.00     0.120 A 
HETATM    5  N   UNL     1       8.413  29.192  56.062  1.00  0.00    -0.237 NA
HETATM    6  C   UNL     1       8.554  28.706  57.308  1.00  0.00     0.165 A 
HETATM    7  C   UNL     1       7.952  27.533  57.742  1.00  0.00     0.066 A 
BRANCH   6   8
HETATM    8  O   UNL     1       9.308  29.370  58.246  1.00  0.00    -0.324 OA
BRANCH   8   9
HETATM    9  C   UNL     1       8.791  30.541  58.905  1.00  0.00     0.058 C 
HETATM   10  C   UNL     1       8.774  30.411  60.434  1.00  0.00     0.045 C 
HETATM   11  C   UNL     1       7.432  30.976  58.340  1.00  0.00     0.045 C 
HETATM   12  C   UNL     1       9.814  31.638  58.549  1.00  0.00     0.045 C 
ENDBRANCH   8   9
ENDBRANCH   6   8
ENDBRANCH   1   2
BRANCH   1  13
HETATM   13  N   UNL     1       6.700  24.493  56.305  1.00  0.00    -0.353 N 
HETATM   14  C   UNL     1       7.934  23.899  56.170  1.00  0.00     0.255 C 
HETATM   15  O   UNL     1       8.919  24.204  56.829  1.00  0.00    -0.268 OA
HETATM   16  H   UNL     1       5.929  24.215  55.713  1.00  0.00     0.163 HD
BRANCH  14  17
HETATM   17  C   UNL     1       8.021  22.821  55.167  1.00  0.00     0.075 A 
HETATM   18  C   UNL     1       8.136  21.480  55.558  1.00  0.00     0.051 A 
HETATM   19 CL   UNL     1       8.209  20.991  57.215  1.00  0.00    -0.083 Cl
HETATM   20  C   UNL     1       8.183  20.468  54.593  1.00  0.00     0.025 A 
HETATM   21  C   UNL     1       8.107  20.785  53.237  1.00  0.00     0.003 A 
HETATM   22  C   UNL     1       7.989  22.117  52.844  1.00  0.00     0.025 A 
HETATM   23  C   UNL     1       7.947  23.136  53.802  1.00  0.00     0.051 A 
HETATM   24 CL   UNL     1       7.859  24.761  53.219  1.00  0.00    -0.083 Cl
ENDBRANCH  14  17
ENDBRANCH   1  13
TORSDOF 5
ENDMDL
MODEL 2
REMARK VINA RESULT:      -8.6      1.852      2.949
REMARK  5 active torsions:
REMARK  status: ('A' for Active; 'I' for Inactive)
REMARK    1  A    between atoms: C_2  and  O_3 
REMARK    2  A    between atoms: O_3  and  C_4 
REMARK    3  A    between atoms: C_8  and  C_9 
REMARK    4  A    between atoms: C_9  and  N_10 
REMARK       I    between atoms: N_10  and  C_11 
REMARK    5  A    between atoms: C_11  and  C_12 
ROOT
HETATM    1  C   UNL     1       6.957  28.108  55.678  1.00  0.00     0.161 C 
ENDROOT
BRANCH   1   2
HETATM    2  C   UNL     1       7.996  28.851  56.467  1.00  0.00    -0.035 A 
HETATM    3  C   UNL     1       9.184  29.282  55.869  1.00  0.00     0.028 A 
HETATM    4  C   UNL     1      10.115  29.944  56.654  1.00  0.00     0.120 A 
HETATM    5  N   UNL     1       9.949  30.199  57.969  1.00  0.00    -0.237 NA
HETATM    6  C   UNL     1       8.801  29.777  58.530  1.00  0.00     0.165 A 
HETATM    7  C   UNL     1       7.812  29.102  57.829  1.00  0.00     0.066 A 
BRANCH   6   8
HETATM    8  O   UNL     1       8.534  30.012  59.858  1.00  0.00    -0.324 OA
BRANCH   8   9
HETATM    9  C   UNL     1       8.289  31.350  60.329  1.00  0.00     0.058 C 
HETATM   10  C   UNL     1       7.200  32.078  59.529  1.00  0.00     0.045 C 
HETATM   11  C   UNL     1       9.579  32.173  60.445  1.00  0.00     0.045 C 
HETATM   12  C   UNL     1       7.745  31.137  61.756  1.00  0.00     0.045 C 
ENDBRANCH   8   9
ENDBRANCH   6   8
ENDBRANCH   1   2
BRANCH   1  13
HETATM   13  N   UNL     1       7.470  26.846  55.202  1.00  0.00    -0.353 N 
HETATM   14  C   UNL     1       6.792  25.676  55.457  1.00  0.00     0.255 C 
HETATM   15  O   UNL     1       5.750  25.610  56.095  1.00  0.00    -0.268 OA
HETATM   16  H   UNL     1       8.341  26.834  54.689  1.00  0.00     0.163 HD
BRANCH  14  17
HETATM   17  C   UNL     1       7.389  24.452  54.889  1.00  0.00     0.075 A 
HETATM   18  C   UNL     1       6.959  23.947  53.654  1.00  0.00     0.051 A 
HETATM   19 CL   UNL     1       5.703  24.686  52.726  1.00  0.00    -0.083 Cl
HETATM   20  C   UNL     1       7.561  22.804  53.116  1.00  0.00     0.025 A 
HETATM   21  C   UNL     1       8.598  22.166  53.798  1.00  0.00     0.003 A 
HETATM   22  C   UNL     1       9.030  22.668  55.024  1.00  0.00     0.025 A 
HETATM   23  C   UNL     1       8.430  23.807  55.572  1.00  0.00     0.051 A 
HETATM   24 CL   UNL     1       8.992  24.321  57.125  1.00  0.00    -0.083 Cl
ENDBRANCH  14  17
ENDBRANCH   1  13
TORSDOF 5
ENDMDL
MODEL 3
REMARK VINA RESULT:      -8.3      2.203      4.343
REMARK  5 active torsions:
REMARK  status: ('A' for Active; 'I' for Inactive)
REMARK    1  A    between atoms: C_2  and  O_3 
REMARK    2  A    between atoms: O_3  and  C_4 
REMARK    3  A    between atoms: C_8  and  C_9 
REMARK    4  A    between atoms: C_9  and  N_10 
REMARK       I    between atoms: N_10  and  C_11 
REMARK    5  A    between atoms: C_11  and  C_12 
ROOT
HETATM    1  C   UNL     1       6.990  25.500  57.370  1.00  0.00     0.161 C 
ENDROOT
BRANCH   1   2
HETATM    2  C   UNL     1       6.772  26.822  56.692  1.00  0.00    -0.035 A 
HETATM    3  C   UNL     1       6.644  27.999  57.434  1.00  0.00     0.028 A 
HETATM    4  C   UNL     1       6.423  29.186  56.754  1.00  0.00     0.120 A 
HETATM    5  N   UNL     1       6.319  29.279  55.412  1.00  0.00    -0.237 NA
HETATM    6  C   UNL     1       6.443  28.137  54.712  1.00  0.00     0.165 A 
HETATM    7  C   UNL     1       6.660  26.900  55.302  1.00  0.00     0.066 A 
BRANCH   6   8
HETATM    8  O   UNL     1       6.373  28.137  53.338  1.00  0.00    -0.324 OA
BRANCH   8   9
HETATM    9  C   UNL     1       5.136  27.830  52.669  1.00  0.00     0.058 C 
HETATM   10  C   UNL     1       3.898  28.199  53.498  1.00  0.00     0.045 C 
HETATM   11  C   UNL     1       5.091  26.382  52.162  1.00  0.00     0.045 C 
HETATM   12  C   UNL     1       5.154  28.753  51.434  1.00  0.00     0.045 C 
ENDBRANCH   8   9
ENDBRANCH   6   8
ENDBRANCH   1   2
BRANCH   1  13
HETATM   13  N   UNL     1       7.035  24.424  56.409  1.00  0.00    -0.353 N 
HETATM   14  C   UNL     1       8.230  23.823  56.088  1.00  0.00     0.255 C 
HETATM   15  O   UNL     1       9.311  24.149  56.558  1.00  0.00    -0.268 OA
HETATM   16  H   UNL     1       6.174  24.128  55.967  1.00  0.00     0.163 HD
BRANCH  14  17
HETATM   17  C   UNL     1       8.149  22.710  55.123  1.00  0.00     0.075 A 
HETATM   18  C   UNL     1       8.055  22.955  53.746  1.00  0.00     0.051 A 
HETATM   19 CL   UNL     1       8.005  24.550  53.080  1.00  0.00    -0.083 Cl
HETATM   20  C   UNL     1       8.013  21.886  52.844  1.00  0.00     0.025 A 
HETATM   21  C   UNL     1       8.073  20.572  53.306  1.00  0.00     0.003 A 
HETATM   22  C   UNL     1       8.168  20.324  54.674  1.00  0.00     0.025 A 
HETATM   23  C   UNL     1       8.206  21.387  55.584  1.00  0.00     0.051 A 
HETATM   24 CL   UNL     1       8.265  20.981  57.264  1.00  0.00    -0.083 Cl
ENDBRANCH  14  17
ENDBRANCH   1  13
TORSDOF 5
ENDMDL
MODEL 4
REMARK VINA RESULT:      -8.3      2.223      3.918
REMARK  5 active torsions:
REMARK  status: ('A' for Active; 'I' for Inactive)
REMARK    1  A    between atoms: C_2  and  O_3 
REMARK    2  A    between atoms: O_3  and  C_4 
REMARK    3  A    between atoms: C_8  and  C_9 
REMARK    4  A    between atoms: C_9  and  N_10 
REMARK       I    between atoms: N_10  and  C_11 
REMARK    5  A    between atoms: C_11  and  C_12 
ROOT
HETATM    1  C   UNL     1       6.904  25.562  57.382  1.00  0.00     0.161 C 
ENDROOT
BRANCH   1   2
HETATM    2  C   UNL     1       6.702  26.875  56.682  1.00  0.00    -0.035 A 
HETATM    3  C   UNL     1       6.554  28.061  57.404  1.00  0.00     0.028 A 
HETATM    4  C   UNL     1       6.349  29.239  56.703  1.00  0.00     0.120 A 
HETATM    5  N   UNL     1       6.278  29.314  55.357  1.00  0.00    -0.237 NA
HETATM    6  C   UNL     1       6.421  28.163  54.676  1.00  0.00     0.165 A 
HETATM    7  C   UNL     1       6.624  26.934  55.288  1.00  0.00     0.066 A 
BRANCH   6   8
HETATM    8  O   UNL     1       6.386  28.144  53.301  1.00  0.00    -0.324 OA
BRANCH   8   9
HETATM    9  C   UNL     1       5.159  27.857  52.605  1.00  0.00     0.058 C 
HETATM   10  C   UNL     1       3.910  28.268  53.397  1.00  0.00     0.045 C 
HETATM   11  C   UNL     1       5.091  26.404  52.117  1.00  0.00     0.045 C 
HETATM   12  C   UNL     1       5.230  28.762  51.359  1.00  0.00     0.045 C 
ENDBRANCH   8   9
ENDBRANCH   6   8
ENDBRANCH   1   2
BRANCH   1  13
HETATM   13  N   UNL     1       6.977  24.474  56.437  1.00  0.00    -0.353 N 
HETATM   14  C   UNL     1       8.187  23.895  56.131  1.00  0.00     0.255 C 
HETATM   15  O   UNL     1       9.259  24.250  56.602  1.00  0.00    -0.268 OA
HETATM   16  H   UNL     1       6.126  24.152  55.995  1.00  0.00     0.163 HD
BRANCH  14  17
HETATM   17  C   UNL     1       8.135  22.766  55.182  1.00  0.00     0.075 A 
HETATM   18  C   UNL     1       8.156  21.440  55.637  1.00  0.00     0.051 A 
HETATM   19 CL   UNL     1       8.266  21.027  57.312  1.00  0.00    -0.083 Cl
HETATM   20  C   UNL     1       8.072  20.383  54.724  1.00  0.00     0.025 A 
HETATM   21  C   UNL     1       7.958  20.640  53.358  1.00  0.00     0.003 A 
HETATM   22  C   UNL     1       7.934  21.957  52.902  1.00  0.00     0.025 A 
HETATM   23  C   UNL     1       8.022  23.020  53.807  1.00  0.00     0.051 A 
HETATM   24 CL   UNL     1       8.044  24.617  53.145  1.00  0.00    -0.083 Cl
ENDBRANCH  14  17
ENDBRANCH   1  13
TORSDOF 5
ENDMDL
MODEL 5
REMARK VINA RESULT:      -8.3      2.626      3.580
REMARK  5 active torsions:
REMARK  status: ('A' for Active; 'I' for Inactive)
REMARK    1  A    between atoms: C_2  and  O_3 
REMARK    2  A    between atoms: O_3  and  C_4 
REMARK    3  A    between atoms: C_8  and  C_9 
REMARK    4  A    between atoms: C_9  and  N_10 
REMARK       I    between atoms: N_10  and  C_11 
REMARK    5  A    between atoms: C_11  and  C_12 
ROOT
HETATM    1  C   UNL     1       5.726  24.952  52.707  1.00  0.00     0.161 C 
ENDROOT
BRANCH   1   2
HETATM    2  C   UNL     1       5.226  26.186  53.401  1.00  0.00    -0.035 A 
HETATM    3  C   UNL     1       4.358  27.073  52.759  1.00  0.00     0.028 A 
HETATM    4  C   UNL     1       3.948  28.206  53.443  1.00  0.00     0.120 A 
HETATM    5  N   UNL     1       4.338  28.513  54.698  1.00  0.00    -0.237 NA
HETATM    6  C   UNL     1       5.175  27.651  55.302  1.00  0.00     0.165 A 
HETATM    7  C   UNL     1       5.645  26.493  54.698  1.00  0.00     0.066 A 
BRANCH   6   8
HETATM    8  O   UNL     1       5.608  27.869  56.589  1.00  0.00    -0.324 OA
BRANCH   8   9
HETATM    9  C   UNL     1       6.702  28.768  56.849  1.00  0.00     0.058 C 
HETATM   10  C   UNL     1       6.250  30.099  57.466  1.00  0.00     0.045 C 
HETATM   11  C   UNL     1       7.599  28.967  55.620  1.00  0.00     0.045 C 
HETATM   12  C   UNL     1       7.534  28.027  57.916  1.00  0.00     0.045 C 
ENDBRANCH   8   9
ENDBRANCH   6   8
ENDBRANCH   1   2
BRANCH   1  13
HETATM   13  N   UNL     1       6.194  23.974  53.658  1.00  0.00    -0.353 N 
HETATM   14  C   UNL     1       7.506  23.563  53.649  1.00  0.00     0.255 C 
HETATM   15  O   UNL     1       8.347  23.963  52.856  1.00  0.00    -0.268 OA
HETATM   16  H   UNL     1       5.538  23.587  54.324  1.00  0.00     0.163 HD
BRANCH  14  17
HETATM   17  C   UNL     1       7.880  22.588  54.692  1.00  0.00     0.075 A 
HETATM   18  C   UNL     1       8.109  22.998  56.013  1.00  0.00     0.051 A 
HETATM   19 CL   UNL     1       7.999  24.649  56.513  1.00  0.00    -0.083 Cl
HETATM   20  C   UNL     1       8.430  22.055  56.996  1.00  0.00     0.025 A 
HETATM   21  C   UNL     1       8.514  20.701  56.671  1.00  0.00     0.003 A 
HETATM   22  C   UNL     1       8.284  20.289  55.360  1.00  0.00     0.025 A 
HETATM   23  C   UNL     1       7.968  21.226  54.370  1.00  0.00     0.051 A 
HETATM   24 CL   UNL     1       7.757  20.629  52.761  1.00  0.00    -0.083 Cl
ENDBRANCH  14  17
ENDBRANCH   1  13
TORSDOF 5
ENDMDL
MODEL 6
REMARK VINA RESULT:      -8.2      2.287      3.203
REMARK  5 active torsions:
REMARK  status: ('A' for Active; 'I' for Inactive)
REMARK    1  A    between atoms: C_2  and  O_3 
REMARK    2  A    between atoms: O_3  and  C_4 
REMARK    3  A    between atoms: C_8  and  C_9 
REMARK    4  A    between atoms: C_9  and  N_10 
REMARK       I    between atoms: N_10  and  C_11 
REMARK    5  A    between atoms: C_11  and  C_12 
ROOT
HETATM    1  C   UNL     1       6.121  25.072  52.754  1.00  0.00     0.161 C 
ENDROOT
BRANCH   1   2
HETATM    2  C   UNL     1       5.895  26.362  53.488  1.00  0.00    -0.035 A 
HETATM    3  C   UNL     1       4.635  26.965  53.515  1.00  0.00     0.028 A 
HETATM    4  C   UNL     1       4.493  28.167  54.190  1.00  0.00     0.120 A 
HETATM    5  N   UNL     1       5.502  28.799  54.825  1.00  0.00    -0.237 NA
HETATM    6  C   UNL     1       6.709  28.208  54.789  1.00  0.00     0.165 A 
HETATM    7  C   UNL     1       6.951  27.008  54.135  1.00  0.00     0.066 A 
BRANCH   6   8
HETATM    8  O   UNL     1       7.791  28.767  55.427  1.00  0.00    -0.324 OA
BRANCH   8   9
HETATM    9  C   UNL     1       7.819  28.873  56.862  1.00  0.00     0.058 C 
HETATM   10  C   UNL     1       7.236  27.640  57.566  1.00  0.00     0.045 C 
HETATM   11  C   UNL     1       7.196  30.183  57.363  1.00  0.00     0.045 C 
HETATM   12  C   UNL     1       9.325  28.920  57.192  1.00  0.00     0.045 C 
ENDBRANCH   8   9
ENDBRANCH   6   8
ENDBRANCH   1   2
BRANCH   1  13
HETATM   13  N   UNL     1       6.463  24.008  53.666  1.00  0.00    -0.353 N 
HETATM   14  C   UNL     1       7.724  23.458  53.657  1.00  0.00     0.255 C 
HETATM   15  O   UNL     1       8.618  23.799  52.893  1.00  0.00    -0.268 OA
HETATM   16  H   UNL     1       5.758  23.666  54.305  1.00  0.00     0.163 HD
BRANCH  14  17
HETATM   17  C   UNL     1       7.972  22.404  54.659  1.00  0.00     0.075 A 
HETATM   18  C   UNL     1       8.081  21.059  54.279  1.00  0.00     0.051 A 
HETATM   19 CL   UNL     1       7.913  20.532  52.641  1.00  0.00    -0.083 Cl
HETATM   20  C   UNL     1       8.349  20.078  55.240  1.00  0.00     0.025 A 
HETATM   21  C   UNL     1       8.519  20.431  56.579  1.00  0.00     0.003 A 
HETATM   22  C   UNL     1       8.415  21.767  56.960  1.00  0.00     0.025 A 
HETATM   23  C   UNL     1       8.141  22.754  56.007  1.00  0.00     0.051 A 
HETATM   24 CL   UNL     1       7.971  24.376  56.582  1.00  0.00    -0.083 Cl
ENDBRANCH  14  17
ENDBRANCH   1  13
TORSDOF 5
ENDMDL
MODEL 7
REMARK VINA RESULT:      -8.0      1.836      2.930
REMARK  5 active torsions:
REMARK  status: ('A' for Active; 'I' for Inactive)
REMARK    1  A    between atoms: C_2  and  O_3 
REMARK    2  A    between atoms: O_3  and  C_4 
REMARK    3  A    between atoms: C_8  and  C_9 
REMARK    4  A    between atoms: C_9  and  N_10 
REMARK       I    between atoms: N_10  and  C_11 
REMARK    5  A    between atoms: C_11  and  C_12 
ROOT
HETATM    1  C   UNL     1       6.428  25.455  57.122  1.00  0.00     0.161 C 
ENDROOT
BRANCH   1   2
HETATM    2  C   UNL     1       6.095  26.693  56.340  1.00  0.00    -0.035 A 
HETATM    3  C   UNL     1       5.493  26.611  55.082  1.00  0.00     0.028 A 
HETATM    4  C   UNL     1       5.229  27.787  54.399  1.00  0.00     0.120 A 
HETATM    5  N   UNL     1       5.521  29.017  54.872  1.00  0.00    -0.237 NA
HETATM    6  C   UNL     1       6.102  29.080  56.084  1.00  0.00     0.165 A 
HETATM    7  C   UNL     1       6.410  27.958  56.842  1.00  0.00     0.066 A 
BRANCH   6   8
HETATM    8  O   UNL     1       6.416  30.289  56.657  1.00  0.00    -0.324 OA
BRANCH   8   9
HETATM    9  C   UNL     1       5.383  31.126  57.210  1.00  0.00     0.058 C 
HETATM   10  C   UNL     1       4.194  30.327  57.761  1.00  0.00     0.045 C 
HETATM   11  C   UNL     1       4.947  32.232  56.240  1.00  0.00     0.045 C 
HETATM   12  C   UNL     1       6.073  31.807  58.409  1.00  0.00     0.045 C 
ENDBRANCH   8   9
ENDBRANCH   6   8
ENDBRANCH   1   2
BRANCH   1  13
HETATM   13  N   UNL     1       6.614  24.322  56.248  1.00  0.00    -0.353 N 
HETATM   14  C   UNL     1       7.878  23.851  55.975  1.00  0.00     0.255 C 
HETATM   15  O   UNL     1       8.906  24.343  56.419  1.00  0.00    -0.268 OA
HETATM   16  H   UNL     1       5.802  23.889  55.830  1.00  0.00     0.163 HD
BRANCH  14  17
HETATM   17  C   UNL     1       7.944  22.665  55.099  1.00  0.00     0.075 A 
HETATM   18  C   UNL     1       7.817  22.788  53.709  1.00  0.00     0.051 A 
HETATM   19 CL   UNL     1       7.554  24.305  52.923  1.00  0.00    -0.083 Cl
HETATM   20  C   UNL     1       7.915  21.656  52.892  1.00  0.00     0.025 A 
HETATM   21  C   UNL     1       8.149  20.401  53.453  1.00  0.00     0.003 A 
HETATM   22  C   UNL     1       8.279  20.275  54.835  1.00  0.00     0.025 A 
HETATM   23  C   UNL     1       8.177  21.401  55.660  1.00  0.00     0.051 A 
HETATM   24 CL   UNL     1       8.292  21.139  57.365  1.00  0.00    -0.083 Cl
ENDBRANCH  14  17
ENDBRANCH   1  13
TORSDOF 5
ENDMDL
MODEL 8
REMARK VINA RESULT:      -7.9      6.106      9.214
REMARK  5 active torsions:
REMARK  status: ('A' for Active; 'I' for Inactive)
REMARK    1  A    between atoms: C_2  and  O_3 
REMARK    2  A    between atoms: O_3  and  C_4 
REMARK    3  A    between atoms: C_8  and  C_9 
REMARK    4  A    between atoms: C_9  and  N_10 
REMARK       I    between atoms: N_10  and  C_11 
REMARK    5  A    between atoms: C_11  and  C_12 
ROOT
HETATM    1  C   UNL     1       5.441  32.608  61.069  1.00  0.00     0.161 C 
ENDROOT
BRANCH   1   2
HETATM    2  C   UNL     1       5.955  32.873  62.455  1.00  0.00    -0.035 A 
HETATM    3  C   UNL     1       7.320  32.797  62.745  1.00  0.00     0.028 A 
HETATM    4  C   UNL     1       7.732  33.030  64.047  1.00  0.00     0.120 A 
HETATM    5  N   UNL     1       6.894  33.327  65.062  1.00  0.00    -0.237 NA
HETATM    6  C   UNL     1       5.583  33.396  64.768  1.00  0.00     0.165 A 
HETATM    7  C   UNL     1       5.074  33.172  63.497  1.00  0.00     0.066 A 
BRANCH   6   8
HETATM    8  O   UNL     1       4.657  33.713  65.733  1.00  0.00    -0.324 OA
BRANCH   8   9
HETATM    9  C   UNL     1       4.561  35.057  66.240  1.00  0.00     0.058 C 
HETATM   10  C   UNL     1       4.858  36.122  65.176  1.00  0.00     0.045 C 
HETATM   11  C   UNL     1       5.386  35.259  67.518  1.00  0.00     0.045 C 
HETATM   12  C   UNL     1       3.073  35.194  66.622  1.00  0.00     0.045 C 
ENDBRANCH   8   9
ENDBRANCH   6   8
ENDBRANCH   1   2
BRANCH   1  13
HETATM   13  N   UNL     1       6.269  31.647  60.383  1.00  0.00    -0.353 N 
HETATM   14  C   UNL     1       6.597  31.826  59.059  1.00  0.00     0.255 C 
HETATM   15  O   UNL     1       6.216  32.768  58.377  1.00  0.00    -0.268 OA
HETATM   16  H   UNL     1       6.594  30.833  60.888  1.00  0.00     0.163 HD
BRANCH  14  17
HETATM   17  C   UNL     1       7.480  30.800  58.472  1.00  0.00     0.075 A 
HETATM   18  C   UNL     1       6.951  29.726  57.742  1.00  0.00     0.051 A 
HETATM   19 CL   UNL     1       5.254  29.508  57.494  1.00  0.00    -0.083 Cl
HETATM   20  C   UNL     1       7.806  28.780  57.165  1.00  0.00     0.025 A 
HETATM   21  C   UNL     1       9.188  28.904  57.304  1.00  0.00     0.003 A 
HETATM   22  C   UNL     1       9.718  29.971  58.026  1.00  0.00     0.025 A 
HETATM   23  C   UNL     1       8.870  30.918  58.611  1.00  0.00     0.051 A 
HETATM   24 CL   UNL     1       9.615  32.174  59.538  1.00  0.00    -0.083 Cl
ENDBRANCH  14  17
ENDBRANCH   1  13
TORSDOF 5
ENDMDL
MODEL 9
REMARK VINA RESULT:      -7.9      1.824      2.159
REMARK  5 active torsions:
REMARK  status: ('A' for Active; 'I' for Inactive)
REMARK    1  A    between atoms: C_2  and  O_3 
REMARK    2  A    between atoms: O_3  and  C_4 
REMARK    3  A    between atoms: C_8  and  C_9 
REMARK    4  A    between atoms: C_9  and  N_10 
REMARK       I    between atoms: N_10  and  C_11 
REMARK    5  A    between atoms: C_11  and  C_12 
ROOT
HETATM    1  C   UNL     1       6.521  25.442  57.148  1.00  0.00     0.161 C 
ENDROOT
BRANCH   1   2
HETATM    2  C   UNL     1       6.194  26.694  56.387  1.00  0.00    -0.035 A 
HETATM    3  C   UNL     1       5.602  26.635  55.122  1.00  0.00     0.028 A 
HETATM    4  C   UNL     1       5.344  27.824  54.459  1.00  0.00     0.120 A 
HETATM    5  N   UNL     1       5.630  29.045  54.958  1.00  0.00    -0.237 NA
HETATM    6  C   UNL     1       6.201  29.085  56.176  1.00  0.00     0.165 A 
HETATM    7  C   UNL     1       6.503  27.950  56.915  1.00  0.00     0.066 A 
BRANCH   6   8
HETATM    8  O   UNL     1       6.509  30.284  56.774  1.00  0.00    -0.324 OA
BRANCH   8   9
HETATM    9  C   UNL     1       5.475  31.093  57.364  1.00  0.00     0.058 C 
HETATM   10  C   UNL     1       5.978  31.953  58.532  1.00  0.00     0.045 C 
HETATM   11  C   UNL     1       4.232  30.273  57.735  1.00  0.00     0.045 C 
HETATM   12  C   UNL     1       5.074  32.054  56.227  1.00  0.00     0.045 C 
ENDBRANCH   8   9
ENDBRANCH   6   8
ENDBRANCH   1   2
BRANCH   1  13
HETATM   13  N   UNL     1       6.715  24.326  56.255  1.00  0.00    -0.353 N 
HETATM   14  C   UNL     1       7.981  23.861  55.981  1.00  0.00     0.255 C 
HETATM   15  O   UNL     1       9.006  24.346  56.442  1.00  0.00    -0.268 OA
HETATM   16  H   UNL     1       5.906  23.899  55.824  1.00  0.00     0.163 HD
BRANCH  14  17
HETATM   17  C   UNL     1       8.054  22.692  55.085  1.00  0.00     0.075 A 
HETATM   18  C   UNL     1       8.192  21.395  55.601  1.00  0.00     0.051 A 
HETATM   19 CL   UNL     1       8.307  21.070  57.295  1.00  0.00    -0.083 Cl
HETATM   20  C   UNL     1       8.226  20.295  54.737  1.00  0.00     0.025 A 
HETATM   21  C   UNL     1       8.115  20.479  53.359  1.00  0.00     0.003 A 
HETATM   22  C   UNL     1       7.975  21.766  52.842  1.00  0.00     0.025 A 
HETATM   23  C   UNL     1       7.945  22.872  53.698  1.00  0.00     0.051 A 
HETATM   24 CL   UNL     1       7.829  24.433  52.963  1.00  0.00    -0.083 Cl
ENDBRANCH  14  17
ENDBRANCH   1  13
TORSDOF 5
ENDMDL
MODEL 10
REMARK VINA RESULT:      -7.9      3.932      8.822
REMARK  5 active torsions:
REMARK  status: ('A' for Active; 'I' for Inactive)
REMARK    1  A    between atoms: C_2  and  O_3 
REMARK    2  A    between atoms: O_3  and  C_4 
REMARK    3  A    between atoms: C_8  and  C_9 
REMARK    4  A    between atoms: C_9  and  N_10 
REMARK       I    between atoms: N_10  and  C_11 
REMARK    5  A    between atoms: C_11  and  C_12 
ROOT
HETATM    1  C   UNL     1       8.312  29.080  57.994  1.00  0.00     0.161 C 
ENDROOT
BRANCH   1   2
HETATM    2  C   UNL     1       7.134  28.447  57.310  1.00  0.00    -0.035 A 
HETATM    3  C   UNL     1       5.904  29.105  57.236  1.00  0.00     0.028 A 
HETATM    4  C   UNL     1       4.848  28.461  56.611  1.00  0.00     0.120 A 
HETATM    5  N   UNL     1       4.932  27.229  56.066  1.00  0.00    -0.237 NA
HETATM    6  C   UNL     1       6.122  26.608  56.146  1.00  0.00     0.165 A 
HETATM    7  C   UNL     1       7.235  27.168  56.757  1.00  0.00     0.066 A 
BRANCH   6   8
HETATM    8  O   UNL     1       6.308  25.360  55.600  1.00  0.00    -0.324 OA
BRANCH   8   9
HETATM    9  C   UNL     1       6.463  25.200  54.178  1.00  0.00     0.058 C 
HETATM   10  C   UNL     1       7.292  26.321  53.535  1.00  0.00     0.045 C 
HETATM   11  C   UNL     1       5.122  24.982  53.465  1.00  0.00     0.045 C 
HETATM   12  C   UNL     1       7.275  23.896  54.047  1.00  0.00     0.045 C 
ENDBRANCH   8   9
ENDBRANCH   6   8
ENDBRANCH   1   2
BRANCH   1  13
HETATM   13  N   UNL     1       7.908  29.756  59.203  1.00  0.00    -0.353 N 
HETATM   14  C   UNL     1       8.268  31.066  59.425  1.00  0.00     0.255 C 
HETATM   15  O   UNL     1       8.945  31.733  58.655  1.00  0.00    -0.268 OA
HETATM   16  H   UNL     1       7.367  29.248  59.890  1.00  0.00     0.163 HD
BRANCH  14  17
HETATM   17  C   UNL     1       7.766  31.664  60.677  1.00  0.00     0.075 A 
HETATM   18  C   UNL     1       8.409  31.423  61.899  1.00  0.00     0.051 A 
HETATM   19 CL   UNL     1       9.799  30.404  62.041  1.00  0.00    -0.083 Cl
HETATM   20  C   UNL     1       7.939  32.026  63.071  1.00  0.00     0.025 A 
HETATM   21  C   UNL     1       6.836  32.878  63.031  1.00  0.00     0.003 A 
HETATM   22  C   UNL     1       6.196  33.124  61.817  1.00  0.00     0.025 A 
HETATM   23  C   UNL     1       6.656  32.520  60.641  1.00  0.00     0.051 A 
HETATM   24 CL   UNL     1       5.764  32.837  59.194  1.00  0.00    -0.083 Cl
ENDBRANCH  14  17
ENDBRANCH   1  13
TORSDOF 5
ENDMDL
