MODEL 1
REMARK VINA RESULT:      -8.8      0.000      0.000
REMARK  3 active torsions:
REMARK  status: ('A' for Active; 'I' for Inactive)
REMARK    1  A    between atoms: C_5  and  N_6 
REMARK       I    between atoms: N_6  and  C_7 
REMARK    2  A    between atoms: C_7  and  C_8 
REMARK    3  A    between atoms: C_8  and  C_9 
ROOT
HETATM    1  C   UNL     1       5.430  27.507  55.934  1.00  0.00     0.286 C 
HETATM    2  N   UNL     1       5.014  26.432  54.920  1.00  0.00    -0.056 N 
HETATM    3  H   UNL     1       5.419  25.526  55.206  1.00  0.00     0.278 HD
HETATM    4  H   UNL     1       3.992  26.323  54.955  1.00  0.00     0.278 HD
HETATM    5  C   UNL     1       5.446  26.687  53.497  1.00  0.00     0.209 C 
HETATM    6  C   UNL     1       5.064  28.119  53.081  1.00  0.00     0.115 C 
HETATM    7  N   UNL     1       5.580  29.105  54.013  1.00  0.00    -0.353 N 
HETATM    8  C   UNL     1       5.634  28.926  55.367  1.00  0.00     0.249 C 
HETATM    9  O   UNL     1       5.919  29.870  56.100  1.00  0.00    -0.271 OA
HETATM   10  C   UNL     1       4.798  25.662  52.570  1.00  0.00     0.035 C 
HETATM   11  C   UNL     1       5.245  25.906  51.128  1.00  0.00     0.002 C 
HETATM   12  C   UNL     1       5.006  27.349  50.677  1.00  0.00     0.002 C 
HETATM   13  C   UNL     1       5.571  28.377  51.659  1.00  0.00     0.027 C 
HETATM   14  H   UNL     1       5.673  30.075  53.714  1.00  0.00     0.163 HD
ENDROOT
BRANCH   1  15
HETATM   15  C   UNL     1       6.656  27.086  56.753  1.00  0.00     0.146 C 
BRANCH  15  16
HETATM   16  C   UNL     1       6.856  25.601  56.604  1.00  0.00     0.224 C 
HETATM   17  N   UNL     1       7.932  25.267  55.812  1.00  0.00    -0.327 N 
HETATM   18  H   UNL     1       8.635  25.981  55.633  1.00  0.00     0.169 HD
HETATM   19  O   UNL     1       5.975  24.858  57.029  1.00  0.00    -0.273 OA
BRANCH  17  20
HETATM   20  C   UNL     1       8.140  24.050  55.127  1.00  0.00     0.034 A 
HETATM   21  C   UNL     1       8.526  22.860  55.746  1.00  0.00     0.030 A 
HETATM   22  C   UNL     1       8.613  21.674  55.009  1.00  0.00     0.009 A 
HETATM   23  C   UNL     1       8.333  21.661  53.639  1.00  0.00    -0.062 A 
HETATM   24  C   UNL     1       8.380  20.378  52.861  1.00  0.00     0.048 C 
HETATM   25  C   UNL     1       7.958  22.855  53.016  1.00  0.00     0.009 A 
HETATM   26  C   UNL     1       7.868  24.040  53.754  1.00  0.00     0.030 A 
ENDBRANCH  17  20
ENDBRANCH  15  16
ENDBRANCH   1  15
TORSDOF 3
ENDMDL
MODEL 2
REMARK VINA RESULT:      -8.7      3.267      5.203
REMARK  3 active torsions:
REMARK  status: ('A' for Active; 'I' for Inactive)
REMARK    1  A    between atoms: C_5  and  N_6 
REMARK       I    between atoms: N_6  and  C_7 
REMARK    2  A    between atoms: C_7  and  C_8 
REMARK    3  A    between atoms: C_8  and  C_9 
ROOT
HETATM    1  C   UNL     1       6.903  28.589  57.043  1.00  0.00     0.286 C 
HETATM    2  N   UNL     1       8.242  29.097  57.597  1.00  0.00    -0.056 N 
HETATM    3  H   UNL     1       8.833  28.286  57.844  1.00  0.00     0.278 HD
HETATM    4  H   UNL     1       8.736  29.605  56.852  1.00  0.00     0.278 HD
HETATM    5  C   UNL     1       8.143  29.970  58.823  1.00  0.00     0.209 C 
HETATM    6  C   UNL     1       7.100  31.079  58.594  1.00  0.00     0.115 C 
HETATM    7  N   UNL     1       5.818  30.536  58.181  1.00  0.00    -0.353 N 
HETATM    8  C   UNL     1       5.673  29.467  57.342  1.00  0.00     0.249 C 
HETATM    9  O   UNL     1       4.562  29.179  56.903  1.00  0.00    -0.271 OA
HETATM   10  C   UNL     1       9.509  30.569  59.142  1.00  0.00     0.035 C 
HETATM   11  C   UNL     1       9.418  31.443  60.394  1.00  0.00     0.002 C 
HETATM   12  C   UNL     1       8.316  32.500  60.289  1.00  0.00     0.002 C 
HETATM   13  C   UNL     1       6.968  31.911  59.873  1.00  0.00     0.027 C 
HETATM   14  H   UNL     1       4.977  31.100  58.292  1.00  0.00     0.163 HD
ENDROOT
BRANCH   1  15
HETATM   15  C   UNL     1       6.624  27.137  57.449  1.00  0.00     0.146 C 
BRANCH  15  16
HETATM   16  C   UNL     1       7.535  26.227  56.668  1.00  0.00     0.224 C 
HETATM   17  N   UNL     1       6.897  25.542  55.658  1.00  0.00    -0.327 N 
HETATM   18  H   UNL     1       5.991  25.885  55.344  1.00  0.00     0.169 HD
HETATM   19  O   UNL     1       8.671  26.045  57.099  1.00  0.00    -0.273 OA
BRANCH  17  20
HETATM   20  C   UNL     1       7.313  24.338  55.049  1.00  0.00     0.034 A 
HETATM   21  C   UNL     1       7.433  23.122  55.723  1.00  0.00     0.030 A 
HETATM   22  C   UNL     1       7.755  21.953  55.023  1.00  0.00     0.009 A 
HETATM   23  C   UNL     1       7.982  21.985  53.644  1.00  0.00    -0.062 A 
HETATM   24  C   UNL     1       8.279  20.722  52.889  1.00  0.00     0.048 C 
HETATM   25  C   UNL     1       7.874  23.205  52.971  1.00  0.00     0.009 A 
HETATM   26  C   UNL     1       7.548  24.372  53.670  1.00  0.00     0.030 A 
ENDBRANCH  17  20
ENDBRANCH  15  16
ENDBRANCH   1  15
TORSDOF 3
ENDMDL
MODEL 3
REMARK VINA RESULT:      -8.6      2.810      6.907
REMARK  3 active torsions:
REMARK  status: ('A' for Active; 'I' for Inactive)
REMARK    1  A    between atoms: C_5  and  N_6 
REMARK       I    between atoms: N_6  and  C_7 
REMARK    2  A    between atoms: C_7  and  C_8 
REMARK    3  A    between atoms: C_8  and  C_9 
ROOT
HETATM    1  C   UNL     1       7.924  24.999  55.585  1.00  0.00     0.286 C 
HETATM    2  N   UNL     1       7.952  24.231  54.256  1.00  0.00    -0.056 N 
HETATM    3  H   UNL     1       7.192  24.580  53.650  1.00  0.00     0.278 HD
HETATM    4  H   UNL     1       8.835  24.441  53.773  1.00  0.00     0.278 HD
HETATM    5  C   UNL     1       7.783  22.737  54.372  1.00  0.00     0.209 C 
HETATM    6  C   UNL     1       8.746  22.180  55.436  1.00  0.00     0.115 C 
HETATM    7  N   UNL     1       8.598  22.866  56.707  1.00  0.00    -0.353 N 
HETATM    8  C   UNL     1       8.361  24.206  56.833  1.00  0.00     0.249 C 
HETATM    9  O   UNL     1       8.422  24.739  57.938  1.00  0.00    -0.271 OA
HETATM   10  C   UNL     1       8.035  22.082  53.017  1.00  0.00     0.035 C 
HETATM   11  C   UNL     1       7.849  20.568  53.125  1.00  0.00     0.002 C 
HETATM   12  C   UNL     1       8.690  19.954  54.247  1.00  0.00     0.002 C 
HETATM   13  C   UNL     1       8.510  20.674  55.584  1.00  0.00     0.027 C 
HETATM   14  H   UNL     1       8.932  22.418  57.559  1.00  0.00     0.163 HD
ENDROOT
BRANCH   1  15
HETATM   15  C   UNL     1       6.568  25.670  55.837  1.00  0.00     0.146 C 
BRANCH  15  16
HETATM   16  C   UNL     1       6.784  27.145  56.050  1.00  0.00     0.224 C 
HETATM   17  N   UNL     1       8.033  27.453  56.540  1.00  0.00    -0.327 N 
HETATM   18  H   UNL     1       8.767  26.753  56.457  1.00  0.00     0.169 HD
HETATM   19  O   UNL     1       5.811  27.888  55.950  1.00  0.00    -0.273 OA
BRANCH  17  20
HETATM   20  C   UNL     1       8.409  28.619  57.243  1.00  0.00     0.034 A 
HETATM   21  C   UNL     1       7.668  29.176  58.287  1.00  0.00     0.030 A 
HETATM   22  C   UNL     1       8.162  30.276  58.998  1.00  0.00     0.009 A 
HETATM   23  C   UNL     1       9.393  30.848  58.666  1.00  0.00    -0.062 A 
HETATM   24  C   UNL     1       9.942  31.996  59.462  1.00  0.00     0.048 C 
HETATM   25  C   UNL     1      10.130  30.298  57.613  1.00  0.00     0.009 A 
HETATM   26  C   UNL     1       9.638  29.197  56.905  1.00  0.00     0.030 A 
ENDBRANCH  17  20
ENDBRANCH  15  16
ENDBRANCH   1  15
TORSDOF 3
ENDMDL
MODEL 4
REMARK VINA RESULT:      -8.6      1.561      6.138
REMARK  3 active torsions:
REMARK  status: ('A' for Active; 'I' for Inactive)
REMARK    1  A    between atoms: C_5  and  N_6 
REMARK       I    between atoms: N_6  and  C_7 
REMARK    2  A    between atoms: C_7  and  C_8 
REMARK    3  A    between atoms: C_8  and  C_9 
ROOT
HETATM    1  C   UNL     1       7.755  25.453  55.897  1.00  0.00     0.286 C 
HETATM    2  N   UNL     1       7.881  24.467  54.726  1.00  0.00    -0.056 N 
HETATM    3  H   UNL     1       7.181  24.709  54.006  1.00  0.00     0.278 HD
HETATM    4  H   UNL     1       8.805  24.588  54.291  1.00  0.00     0.278 HD
HETATM    5  C   UNL     1       7.676  23.015  55.081  1.00  0.00     0.209 C 
HETATM    6  C   UNL     1       8.537  22.647  56.304  1.00  0.00     0.115 C 
HETATM    7  N   UNL     1       8.295  23.542  57.421  1.00  0.00    -0.353 N 
HETATM    8  C   UNL     1       8.071  24.884  57.294  1.00  0.00     0.249 C 
HETATM    9  O   UNL     1       8.049  25.600  58.293  1.00  0.00    -0.271 OA
HETATM   10  C   UNL     1       8.030  22.137  53.885  1.00  0.00     0.035 C 
HETATM   11  C   UNL     1       7.809  20.664  54.233  1.00  0.00     0.002 C 
HETATM   12  C   UNL     1       8.542  20.250  55.512  1.00  0.00     0.002 C 
HETATM   13  C   UNL     1       8.262  21.190  56.686  1.00  0.00     0.027 C 
HETATM   14  H   UNL     1       8.548  23.246  58.362  1.00  0.00     0.163 HD
ENDROOT
BRANCH   1  15
HETATM   15  C   UNL     1       6.395  26.160  55.913  1.00  0.00     0.146 C 
BRANCH  15  16
HETATM   16  C   UNL     1       6.239  26.948  54.639  1.00  0.00     0.224 C 
HETATM   17  N   UNL     1       5.060  26.694  53.975  1.00  0.00    -0.327 N 
HETATM   18  H   UNL     1       4.305  26.249  54.492  1.00  0.00     0.169 HD
HETATM   19  O   UNL     1       7.213  27.576  54.230  1.00  0.00    -0.273 OA
BRANCH  17  20
HETATM   20  C   UNL     1       4.792  26.900  52.604  1.00  0.00     0.034 A 
HETATM   21  C   UNL     1       4.271  28.084  52.078  1.00  0.00     0.030 A 
HETATM   22  C   UNL     1       4.130  28.243  50.694  1.00  0.00     0.009 A 
HETATM   23  C   UNL     1       4.490  27.216  49.816  1.00  0.00    -0.062 A 
HETATM   24  C   UNL     1       4.384  27.408  48.331  1.00  0.00     0.048 C 
HETATM   25  C   UNL     1       5.001  26.026  50.343  1.00  0.00     0.009 A 
HETATM   26  C   UNL     1       5.144  25.869  51.726  1.00  0.00     0.030 A 
ENDBRANCH  17  20
ENDBRANCH  15  16
ENDBRANCH   1  15
TORSDOF 3
ENDMDL
MODEL 5
REMARK VINA RESULT:      -8.4      3.495      5.520
REMARK  3 active torsions:
REMARK  status: ('A' for Active; 'I' for Inactive)
REMARK    1  A    between atoms: C_5  and  N_6 
REMARK       I    between atoms: N_6  and  C_7 
REMARK    2  A    between atoms: C_7  and  C_8 
REMARK    3  A    between atoms: C_8  and  C_9 
ROOT
HETATM    1  C   UNL     1       6.735  29.101  57.099  1.00  0.00     0.286 C 
HETATM    2  N   UNL     1       8.091  29.463  57.721  1.00  0.00    -0.056 N 
HETATM    3  H   UNL     1       8.630  28.597  57.880  1.00  0.00     0.278 HD
HETATM    4  H   UNL     1       8.626  30.023  57.044  1.00  0.00     0.278 HD
HETATM    5  C   UNL     1       8.021  30.196  59.037  1.00  0.00     0.209 C 
HETATM    6  C   UNL     1       7.048  31.384  58.926  1.00  0.00     0.115 C 
HETATM    7  N   UNL     1       5.744  30.967  58.440  1.00  0.00    -0.353 N 
HETATM    8  C   UNL     1       5.552  30.012  57.483  1.00  0.00     0.249 C 
HETATM    9  O   UNL     1       4.434  29.841  57.003  1.00  0.00    -0.271 OA
HETATM   10  C   UNL     1       9.414  30.673  59.437  1.00  0.00     0.035 C 
HETATM   11  C   UNL     1       9.352  31.404  60.779  1.00  0.00     0.002 C 
HETATM   12  C   UNL     1       8.315  32.529  60.785  1.00  0.00     0.002 C 
HETATM   13  C   UNL     1       6.942  32.072  60.290  1.00  0.00     0.027 C 
HETATM   14  H   UNL     1       4.935  31.564  58.606  1.00  0.00     0.163 HD
ENDROOT
BRANCH   1  15
HETATM   15  C   UNL     1       6.365  27.632  57.333  1.00  0.00     0.146 C 
BRANCH  15  16
HETATM   16  C   UNL     1       7.267  26.762  56.498  1.00  0.00     0.224 C 
HETATM   17  N   UNL     1       6.604  26.068  55.511  1.00  0.00    -0.327 N 
HETATM   18  H   UNL     1       5.674  26.385  55.244  1.00  0.00     0.169 HD
HETATM   19  O   UNL     1       8.428  26.613  56.873  1.00  0.00    -0.273 OA
BRANCH  17  20
HETATM   20  C   UNL     1       7.031  24.886  54.866  1.00  0.00     0.034 A 
HETATM   21  C   UNL     1       7.540  24.844  53.567  1.00  0.00     0.030 A 
HETATM   22  C   UNL     1       8.035  23.646  53.039  1.00  0.00     0.009 A 
HETATM   23  C   UNL     1       8.011  22.468  53.792  1.00  0.00    -0.062 A 
HETATM   24  C   UNL     1       8.587  21.197  53.241  1.00  0.00     0.048 C 
HETATM   25  C   UNL     1       7.490  22.508  55.089  1.00  0.00     0.009 A 
HETATM   26  C   UNL     1       6.999  23.706  55.618  1.00  0.00     0.030 A 
ENDBRANCH  17  20
ENDBRANCH  15  16
ENDBRANCH   1  15
TORSDOF 3
ENDMDL
MODEL 6
REMARK VINA RESULT:      -8.1      4.741      8.168
REMARK  3 active torsions:
REMARK  status: ('A' for Active; 'I' for Inactive)
REMARK    1  A    between atoms: C_5  and  N_6 
REMARK       I    between atoms: N_6  and  C_7 
REMARK    2  A    between atoms: C_7  and  C_8 
REMARK    3  A    between atoms: C_8  and  C_9 
ROOT
HETATM    1  C   UNL     1       7.361  28.344  57.433  1.00  0.00     0.286 C 
HETATM    2  N   UNL     1       8.022  27.012  57.817  1.00  0.00    -0.056 N 
HETATM    3  H   UNL     1       9.001  27.190  58.094  1.00  0.00     0.278 HD
HETATM    4  H   UNL     1       7.545  26.634  58.645  1.00  0.00     0.278 HD
HETATM    5  C   UNL     1       8.046  25.968  56.728  1.00  0.00     0.209 C 
HETATM    6  C   UNL     1       6.643  25.815  56.115  1.00  0.00     0.115 C 
HETATM    7  N   UNL     1       6.111  27.089  55.665  1.00  0.00    -0.353 N 
HETATM    8  C   UNL     1       6.294  28.272  56.323  1.00  0.00     0.249 C 
HETATM    9  O   UNL     1       5.668  29.271  55.974  1.00  0.00    -0.271 OA
HETATM   10  C   UNL     1       8.536  24.640  57.299  1.00  0.00     0.035 C 
HETATM   11  C   UNL     1       8.579  23.581  56.196  1.00  0.00     0.002 C 
HETATM   12  C   UNL     1       7.245  23.454  55.456  1.00  0.00     0.002 C 
HETATM   13  C   UNL     1       6.706  24.800  54.970  1.00  0.00     0.027 C 
HETATM   14  H   UNL     1       5.356  27.101  54.981  1.00  0.00     0.163 HD
ENDROOT
BRANCH   1  15
HETATM   15  C   UNL     1       8.394  29.427  57.100  1.00  0.00     0.146 C 
BRANCH  15  16
HETATM   16  C   UNL     1       8.883  30.047  58.382  1.00  0.00     0.224 C 
HETATM   17  N   UNL     1       7.926  30.095  59.371  1.00  0.00    -0.327 N 
HETATM   18  H   UNL     1       7.109  29.495  59.277  1.00  0.00     0.169 HD
HETATM   19  O   UNL     1       9.981  30.597  58.371  1.00  0.00    -0.273 OA
BRANCH  17  20
HETATM   20  C   UNL     1       7.894  30.962  60.485  1.00  0.00     0.034 A 
HETATM   21  C   UNL     1       7.080  32.093  60.573  1.00  0.00     0.030 A 
HETATM   22  C   UNL     1       7.034  32.843  61.754  1.00  0.00     0.009 A 
HETATM   23  C   UNL     1       7.814  32.486  62.858  1.00  0.00    -0.062 A 
HETATM   24  C   UNL     1       7.726  33.264  64.139  1.00  0.00     0.048 C 
HETATM   25  C   UNL     1       8.638  31.361  62.766  1.00  0.00     0.009 A 
HETATM   26  C   UNL     1       8.681  30.610  61.587  1.00  0.00     0.030 A 
ENDBRANCH  17  20
ENDBRANCH  15  16
ENDBRANCH   1  15
TORSDOF 3
ENDMDL
MODEL 7
REMARK VINA RESULT:      -8.0      2.056      2.768
REMARK  3 active torsions:
REMARK  status: ('A' for Active; 'I' for Inactive)
REMARK    1  A    between atoms: C_5  and  N_6 
REMARK       I    between atoms: N_6  and  C_7 
REMARK    2  A    between atoms: C_7  and  C_8 
REMARK    3  A    between atoms: C_8  and  C_9 
ROOT
HETATM    1  C   UNL     1       4.732  27.524  52.657  1.00  0.00     0.286 C 
HETATM    2  N   UNL     1       4.570  26.556  51.476  1.00  0.00    -0.056 N 
HETATM    3  H   UNL     1       5.293  25.821  51.542  1.00  0.00     0.278 HD
HETATM    4  H   UNL     1       3.661  26.083  51.561  1.00  0.00     0.278 HD
HETATM    5  C   UNL     1       4.689  27.181  50.109  1.00  0.00     0.209 C 
HETATM    6  C   UNL     1       3.791  28.429  50.022  1.00  0.00     0.115 C 
HETATM    7  N   UNL     1       4.065  29.365  51.097  1.00  0.00    -0.353 N 
HETATM    8  C   UNL     1       4.364  28.995  52.379  1.00  0.00     0.249 C 
HETATM    9  O   UNL     1       4.410  29.843  53.267  1.00  0.00    -0.271 OA
HETATM   10  C   UNL     1       4.305  26.162  49.040  1.00  0.00     0.035 C 
HETATM   11  C   UNL     1       4.439  26.785  47.650  1.00  0.00     0.002 C 
HETATM   12  C   UNL     1       3.665  28.100  47.522  1.00  0.00     0.002 C 
HETATM   13  C   UNL     1       3.978  29.084  48.650  1.00  0.00     0.027 C 
HETATM   14  H   UNL     1       3.782  30.338  50.997  1.00  0.00     0.163 HD
ENDROOT
BRANCH   1  15
HETATM   15  C   UNL     1       6.129  27.442  53.284  1.00  0.00     0.146 C 
BRANCH  15  16
HETATM   16  C   UNL     1       6.279  26.109  53.969  1.00  0.00     0.224 C 
HETATM   17  N   UNL     1       7.551  25.588  53.889  1.00  0.00    -0.327 N 
HETATM   18  H   UNL     1       8.312  26.218  53.646  1.00  0.00     0.169 HD
HETATM   19  O   UNL     1       5.258  25.546  54.358  1.00  0.00    -0.273 OA
BRANCH  17  20
HETATM   20  C   UNL     1       7.926  24.233  54.019  1.00  0.00     0.034 A 
HETATM   21  C   UNL     1       8.499  23.688  55.169  1.00  0.00     0.030 A 
HETATM   22  C   UNL     1       8.749  22.313  55.253  1.00  0.00     0.009 A 
HETATM   23  C   UNL     1       8.448  21.465  54.182  1.00  0.00    -0.062 A 
HETATM   24  C   UNL     1       8.672  19.985  54.293  1.00  0.00     0.048 C 
HETATM   25  C   UNL     1       7.885  22.013  53.026  1.00  0.00     0.009 A 
HETATM   26  C   UNL     1       7.633  23.386  52.945  1.00  0.00     0.030 A 
ENDBRANCH  17  20
ENDBRANCH  15  16
ENDBRANCH   1  15
TORSDOF 3
ENDMDL
MODEL 8
REMARK VINA RESULT:      -7.9      2.124      4.175
REMARK  3 active torsions:
REMARK  status: ('A' for Active; 'I' for Inactive)
REMARK    1  A    between atoms: C_5  and  N_6 
REMARK       I    between atoms: N_6  and  C_7 
REMARK    2  A    between atoms: C_7  and  C_8 
REMARK    3  A    between atoms: C_8  and  C_9 
ROOT
HETATM    1  C   UNL     1       4.930  29.221  53.702  1.00  0.00     0.286 C 
HETATM    2  N   UNL     1       6.347  28.751  54.063  1.00  0.00    -0.056 N 
HETATM    3  H   UNL     1       6.499  27.809  53.669  1.00  0.00     0.278 HD
HETATM    4  H   UNL     1       7.027  29.374  53.607  1.00  0.00     0.278 HD
HETATM    5  C   UNL     1       6.644  28.675  55.540  1.00  0.00     0.209 C 
HETATM    6  C   UNL     1       6.226  29.987  56.228  1.00  0.00     0.115 C 
HETATM    7  N   UNL     1       4.843  30.325  55.946  1.00  0.00    -0.353 N 
HETATM    8  C   UNL     1       4.234  30.124  54.739  1.00  0.00     0.249 C 
HETATM    9  O   UNL     1       3.119  30.596  54.528  1.00  0.00    -0.271 OA
HETATM   10  C   UNL     1       8.129  28.400  55.754  1.00  0.00     0.035 C 
HETATM   11  C   UNL     1       8.433  28.304  57.249  1.00  0.00     0.002 C 
HETATM   12  C   UNL     1       7.938  29.527  58.026  1.00  0.00     0.002 C 
HETATM   13  C   UNL     1       6.474  29.861  57.734  1.00  0.00     0.027 C 
HETATM   14  H   UNL     1       4.351  30.972  56.561  1.00  0.00     0.163 HD
ENDROOT
BRANCH   1  15
HETATM   15  C   UNL     1       4.013  28.053  53.322  1.00  0.00     0.146 C 
BRANCH  15  16
HETATM   16  C   UNL     1       4.862  26.885  52.893  1.00  0.00     0.224 C 
HETATM   17  N   UNL     1       4.891  25.858  53.809  1.00  0.00    -0.327 N 
HETATM   18  H   UNL     1       4.166  25.833  54.523  1.00  0.00     0.169 HD
HETATM   19  O   UNL     1       5.567  27.025  51.897  1.00  0.00    -0.273 OA
BRANCH  17  20
HETATM   20  C   UNL     1       5.880  24.859  53.939  1.00  0.00     0.034 A 
HETATM   21  C   UNL     1       6.381  24.113  52.871  1.00  0.00     0.030 A 
HETATM   22  C   UNL     1       7.434  23.211  53.069  1.00  0.00     0.009 A 
HETATM   23  C   UNL     1       7.988  23.028  54.339  1.00  0.00    -0.062 A 
HETATM   24  C   UNL     1       9.149  22.097  54.539  1.00  0.00     0.048 C 
HETATM   25  C   UNL     1       7.478  23.766  55.410  1.00  0.00     0.009 A 
HETATM   26  C   UNL     1       6.429  24.669  55.212  1.00  0.00     0.030 A 
ENDBRANCH  17  20
ENDBRANCH  15  16
ENDBRANCH   1  15
TORSDOF 3
ENDMDL
MODEL 9
REMARK VINA RESULT:      -7.9      2.589      7.347
REMARK  3 active torsions:
REMARK  status: ('A' for Active; 'I' for Inactive)
REMARK    1  A    between atoms: C_5  and  N_6 
REMARK       I    between atoms: N_6  and  C_7 
REMARK    2  A    between atoms: C_7  and  C_8 
REMARK    3  A    between atoms: C_8  and  C_9 
ROOT
HETATM    1  C   UNL     1       7.678  25.432  55.713  1.00  0.00     0.286 C 
HETATM    2  N   UNL     1       7.833  24.458  54.536  1.00  0.00    -0.056 N 
HETATM    3  H   UNL     1       7.135  24.691  53.812  1.00  0.00     0.278 HD
HETATM    4  H   UNL     1       8.759  24.601  54.110  1.00  0.00     0.278 HD
HETATM    5  C   UNL     1       7.655  23.000  54.879  1.00  0.00     0.209 C 
HETATM    6  C   UNL     1       8.513  22.640  56.106  1.00  0.00     0.115 C 
HETATM    7  N   UNL     1       8.243  23.522  57.227  1.00  0.00    -0.353 N 
HETATM    8  C   UNL     1       7.994  24.861  57.109  1.00  0.00     0.249 C 
HETATM    9  O   UNL     1       7.949  25.568  58.113  1.00  0.00    -0.271 OA
HETATM   10  C   UNL     1       8.037  22.138  53.680  1.00  0.00     0.035 C 
HETATM   11  C   UNL     1       7.843  20.659  54.016  1.00  0.00     0.002 C 
HETATM   12  C   UNL     1       8.573  20.250  55.297  1.00  0.00     0.002 C 
HETATM   13  C   UNL     1       8.265  21.175  56.476  1.00  0.00     0.027 C 
HETATM   14  H   UNL     1       8.494  23.224  58.169  1.00  0.00     0.163 HD
ENDROOT
BRANCH   1  15
HETATM   15  C   UNL     1       6.304  26.112  55.722  1.00  0.00     0.146 C 
BRANCH  15  16
HETATM   16  C   UNL     1       6.495  27.599  55.866  1.00  0.00     0.224 C 
HETATM   17  N   UNL     1       6.370  28.049  57.161  1.00  0.00    -0.327 N 
HETATM   18  H   UNL     1       6.441  27.367  57.913  1.00  0.00     0.169 HD
HETATM   19  O   UNL     1       6.557  28.271  54.839  1.00  0.00    -0.273 OA
BRANCH  17  20
HETATM   20  C   UNL     1       6.059  29.360  57.582  1.00  0.00     0.034 A 
HETATM   21  C   UNL     1       7.001  30.271  58.063  1.00  0.00     0.030 A 
HETATM   22  C   UNL     1       6.627  31.585  58.364  1.00  0.00     0.009 A 
HETATM   23  C   UNL     1       5.302  32.005  58.208  1.00  0.00    -0.062 A 
HETATM   24  C   UNL     1       4.913  33.428  58.485  1.00  0.00     0.048 C 
HETATM   25  C   UNL     1       4.356  31.090  57.738  1.00  0.00     0.009 A 
HETATM   26  C   UNL     1       4.732  29.777  57.434  1.00  0.00     0.030 A 
ENDBRANCH  17  20
ENDBRANCH  15  16
ENDBRANCH   1  15
TORSDOF 3
ENDMDL
MODEL 10
REMARK VINA RESULT:      -7.8      2.496      4.312
REMARK  3 active torsions:
REMARK  status: ('A' for Active; 'I' for Inactive)
REMARK    1  A    between atoms: C_5  and  N_6 
REMARK       I    between atoms: N_6  and  C_7 
REMARK    2  A    between atoms: C_7  and  C_8 
REMARK    3  A    between atoms: C_8  and  C_9 
ROOT
HETATM    1  C   UNL     1       7.119  28.478  56.457  1.00  0.00     0.286 C 
HETATM    2  N   UNL     1       7.372  29.514  57.562  1.00  0.00    -0.056 N 
HETATM    3  H   UNL     1       7.544  29.021  58.453  1.00  0.00     0.278 HD
HETATM    4  H   UNL     1       8.234  30.029  57.339  1.00  0.00     0.278 HD
HETATM    5  C   UNL     1       6.248  30.491  57.799  1.00  0.00     0.209 C 
HETATM    6  C   UNL     1       5.791  31.102  56.462  1.00  0.00     0.115 C 
HETATM    7  N   UNL     1       5.455  30.078  55.490  1.00  0.00    -0.353 N 
HETATM    8  C   UNL     1       6.135  28.901  55.349  1.00  0.00     0.249 C 
HETATM    9  O   UNL     1       5.899  28.167  54.392  1.00  0.00    -0.271 OA
HETATM   10  C   UNL     1       6.706  31.581  58.765  1.00  0.00     0.035 C 
HETATM   11  C   UNL     1       5.565  32.565  59.022  1.00  0.00     0.002 C 
HETATM   12  C   UNL     1       4.975  33.129  57.727  1.00  0.00     0.002 C 
HETATM   13  C   UNL     1       4.607  32.039  56.720  1.00  0.00     0.027 C 
HETATM   14  H   UNL     1       4.861  30.318  54.697  1.00  0.00     0.163 HD
ENDROOT
BRANCH   1  15
HETATM   15  C   UNL     1       6.715  27.113  57.027  1.00  0.00     0.146 C 
BRANCH  15  16
HETATM   16  C   UNL     1       7.623  26.057  56.455  1.00  0.00     0.224 C 
HETATM   17  N   UNL     1       7.126  25.458  55.320  1.00  0.00    -0.327 N 
HETATM   18  H   UNL     1       6.377  25.930  54.818  1.00  0.00     0.169 HD
HETATM   19  O   UNL     1       8.593  25.711  57.126  1.00  0.00    -0.273 OA
BRANCH  17  20
HETATM   20  C   UNL     1       7.475  24.191  54.803  1.00  0.00     0.034 A 
HETATM   21  C   UNL     1       7.454  23.010  55.546  1.00  0.00     0.030 A 
HETATM   22  C   UNL     1       7.717  21.781  54.931  1.00  0.00     0.009 A 
HETATM   23  C   UNL     1       8.024  21.714  53.568  1.00  0.00    -0.062 A 
HETATM   24  C   UNL     1       8.257  20.390  52.901  1.00  0.00     0.048 C 
HETATM   25  C   UNL     1       8.057  22.898  52.826  1.00  0.00     0.009 A 
HETATM   26  C   UNL     1       7.790  24.126  53.441  1.00  0.00     0.030 A 
ENDBRANCH  17  20
ENDBRANCH  15  16
ENDBRANCH   1  15
TORSDOF 3
ENDMDL
