MODEL 1
REMARK VINA RESULT:     -10.9      0.000      0.000
REMARK  5 active torsions:
REMARK  status: ('A' for Active; 'I' for Inactive)
REMARK    1  A    between atoms: C_5  and  N_6 
REMARK       I    between atoms: N_6  and  C_7 
REMARK       I    between atoms: C_7  and  N_8 
REMARK    2  A    between atoms: N_8  and  C_9 
REMARK    3  A    between atoms: C_12  and  C_13 
REMARK    4  A    between atoms: C_13  and  C_14 
REMARK       I    between atoms: C_14  and  N_15 
REMARK    5  A    between atoms: N_15  and  C_16 
ROOT
HETATM    1  C   UNL     1       7.660  27.775  56.919  1.00  0.00     0.174 A 
HETATM    2  S   UNL     1       7.723  28.265  55.292  1.00  0.00    -0.062 SA
HETATM    3  C   UNL     1       8.996  29.347  55.691  1.00  0.00     0.081 A 
HETATM    4  C   UNL     1       9.288  29.262  57.041  1.00  0.00     0.052 A 
HETATM    5  N   UNL     1       8.497  28.354  57.747  1.00  0.00    -0.228 NA
ENDROOT
BRANCH   1   6
HETATM    6  N   UNL     1       6.750  26.801  57.200  1.00  0.00    -0.287 N 
HETATM    7  C   UNL     1       6.736  25.532  56.686  1.00  0.00     0.326 C 
HETATM    8  N   UNL     1       7.814  25.170  55.922  1.00  0.00    -0.309 N 
HETATM    9  O   UNL     1       5.764  24.826  56.946  1.00  0.00    -0.247 OA
HETATM   10  H   UNL     1       8.591  25.822  55.944  1.00  0.00     0.170 HD
HETATM   11  H   UNL     1       5.959  27.041  57.780  1.00  0.00     0.172 HD
BRANCH   8  12
HETATM   12  C   UNL     1       8.010  23.985  55.188  1.00  0.00     0.036 A 
HETATM   13  C   UNL     1       8.679  22.865  55.681  1.00  0.00     0.030 A 
HETATM   14  C   UNL     1       8.809  21.714  54.893  1.00  0.00     0.009 A 
HETATM   15  C   UNL     1       8.265  21.663  53.606  1.00  0.00    -0.062 A 
HETATM   16  C   UNL     1       8.441  20.437  52.761  1.00  0.00     0.048 C 
HETATM   17  C   UNL     1       7.601  22.788  53.110  1.00  0.00     0.009 A 
HETATM   18  C   UNL     1       7.471  23.937  53.897  1.00  0.00     0.030 A 
ENDBRANCH   8  12
ENDBRANCH   1   6
BRANCH   4  19
HETATM   19  C   UNL     1      10.331  30.033  57.789  1.00  0.00     0.163 C 
BRANCH  19  20
HETATM   20  C   UNL     1       9.779  31.139  58.683  1.00  0.00     0.227 C 
HETATM   21  N   UNL     1       8.775  30.741  59.548  1.00  0.00    -0.327 N 
HETATM   22  H   UNL     1       8.609  29.737  59.598  1.00  0.00     0.169 HD
HETATM   23  O   UNL     1      10.184  32.292  58.545  1.00  0.00    -0.273 OA
BRANCH  21  24
HETATM   24  C   UNL     1       7.992  31.538  60.405  1.00  0.00     0.036 A 
HETATM   25  C   UNL     1       8.344  31.855  61.719  1.00  0.00     0.056 A 
HETATM   26  C   UNL     1       7.517  32.681  62.486  1.00  0.00     0.074 A 
HETATM   27 CL   UNL     1       7.974  33.075  64.099  1.00  0.00    -0.081 Cl
HETATM   28  C   UNL     1       6.337  33.186  61.945  1.00  0.00     0.138 A 
HETATM   29  F   UNL     1       5.534  33.982  62.666  1.00  0.00    -0.204 F 
HETATM   30  C   UNL     1       5.972  32.874  60.642  1.00  0.00     0.046 A 
HETATM   31  C   UNL     1       6.798  32.051  59.874  1.00  0.00     0.032 A 
ENDBRANCH  21  24
ENDBRANCH  19  20
ENDBRANCH   4  19
TORSDOF 5
ENDMDL
MODEL 2
REMARK VINA RESULT:     -10.8      4.633     10.610
REMARK  5 active torsions:
REMARK  status: ('A' for Active; 'I' for Inactive)
REMARK    1  A    between atoms: C_5  and  N_6 
REMARK       I    between atoms: N_6  and  C_7 
REMARK       I    between atoms: C_7  and  N_8 
REMARK    2  A    between atoms: N_8  and  C_9 
REMARK    3  A    between atoms: C_12  and  C_13 
REMARK    4  A    between atoms: C_13  and  C_14 
REMARK       I    between atoms: C_14  and  N_15 
REMARK    5  A    between atoms: N_15  and  C_16 
ROOT
HETATM    1  C   UNL     1       8.241  29.467  57.525  1.00  0.00     0.174 A 
HETATM    2  S   UNL     1       6.930  29.834  56.505  1.00  0.00    -0.062 SA
HETATM    3  C   UNL     1       6.372  28.219  56.680  1.00  0.00     0.081 A 
HETATM    4  C   UNL     1       7.224  27.507  57.505  1.00  0.00     0.052 A 
HETATM    5  N   UNL     1       8.313  28.239  57.980  1.00  0.00    -0.228 NA
ENDROOT
BRANCH   1   6
HETATM    6  N   UNL     1       9.084  30.504  57.787  1.00  0.00    -0.287 N 
HETATM    7  C   UNL     1       9.020  31.347  58.865  1.00  0.00     0.326 C 
HETATM    8  N   UNL     1       8.104  31.032  59.835  1.00  0.00    -0.309 N 
HETATM    9  O   UNL     1       9.780  32.312  58.875  1.00  0.00    -0.247 OA
HETATM   10  H   UNL     1       7.675  30.118  59.735  1.00  0.00     0.170 HD
HETATM   11  H   UNL     1       9.780  30.739  57.096  1.00  0.00     0.172 HD
BRANCH   8  12
HETATM   12  C   UNL     1       7.751  31.770  60.980  1.00  0.00     0.036 A 
HETATM   13  C   UNL     1       6.666  32.644  61.040  1.00  0.00     0.030 A 
HETATM   14  C   UNL     1       6.367  33.322  62.227  1.00  0.00     0.009 A 
HETATM   15  C   UNL     1       7.143  33.131  63.376  1.00  0.00    -0.062 A 
HETATM   16  C   UNL     1       6.833  33.890  64.631  1.00  0.00     0.048 C 
HETATM   17  C   UNL     1       8.235  32.260  63.313  1.00  0.00     0.009 A 
HETATM   18  C   UNL     1       8.533  31.583  62.126  1.00  0.00     0.030 A 
ENDBRANCH   8  12
ENDBRANCH   1   6
BRANCH   4  19
HETATM   19  C   UNL     1       7.095  26.072  57.913  1.00  0.00     0.163 C 
BRANCH  19  20
HETATM   20  C   UNL     1       7.846  25.091  57.018  1.00  0.00     0.227 C 
HETATM   21  N   UNL     1       7.064  24.448  56.075  1.00  0.00    -0.327 N 
HETATM   22  H   UNL     1       6.110  24.794  55.983  1.00  0.00     0.169 HD
HETATM   23  O   UNL     1       9.040  24.877  57.219  1.00  0.00    -0.273 OA
BRANCH  21  24
HETATM   24  C   UNL     1       7.432  23.414  55.193  1.00  0.00     0.036 A 
HETATM   25  C   UNL     1       7.819  22.135  55.603  1.00  0.00     0.056 A 
HETATM   26  C   UNL     1       8.137  21.161  54.651  1.00  0.00     0.074 A 
HETATM   27 CL   UNL     1       8.597  19.586  55.172  1.00  0.00    -0.081 Cl
HETATM   28  C   UNL     1       8.074  21.463  53.293  1.00  0.00     0.138 A 
HETATM   29  F   UNL     1       8.373  20.539  52.368  1.00  0.00    -0.204 F 
HETATM   30  C   UNL     1       7.696  22.732  52.872  1.00  0.00     0.046 A 
HETATM   31  C   UNL     1       7.376  23.705  53.821  1.00  0.00     0.032 A 
ENDBRANCH  21  24
ENDBRANCH  19  20
ENDBRANCH   4  19
TORSDOF 5
ENDMDL
MODEL 3
REMARK VINA RESULT:     -10.1      2.282      2.761
REMARK  5 active torsions:
REMARK  status: ('A' for Active; 'I' for Inactive)
REMARK    1  A    between atoms: C_5  and  N_6 
REMARK       I    between atoms: N_6  and  C_7 
REMARK       I    between atoms: C_7  and  N_8 
REMARK    2  A    between atoms: N_8  and  C_9 
REMARK    3  A    between atoms: C_12  and  C_13 
REMARK    4  A    between atoms: C_13  and  C_14 
REMARK       I    between atoms: C_14  and  N_15 
REMARK    5  A    between atoms: N_15  and  C_16 
ROOT
HETATM    1  C   UNL     1       6.255  29.213  55.522  1.00  0.00     0.174 A 
HETATM    2  S   UNL     1       4.821  29.626  56.336  1.00  0.00    -0.062 SA
HETATM    3  C   UNL     1       5.729  29.851  57.776  1.00  0.00     0.081 A 
HETATM    4  C   UNL     1       7.068  29.595  57.539  1.00  0.00     0.052 A 
HETATM    5  N   UNL     1       7.360  29.214  56.229  1.00  0.00    -0.228 NA
ENDROOT
BRANCH   1   6
HETATM    6  N   UNL     1       6.116  28.941  54.194  1.00  0.00    -0.287 N 
HETATM    7  C   UNL     1       6.360  27.740  53.584  1.00  0.00     0.326 C 
HETATM    8  N   UNL     1       6.643  26.682  54.406  1.00  0.00    -0.309 N 
HETATM    9  O   UNL     1       6.311  27.708  52.356  1.00  0.00    -0.247 OA
HETATM   10  H   UNL     1       6.486  26.856  55.394  1.00  0.00     0.170 HD
HETATM   11  H   UNL     1       5.886  29.703  53.573  1.00  0.00     0.172 HD
BRANCH   8  12
HETATM   12  C   UNL     1       7.037  25.377  54.053  1.00  0.00     0.036 A 
HETATM   13  C   UNL     1       7.604  25.041  52.824  1.00  0.00     0.030 A 
HETATM   14  C   UNL     1       7.992  23.721  52.561  1.00  0.00     0.009 A 
HETATM   15  C   UNL     1       7.828  22.721  53.525  1.00  0.00    -0.062 A 
HETATM   16  C   UNL     1       8.217  21.306  53.217  1.00  0.00     0.048 C 
HETATM   17  C   UNL     1       7.254  23.058  54.754  1.00  0.00     0.009 A 
HETATM   18  C   UNL     1       6.866  24.376  55.016  1.00  0.00     0.030 A 
ENDBRANCH   8  12
ENDBRANCH   1   6
BRANCH   4  19
HETATM   19  C   UNL     1       8.190  29.678  58.527  1.00  0.00     0.163 C 
BRANCH  19  20
HETATM   20  C   UNL     1       8.203  30.954  59.362  1.00  0.00     0.227 C 
HETATM   21  N   UNL     1       7.637  30.834  60.618  1.00  0.00    -0.327 N 
HETATM   22  H   UNL     1       7.402  29.885  60.907  1.00  0.00     0.169 HD
HETATM   23  O   UNL     1       8.630  31.998  58.870  1.00  0.00    -0.273 OA
BRANCH  21  24
HETATM   24  C   UNL     1       7.394  31.844  61.569  1.00  0.00     0.036 A 
HETATM   25  C   UNL     1       6.475  32.881  61.391  1.00  0.00     0.056 A 
HETATM   26  C   UNL     1       6.278  33.823  62.406  1.00  0.00     0.074 A 
HETATM   27 CL   UNL     1       5.130  35.086  62.177  1.00  0.00    -0.081 Cl
HETATM   28  C   UNL     1       6.999  33.734  63.594  1.00  0.00     0.138 A 
HETATM   29  F   UNL     1       6.819  34.627  64.577  1.00  0.00    -0.204 F 
HETATM   30  C   UNL     1       7.920  32.710  63.781  1.00  0.00     0.046 A 
HETATM   31  C   UNL     1       8.116  31.768  62.769  1.00  0.00     0.032 A 
ENDBRANCH  21  24
ENDBRANCH  19  20
ENDBRANCH   4  19
TORSDOF 5
ENDMDL
MODEL 4
REMARK VINA RESULT:     -10.0      2.372      2.922
REMARK  5 active torsions:
REMARK  status: ('A' for Active; 'I' for Inactive)
REMARK    1  A    between atoms: C_5  and  N_6 
REMARK       I    between atoms: N_6  and  C_7 
REMARK       I    between atoms: C_7  and  N_8 
REMARK    2  A    between atoms: N_8  and  C_9 
REMARK    3  A    between atoms: C_12  and  C_13 
REMARK    4  A    between atoms: C_13  and  C_14 
REMARK       I    between atoms: C_14  and  N_15 
REMARK    5  A    between atoms: N_15  and  C_16 
ROOT
HETATM    1  C   UNL     1       5.243  27.688  54.394  1.00  0.00     0.174 A 
HETATM    2  S   UNL     1       4.220  28.974  54.833  1.00  0.00    -0.062 SA
HETATM    3  C   UNL     1       5.516  29.673  55.717  1.00  0.00     0.081 A 
HETATM    4  C   UNL     1       6.644  28.877  55.619  1.00  0.00     0.052 A 
HETATM    5  N   UNL     1       6.470  27.721  54.858  1.00  0.00    -0.228 NA
ENDROOT
BRANCH   1   6
HETATM    6  N   UNL     1       4.686  26.752  53.577  1.00  0.00    -0.287 N 
HETATM    7  C   UNL     1       5.119  25.464  53.408  1.00  0.00     0.326 C 
HETATM    8  N   UNL     1       6.123  25.041  54.239  1.00  0.00    -0.309 N 
HETATM    9  O   UNL     1       4.578  24.795  52.529  1.00  0.00    -0.247 OA
HETATM   10  H   UNL     1       6.337  25.673  55.003  1.00  0.00     0.170 HD
HETATM   11  H   UNL     1       3.930  27.037  52.972  1.00  0.00     0.172 HD
BRANCH   8  12
HETATM   12  C   UNL     1       6.826  23.823  54.215  1.00  0.00     0.036 A 
HETATM   13  C   UNL     1       7.318  23.230  53.053  1.00  0.00     0.030 A 
HETATM   14  C   UNL     1       8.030  22.026  53.119  1.00  0.00     0.009 A 
HETATM   15  C   UNL     1       8.270  21.403  54.348  1.00  0.00    -0.062 A 
HETATM   16  C   UNL     1       9.005  20.097  54.400  1.00  0.00     0.048 C 
HETATM   17  C   UNL     1       7.771  21.994  55.512  1.00  0.00     0.009 A 
HETATM   18  C   UNL     1       7.059  23.196  55.445  1.00  0.00     0.030 A 
ENDBRANCH   8  12
ENDBRANCH   1   6
BRANCH   4  19
HETATM   19  C   UNL     1       7.982  29.130  56.240  1.00  0.00     0.163 C 
BRANCH  19  20
HETATM   20  C   UNL     1       7.946  29.359  57.748  1.00  0.00     0.227 C 
HETATM   21  N   UNL     1       8.006  30.685  58.137  1.00  0.00    -0.327 N 
HETATM   22  H   UNL     1       7.927  31.369  57.386  1.00  0.00     0.169 HD
HETATM   23  O   UNL     1       7.939  28.393  58.510  1.00  0.00    -0.273 OA
BRANCH  21  24
HETATM   24  C   UNL     1       8.110  31.211  59.439  1.00  0.00     0.036 A 
HETATM   25  C   UNL     1       7.138  32.016  60.039  1.00  0.00     0.056 A 
HETATM   26  C   UNL     1       7.314  32.466  61.351  1.00  0.00     0.074 A 
HETATM   27 CL   UNL     1       6.099  33.445  62.081  1.00  0.00    -0.081 Cl
HETATM   28  C   UNL     1       8.460  32.119  62.063  1.00  0.00     0.138 A 
HETATM   29  F   UNL     1       8.642  32.541  63.322  1.00  0.00    -0.204 F 
HETATM   30  C   UNL     1       9.436  31.324  61.477  1.00  0.00     0.046 A 
HETATM   31  C   UNL     1       9.261  30.872  60.167  1.00  0.00     0.032 A 
ENDBRANCH  21  24
ENDBRANCH  19  20
ENDBRANCH   4  19
TORSDOF 5
ENDMDL
MODEL 5
REMARK VINA RESULT:      -9.3      4.557     10.315
REMARK  5 active torsions:
REMARK  status: ('A' for Active; 'I' for Inactive)
REMARK    1  A    between atoms: C_5  and  N_6 
REMARK       I    between atoms: N_6  and  C_7 
REMARK       I    between atoms: C_7  and  N_8 
REMARK    2  A    between atoms: N_8  and  C_9 
REMARK    3  A    between atoms: C_12  and  C_13 
REMARK    4  A    between atoms: C_13  and  C_14 
REMARK       I    between atoms: C_14  and  N_15 
REMARK    5  A    between atoms: N_15  and  C_16 
ROOT
HETATM    1  C   UNL     1       6.698  30.584  57.735  1.00  0.00     0.174 A 
HETATM    2  S   UNL     1       5.373  31.598  57.406  1.00  0.00    -0.062 SA
HETATM    3  C   UNL     1       4.419  30.207  57.081  1.00  0.00     0.081 A 
HETATM    4  C   UNL     1       5.177  29.061  57.245  1.00  0.00     0.052 A 
HETATM    5  N   UNL     1       6.502  29.293  57.614  1.00  0.00    -0.228 NA
ENDROOT
BRANCH   1   6
HETATM    6  N   UNL     1       7.840  31.221  58.118  1.00  0.00    -0.287 N 
HETATM    7  C   UNL     1       8.087  31.769  59.348  1.00  0.00     0.326 C 
HETATM    8  N   UNL     1       7.152  31.535  60.322  1.00  0.00    -0.309 N 
HETATM    9  O   UNL     1       9.119  32.424  59.480  1.00  0.00    -0.247 OA
HETATM   10  H   UNL     1       6.447  30.847  60.079  1.00  0.00     0.170 HD
HETATM   11  H   UNL     1       8.552  31.384  57.422  1.00  0.00     0.172 HD
BRANCH   8  12
HETATM   12  C   UNL     1       7.095  32.060  61.627  1.00  0.00     0.036 A 
HETATM   13  C   UNL     1       8.189  32.130  62.488  1.00  0.00     0.030 A 
HETATM   14  C   UNL     1       8.053  32.691  63.763  1.00  0.00     0.009 A 
HETATM   15  C   UNL     1       6.823  33.199  64.194  1.00  0.00    -0.062 A 
HETATM   16  C   UNL     1       6.683  33.766  65.575  1.00  0.00     0.048 C 
HETATM   17  C   UNL     1       5.724  33.123  63.333  1.00  0.00     0.009 A 
HETATM   18  C   UNL     1       5.861  32.562  62.059  1.00  0.00     0.030 A 
ENDBRANCH   8  12
ENDBRANCH   1   6
BRANCH   4  19
HETATM   19  C   UNL     1       4.722  27.646  57.062  1.00  0.00     0.163 C 
BRANCH  19  20
HETATM   20  C   UNL     1       5.609  26.812  56.142  1.00  0.00     0.227 C 
HETATM   21  N   UNL     1       6.065  25.627  56.691  1.00  0.00    -0.327 N 
HETATM   22  H   UNL     1       5.654  25.369  57.587  1.00  0.00     0.169 HD
HETATM   23  O   UNL     1       5.919  27.250  55.035  1.00  0.00    -0.273 OA
BRANCH  21  24
HETATM   24  C   UNL     1       6.983  24.708  56.147  1.00  0.00     0.036 A 
HETATM   25  C   UNL     1       6.831  24.093  54.902  1.00  0.00     0.056 A 
HETATM   26  C   UNL     1       7.812  23.215  54.430  1.00  0.00     0.074 A 
HETATM   27 CL   UNL     1       7.616  22.476  52.887  1.00  0.00    -0.081 Cl
HETATM   28  C   UNL     1       8.941  22.948  55.201  1.00  0.00     0.138 A 
HETATM   29  F   UNL     1       9.892  22.112  54.761  1.00  0.00    -0.204 F 
HETATM   30  C   UNL     1       9.102  23.549  56.443  1.00  0.00     0.046 A 
HETATM   31  C   UNL     1       8.124  24.427  56.914  1.00  0.00     0.032 A 
ENDBRANCH  21  24
ENDBRANCH  19  20
ENDBRANCH   4  19
TORSDOF 5
ENDMDL
MODEL 6
REMARK VINA RESULT:      -9.3      5.238      9.815
REMARK  5 active torsions:
REMARK  status: ('A' for Active; 'I' for Inactive)
REMARK    1  A    between atoms: C_5  and  N_6 
REMARK       I    between atoms: N_6  and  C_7 
REMARK       I    between atoms: C_7  and  N_8 
REMARK    2  A    between atoms: N_8  and  C_9 
REMARK    3  A    between atoms: C_12  and  C_13 
REMARK    4  A    between atoms: C_13  and  C_14 
REMARK       I    between atoms: C_14  and  N_15 
REMARK    5  A    between atoms: N_15  and  C_16 
ROOT
HETATM    1  C   UNL     1       4.464  29.400  55.172  1.00  0.00     0.174 A 
HETATM    2  S   UNL     1       3.791  29.943  53.708  1.00  0.00    -0.062 SA
HETATM    3  C   UNL     1       4.939  28.994  52.854  1.00  0.00     0.081 A 
HETATM    4  C   UNL     1       5.762  28.326  53.745  1.00  0.00     0.052 A 
HETATM    5  N   UNL     1       5.484  28.579  55.088  1.00  0.00    -0.228 NA
ENDROOT
BRANCH   1   6
HETATM    6  N   UNL     1       3.857  29.861  56.301  1.00  0.00    -0.287 N 
HETATM    7  C   UNL     1       4.483  30.353  57.415  1.00  0.00     0.326 C 
HETATM    8  N   UNL     1       5.840  30.520  57.331  1.00  0.00    -0.309 N 
HETATM    9  O   UNL     1       3.784  30.601  58.395  1.00  0.00    -0.247 OA
HETATM   10  H   UNL     1       6.225  30.413  56.398  1.00  0.00     0.170 HD
HETATM   11  H   UNL     1       2.854  29.768  56.374  1.00  0.00     0.172 HD
BRANCH   8  12
HETATM   12  C   UNL     1       6.741  30.898  58.343  1.00  0.00     0.036 A 
HETATM   13  C   UNL     1       6.627  32.068  59.091  1.00  0.00     0.030 A 
HETATM   14  C   UNL     1       7.554  32.358  60.100  1.00  0.00     0.009 A 
HETATM   15  C   UNL     1       8.604  31.477  60.382  1.00  0.00    -0.062 A 
HETATM   16  C   UNL     1       9.609  31.817  61.441  1.00  0.00     0.048 C 
HETATM   17  C   UNL     1       8.722  30.307  59.627  1.00  0.00     0.009 A 
HETATM   18  C   UNL     1       7.796  30.018  58.620  1.00  0.00     0.030 A 
ENDBRANCH   8  12
ENDBRANCH   1   6
BRANCH   4  19
HETATM   19  C   UNL     1       6.887  27.397  53.409  1.00  0.00     0.163 C 
BRANCH  19  20
HETATM   20  C   UNL     1       6.627  25.936  53.763  1.00  0.00     0.227 C 
HETATM   21  N   UNL     1       7.739  25.235  54.193  1.00  0.00    -0.327 N 
HETATM   22  H   UNL     1       8.574  25.793  54.362  1.00  0.00     0.169 HD
HETATM   23  O   UNL     1       5.507  25.458  53.587  1.00  0.00    -0.273 OA
BRANCH  21  24
HETATM   24  C   UNL     1       7.850  23.860  54.478  1.00  0.00     0.036 A 
HETATM   25  C   UNL     1       7.990  22.868  53.504  1.00  0.00     0.056 A 
HETATM   26  C   UNL     1       8.125  21.528  53.884  1.00  0.00     0.074 A 
HETATM   27 CL   UNL     1       8.312  20.320  52.671  1.00  0.00    -0.081 Cl
HETATM   28  C   UNL     1       8.116  21.179  55.231  1.00  0.00     0.138 A 
HETATM   29  F   UNL     1       8.247  19.900  55.611  1.00  0.00    -0.204 F 
HETATM   30  C   UNL     1       7.972  22.155  56.209  1.00  0.00     0.046 A 
HETATM   31  C   UNL     1       7.838  23.493  55.832  1.00  0.00     0.032 A 
ENDBRANCH  21  24
ENDBRANCH  19  20
ENDBRANCH   4  19
TORSDOF 5
ENDMDL
MODEL 7
REMARK VINA RESULT:      -9.3      5.506      7.489
REMARK  5 active torsions:
REMARK  status: ('A' for Active; 'I' for Inactive)
REMARK    1  A    between atoms: C_5  and  N_6 
REMARK       I    between atoms: N_6  and  C_7 
REMARK       I    between atoms: C_7  and  N_8 
REMARK    2  A    between atoms: N_8  and  C_9 
REMARK    3  A    between atoms: C_12  and  C_13 
REMARK    4  A    between atoms: C_13  and  C_14 
REMARK       I    between atoms: C_14  and  N_15 
REMARK    5  A    between atoms: N_15  and  C_16 
ROOT
HETATM    1  C   UNL     1       7.550  27.454  57.299  1.00  0.00     0.174 A 
HETATM    2  S   UNL     1       8.504  28.816  56.944  1.00  0.00    -0.062 SA
HETATM    3  C   UNL     1       7.096  29.629  56.389  1.00  0.00     0.081 A 
HETATM    4  C   UNL     1       5.991  28.805  56.512  1.00  0.00     0.052 A 
HETATM    5  N   UNL     1       6.269  27.540  57.030  1.00  0.00    -0.228 NA
ENDROOT
BRANCH   1   6
HETATM    6  N   UNL     1       8.216  26.404  57.854  1.00  0.00    -0.287 N 
HETATM    7  C   UNL     1       8.416  25.177  57.281  1.00  0.00     0.326 C 
HETATM    8  N   UNL     1       8.024  25.040  55.975  1.00  0.00    -0.309 N 
HETATM    9  O   UNL     1       8.924  24.301  57.978  1.00  0.00    -0.247 OA
HETATM   10  H   UNL     1       7.771  25.907  55.513  1.00  0.00     0.170 HD
HETATM   11  H   UNL     1       8.534  26.491  58.809  1.00  0.00     0.172 HD
BRANCH   8  12
HETATM   12  C   UNL     1       8.009  23.878  55.181  1.00  0.00     0.036 A 
HETATM   13  C   UNL     1       7.944  22.584  55.695  1.00  0.00     0.030 A 
HETATM   14  C   UNL     1       7.907  21.480  54.835  1.00  0.00     0.009 A 
HETATM   15  C   UNL     1       7.924  21.654  53.447  1.00  0.00    -0.062 A 
HETATM   16  C   UNL     1       7.919  20.462  52.537  1.00  0.00     0.048 C 
HETATM   17  C   UNL     1       7.996  22.951  52.932  1.00  0.00     0.009 A 
HETATM   18  C   UNL     1       8.033  24.053  53.792  1.00  0.00     0.030 A 
ENDBRANCH   8  12
ENDBRANCH   1   6
BRANCH   4  19
HETATM   19  C   UNL     1       4.577  29.132  56.144  1.00  0.00     0.163 C 
BRANCH  19  20
HETATM   20  C   UNL     1       4.206  28.799  54.702  1.00  0.00     0.227 C 
HETATM   21  N   UNL     1       5.086  27.949  54.057  1.00  0.00    -0.327 N 
HETATM   22  H   UNL     1       5.804  27.527  54.645  1.00  0.00     0.169 HD
HETATM   23  O   UNL     1       3.227  29.335  54.187  1.00  0.00    -0.273 OA
BRANCH  21  24
HETATM   24  C   UNL     1       5.087  27.552  52.706  1.00  0.00     0.036 A 
HETATM   25  C   UNL     1       5.225  28.433  51.630  1.00  0.00     0.056 A 
HETATM   26  C   UNL     1       5.245  27.942  50.321  1.00  0.00     0.074 A 
HETATM   27 CL   UNL     1       5.432  29.040  49.008  1.00  0.00    -0.081 Cl
HETATM   28  C   UNL     1       5.122  26.575  50.084  1.00  0.00     0.138 A 
HETATM   29  F   UNL     1       5.143  26.089  48.835  1.00  0.00    -0.204 F 
HETATM   30  C   UNL     1       4.979  25.689  51.144  1.00  0.00     0.046 A 
HETATM   31  C   UNL     1       4.961  26.177  52.452  1.00  0.00     0.032 A 
ENDBRANCH  21  24
ENDBRANCH  19  20
ENDBRANCH   4  19
TORSDOF 5
ENDMDL
MODEL 8
REMARK VINA RESULT:      -9.0      5.318      6.749
REMARK  5 active torsions:
REMARK  status: ('A' for Active; 'I' for Inactive)
REMARK    1  A    between atoms: C_5  and  N_6 
REMARK       I    between atoms: N_6  and  C_7 
REMARK       I    between atoms: C_7  and  N_8 
REMARK    2  A    between atoms: N_8  and  C_9 
REMARK    3  A    between atoms: C_12  and  C_13 
REMARK    4  A    between atoms: C_13  and  C_14 
REMARK       I    between atoms: C_14  and  N_15 
REMARK    5  A    between atoms: N_15  and  C_16 
ROOT
HETATM    1  C   UNL     1       3.875  29.940  51.248  1.00  0.00     0.174 A 
HETATM    2  S   UNL     1       4.322  31.444  50.591  1.00  0.00    -0.062 SA
HETATM    3  C   UNL     1       4.089  32.161  52.134  1.00  0.00     0.081 A 
HETATM    4  C   UNL     1       3.685  31.205  53.048  1.00  0.00     0.052 A 
HETATM    5  N   UNL     1       3.553  29.921  52.520  1.00  0.00    -0.228 NA
ENDROOT
BRANCH   1   6
HETATM    6  N   UNL     1       3.919  28.889  50.383  1.00  0.00    -0.287 N 
HETATM    7  C   UNL     1       4.506  27.674  50.614  1.00  0.00     0.326 C 
HETATM    8  N   UNL     1       4.976  27.452  51.881  1.00  0.00    -0.309 N 
HETATM    9  O   UNL     1       4.568  26.886  49.672  1.00  0.00    -0.247 OA
HETATM   10  H   UNL     1       4.700  28.148  52.566  1.00  0.00     0.170 HD
HETATM   11  H   UNL     1       3.557  29.024  49.450  1.00  0.00     0.172 HD
BRANCH   8  12
HETATM   12  C   UNL     1       5.713  26.354  52.364  1.00  0.00     0.036 A 
HETATM   13  C   UNL     1       5.162  25.100  52.623  1.00  0.00     0.030 A 
HETATM   14  C   UNL     1       5.970  24.051  53.079  1.00  0.00     0.009 A 
HETATM   15  C   UNL     1       7.343  24.238  53.273  1.00  0.00    -0.062 A 
HETATM   16  C   UNL     1       8.191  23.116  53.794  1.00  0.00     0.048 C 
HETATM   17  C   UNL     1       7.894  25.497  53.019  1.00  0.00     0.009 A 
HETATM   18  C   UNL     1       7.086  26.544  52.564  1.00  0.00     0.030 A 
ENDBRANCH   8  12
ENDBRANCH   1   6
BRANCH   4  19
HETATM   19  C   UNL     1       3.379  31.416  54.498  1.00  0.00     0.163 C 
BRANCH  19  20
HETATM   20  C   UNL     1       4.074  30.437  55.440  1.00  0.00     0.227 C 
HETATM   21  N   UNL     1       5.194  29.819  54.913  1.00  0.00    -0.327 N 
HETATM   22  H   UNL     1       5.517  30.181  54.017  1.00  0.00     0.169 HD
HETATM   23  O   UNL     1       3.584  30.202  56.543  1.00  0.00    -0.273 OA
BRANCH  21  24
HETATM   24  C   UNL     1       5.975  28.793  55.480  1.00  0.00     0.036 A 
HETATM   25  C   UNL     1       5.500  27.507  55.750  1.00  0.00     0.056 A 
HETATM   26  C   UNL     1       6.359  26.542  56.286  1.00  0.00     0.074 A 
HETATM   27 CL   UNL     1       5.762  24.957  56.599  1.00  0.00    -0.081 Cl
HETATM   28  C   UNL     1       7.688  26.860  56.556  1.00  0.00     0.138 A 
HETATM   29  F   UNL     1       8.524  25.945  57.066  1.00  0.00    -0.204 F 
HETATM   30  C   UNL     1       8.171  28.136  56.296  1.00  0.00     0.046 A 
HETATM   31  C   UNL     1       7.315  29.100  55.760  1.00  0.00     0.032 A 
ENDBRANCH  21  24
ENDBRANCH  19  20
ENDBRANCH   4  19
TORSDOF 5
ENDMDL
MODEL 9
REMARK VINA RESULT:      -8.9      4.619      6.960
REMARK  5 active torsions:
REMARK  status: ('A' for Active; 'I' for Inactive)
REMARK    1  A    between atoms: C_5  and  N_6 
REMARK       I    between atoms: N_6  and  C_7 
REMARK       I    between atoms: C_7  and  N_8 
REMARK    2  A    between atoms: N_8  and  C_9 
REMARK    3  A    between atoms: C_12  and  C_13 
REMARK    4  A    between atoms: C_13  and  C_14 
REMARK       I    between atoms: C_14  and  N_15 
REMARK    5  A    between atoms: N_15  and  C_16 
ROOT
HETATM    1  C   UNL     1       7.168  32.173  59.812  1.00  0.00     0.174 A 
HETATM    2  S   UNL     1       7.731  32.444  61.393  1.00  0.00    -0.062 SA
HETATM    3  C   UNL     1       9.326  32.096  60.860  1.00  0.00     0.081 A 
HETATM    4  C   UNL     1       9.322  31.795  59.509  1.00  0.00     0.052 A 
HETATM    5  N   UNL     1       8.061  31.831  58.914  1.00  0.00    -0.228 NA
ENDROOT
BRANCH   1   6
HETATM    6  N   UNL     1       5.831  32.361  59.628  1.00  0.00    -0.287 N 
HETATM    7  C   UNL     1       5.053  31.764  58.673  1.00  0.00     0.326 C 
HETATM    8  N   UNL     1       5.650  30.786  57.920  1.00  0.00    -0.309 N 
HETATM    9  O   UNL     1       3.891  32.150  58.565  1.00  0.00    -0.247 OA
HETATM   10  H   UNL     1       6.562  30.491  58.252  1.00  0.00     0.170 HD
HETATM   11  H   UNL     1       5.367  33.061  60.188  1.00  0.00     0.172 HD
BRANCH   8  12
HETATM   12  C   UNL     1       5.129  30.093  56.812  1.00  0.00     0.036 A 
HETATM   13  C   UNL     1       4.715  28.762  56.850  1.00  0.00     0.030 A 
HETATM   14  C   UNL     1       4.184  28.152  55.707  1.00  0.00     0.009 A 
HETATM   15  C   UNL     1       4.051  28.866  54.511  1.00  0.00    -0.062 A 
HETATM   16  C   UNL     1       3.512  28.191  53.285  1.00  0.00     0.048 C 
HETATM   17  C   UNL     1       4.472  30.198  54.472  1.00  0.00     0.009 A 
HETATM   18  C   UNL     1       5.003  30.807  55.614  1.00  0.00     0.030 A 
ENDBRANCH   8  12
ENDBRANCH   1   6
BRANCH   4  19
HETATM   19  C   UNL     1      10.504  31.439  58.662  1.00  0.00     0.163 C 
BRANCH  19  20
HETATM   20  C   UNL     1      10.196  30.467  57.526  1.00  0.00     0.227 C 
HETATM   21  N   UNL     1       9.017  29.758  57.670  1.00  0.00    -0.327 N 
HETATM   22  H   UNL     1       8.415  30.056  58.436  1.00  0.00     0.169 HD
HETATM   23  O   UNL     1      11.011  30.317  56.617  1.00  0.00    -0.273 OA
BRANCH  21  24
HETATM   24  C   UNL     1       8.519  28.716  56.865  1.00  0.00     0.036 A 
HETATM   25  C   UNL     1       8.200  27.442  57.341  1.00  0.00     0.056 A 
HETATM   26  C   UNL     1       7.681  26.479  56.470  1.00  0.00     0.074 A 
HETATM   27 CL   UNL     1       7.278  24.918  57.077  1.00  0.00    -0.081 Cl
HETATM   28  C   UNL     1       7.485  26.783  55.126  1.00  0.00     0.138 A 
HETATM   29  F   UNL     1       6.985  25.872  54.279  1.00  0.00    -0.204 F 
HETATM   30  C   UNL     1       7.803  28.045  54.638  1.00  0.00     0.046 A 
HETATM   31  C   UNL     1       8.320  29.008  55.507  1.00  0.00     0.032 A 
ENDBRANCH  21  24
ENDBRANCH  19  20
ENDBRANCH   4  19
TORSDOF 5
ENDMDL
MODEL 10
REMARK VINA RESULT:      -8.9      6.251      9.163
REMARK  5 active torsions:
REMARK  status: ('A' for Active; 'I' for Inactive)
REMARK    1  A    between atoms: C_5  and  N_6 
REMARK       I    between atoms: N_6  and  C_7 
REMARK       I    between atoms: C_7  and  N_8 
REMARK    2  A    between atoms: N_8  and  C_9 
REMARK    3  A    between atoms: C_12  and  C_13 
REMARK    4  A    between atoms: C_13  and  C_14 
REMARK       I    between atoms: C_14  and  N_15 
REMARK    5  A    between atoms: N_15  and  C_16 
ROOT
HETATM    1  C   UNL     1       4.946  29.779  54.767  1.00  0.00     0.174 A 
HETATM    2  S   UNL     1       3.971  29.903  56.155  1.00  0.00    -0.062 SA
HETATM    3  C   UNL     1       4.949  28.716  56.920  1.00  0.00     0.081 A 
HETATM    4  C   UNL     1       5.955  28.303  56.064  1.00  0.00     0.052 A 
HETATM    5  N   UNL     1       5.936  28.919  54.813  1.00  0.00    -0.228 NA
ENDROOT
BRANCH   1   6
HETATM    6  N   UNL     1       4.612  30.611  53.742  1.00  0.00    -0.287 N 
HETATM    7  C   UNL     1       4.280  30.234  52.468  1.00  0.00     0.326 C 
HETATM    8  N   UNL     1       4.144  28.889  52.244  1.00  0.00    -0.309 N 
HETATM    9  O   UNL     1       4.136  31.124  51.633  1.00  0.00    -0.247 OA
HETATM   10  H   UNL     1       4.146  28.315  53.080  1.00  0.00     0.170 HD
HETATM   11  H   UNL     1       4.683  31.606  53.893  1.00  0.00     0.172 HD
BRANCH   8  12
HETATM   12  C   UNL     1       3.922  28.222  51.024  1.00  0.00     0.036 A 
HETATM   13  C   UNL     1       2.925  28.571  50.115  1.00  0.00     0.030 A 
HETATM   14  C   UNL     1       2.786  27.870  48.911  1.00  0.00     0.009 A 
HETATM   15  C   UNL     1       3.649  26.816  48.594  1.00  0.00    -0.062 A 
HETATM   16  C   UNL     1       3.468  26.052  47.316  1.00  0.00     0.048 C 
HETATM   17  C   UNL     1       4.644  26.462  49.508  1.00  0.00     0.009 A 
HETATM   18  C   UNL     1       4.782  27.162  50.711  1.00  0.00     0.030 A 
ENDBRANCH   8  12
ENDBRANCH   1   6
BRANCH   4  19
HETATM   19  C   UNL     1       7.017  27.287  56.346  1.00  0.00     0.163 C 
BRANCH  19  20
HETATM   20  C   UNL     1       6.709  25.889  55.820  1.00  0.00     0.227 C 
HETATM   21  N   UNL     1       7.820  25.103  55.572  1.00  0.00    -0.327 N 
HETATM   22  H   UNL     1       8.710  25.482  55.894  1.00  0.00     0.169 HD
HETATM   23  O   UNL     1       5.545  25.570  55.585  1.00  0.00    -0.273 OA
BRANCH  21  24
HETATM   24  C   UNL     1       7.874  23.827  54.979  1.00  0.00     0.036 A 
HETATM   25  C   UNL     1       7.966  22.632  55.699  1.00  0.00     0.056 A 
HETATM   26  C   UNL     1       7.982  21.408  55.023  1.00  0.00     0.074 A 
HETATM   27 CL   UNL     1       8.080  19.944  55.926  1.00  0.00    -0.081 Cl
HETATM   28  C   UNL     1       7.911  21.374  53.633  1.00  0.00     0.138 A 
HETATM   29  F   UNL     1       7.922  20.208  52.972  1.00  0.00    -0.204 F 
HETATM   30  C   UNL     1       7.825  22.554  52.905  1.00  0.00     0.046 A 
HETATM   31  C   UNL     1       7.807  23.778  53.578  1.00  0.00     0.032 A 
ENDBRANCH  21  24
ENDBRANCH  19  20
ENDBRANCH   4  19
TORSDOF 5
ENDMDL
