MODEL 1
REMARK VINA RESULT:      -8.9      0.000      0.000
REMARK  2 active torsions:
REMARK  status: ('A' for Active; 'I' for Inactive)
REMARK    1  A    between atoms: C_7  and  C_8 
REMARK    2  A    between atoms: C_8  and  O_9 
ROOT
HETATM    1  C   UNL     1       6.926  26.092  56.829  1.00  0.00     0.199 A 
HETATM    2  C   UNL     1       5.401  26.420  57.028  1.00  0.00     0.266 A 
HETATM    3  O   UNL     1       4.438  25.673  56.946  1.00  0.00    -0.269 OA
HETATM    4  N   UNL     1       5.314  27.766  57.394  1.00  0.00    -0.323 N 
HETATM    5  C   UNL     1       6.562  28.368  57.420  1.00  0.00     0.045 A 
HETATM    6  C   UNL     1       7.557  27.447  57.079  1.00  0.00     0.017 A 
HETATM    7  C   UNL     1       6.843  29.681  57.731  1.00  0.00     0.030 A 
HETATM    8  C   UNL     1       8.183  30.076  57.703  1.00  0.00     0.002 A 
HETATM    9  C   UNL     1       9.197  29.159  57.372  1.00  0.00     0.001 A 
HETATM   10  C   UNL     1       8.889  27.831  57.062  1.00  0.00     0.013 A 
HETATM   11  H   UNL     1       4.433  28.218  57.591  1.00  0.00     0.169 HD
ENDROOT
BRANCH   1  12
HETATM   12  C   UNL     1       7.255  25.679  55.408  1.00  0.00     0.025 A 
HETATM   13  C   UNL     1       7.320  26.485  54.266  1.00  0.00     0.016 A 
HETATM   14  C   UNL     1       7.109  27.945  54.063  1.00  0.00     0.069 C 
HETATM   15  N   UNL     1       7.639  25.686  53.197  1.00  0.00    -0.359 N 
HETATM   16  H   UNL     1       7.747  26.007  52.245  1.00  0.00     0.166 HD
HETATM   17  C   UNL     1       7.773  24.380  53.583  1.00  0.00     0.043 A 
HETATM   18  C   UNL     1       7.538  24.333  54.957  1.00  0.00     0.003 A 
HETATM   19  C   UNL     1       8.075  23.248  52.815  1.00  0.00     0.030 A 
HETATM   20  C   UNL     1       7.612  23.068  55.584  1.00  0.00     0.014 A 
HETATM   21  C   UNL     1       7.912  21.924  54.835  1.00  0.00     0.001 A 
HETATM   22  C   UNL     1       8.140  22.016  53.466  1.00  0.00     0.002 A 
ENDBRANCH   1  12
BRANCH   1  23
HETATM   23  O   UNL     1       7.392  25.194  57.831  1.00  0.00    -0.371 OA
HETATM   24  H   UNL     1       6.991  25.478  58.669  1.00  0.00     0.212 HD
ENDBRANCH   1  23
TORSDOF 2
ENDMDL
MODEL 2
REMARK VINA RESULT:      -8.8      2.380      3.662
REMARK  2 active torsions:
REMARK  status: ('A' for Active; 'I' for Inactive)
REMARK    1  A    between atoms: C_7  and  C_8 
REMARK    2  A    between atoms: C_8  and  O_9 
ROOT
HETATM    1  C   UNL     1       6.812  24.990  54.055  1.00  0.00     0.199 A 
HETATM    2  C   UNL     1       7.721  25.929  53.178  1.00  0.00     0.266 A 
HETATM    3  O   UNL     1       8.417  25.642  52.215  1.00  0.00    -0.269 OA
HETATM    4  N   UNL     1       7.556  27.229  53.662  1.00  0.00    -0.323 N 
HETATM    5  C   UNL     1       6.701  27.262  54.752  1.00  0.00     0.045 A 
HETATM    6  C   UNL     1       6.241  25.977  55.052  1.00  0.00     0.017 A 
HETATM    7  C   UNL     1       6.324  28.373  55.476  1.00  0.00     0.030 A 
HETATM    8  C   UNL     1       5.439  28.177  56.540  1.00  0.00     0.002 A 
HETATM    9  C   UNL     1       4.958  26.891  56.849  1.00  0.00     0.001 A 
HETATM   10  C   UNL     1       5.354  25.778  56.100  1.00  0.00     0.013 A 
HETATM   11  H   UNL     1       8.029  28.022  53.254  1.00  0.00     0.169 HD
ENDROOT
BRANCH   1  12
HETATM   12  C   UNL     1       7.610  23.956  54.825  1.00  0.00     0.025 A 
HETATM   13  C   UNL     1       8.243  24.100  56.065  1.00  0.00     0.016 A 
HETATM   14  C   UNL     1       8.340  25.249  57.007  1.00  0.00     0.069 C 
HETATM   15  N   UNL     1       8.856  22.912  56.372  1.00  0.00    -0.359 N 
HETATM   16  H   UNL     1       9.392  22.735  57.210  1.00  0.00     0.166 HD
HETATM   17  C   UNL     1       8.668  21.991  55.377  1.00  0.00     0.043 A 
HETATM   18  C   UNL     1       7.897  22.605  54.391  1.00  0.00     0.003 A 
HETATM   19  C   UNL     1       9.131  20.672  55.281  1.00  0.00     0.030 A 
HETATM   20  C   UNL     1       7.579  21.840  53.245  1.00  0.00     0.014 A 
HETATM   21  C   UNL     1       8.032  20.521  53.129  1.00  0.00     0.001 A 
HETATM   22  C   UNL     1       8.799  19.946  54.137  1.00  0.00     0.002 A 
ENDBRANCH   1  12
BRANCH   1  23
HETATM   23  O   UNL     1       5.735  24.459  53.289  1.00  0.00    -0.371 OA
HETATM   24  H   UNL     1       6.066  23.649  52.867  1.00  0.00     0.212 HD
ENDBRANCH   1  23
TORSDOF 2
ENDMDL
MODEL 3
REMARK VINA RESULT:      -8.6      1.687      2.498
REMARK  2 active torsions:
REMARK  status: ('A' for Active; 'I' for Inactive)
REMARK    1  A    between atoms: C_7  and  C_8 
REMARK    2  A    between atoms: C_8  and  O_9 
ROOT
HETATM    1  C   UNL     1       6.273  25.076  55.095  1.00  0.00     0.199 A 
HETATM    2  C   UNL     1       5.393  25.870  54.061  1.00  0.00     0.266 A 
HETATM    3  O   UNL     1       4.521  25.452  53.315  1.00  0.00    -0.269 OA
HETATM    4  N   UNL     1       5.740  27.219  54.176  1.00  0.00    -0.323 N 
HETATM    5  C   UNL     1       6.749  27.407  55.108  1.00  0.00     0.045 A 
HETATM    6  C   UNL     1       7.126  26.186  55.674  1.00  0.00     0.017 A 
HETATM    7  C   UNL     1       7.335  28.603  55.464  1.00  0.00     0.030 A 
HETATM    8  C   UNL     1       8.335  28.563  56.439  1.00  0.00     0.002 A 
HETATM    9  C   UNL     1       8.720  27.344  57.027  1.00  0.00     0.001 A 
HETATM   10  C   UNL     1       8.111  26.142  56.650  1.00  0.00     0.013 A 
HETATM   11  H   UNL     1       5.302  27.940  53.622  1.00  0.00     0.169 HD
ENDROOT
BRANCH   1  12
HETATM   12  C   UNL     1       7.198  24.076  54.429  1.00  0.00     0.025 A 
HETATM   13  C   UNL     1       7.798  24.159  53.168  1.00  0.00     0.016 A 
HETATM   14  C   UNL     1       7.747  25.202  52.106  1.00  0.00     0.069 C 
HETATM   15  N   UNL     1       8.542  23.024  52.973  1.00  0.00    -0.359 N 
HETATM   16  H   UNL     1       9.080  22.817  52.143  1.00  0.00     0.166 HD
HETATM   17  C   UNL     1       8.447  22.183  54.049  1.00  0.00     0.043 A 
HETATM   18  C   UNL     1       7.614  22.803  54.979  1.00  0.00     0.003 A 
HETATM   19  C   UNL     1       9.029  20.925  54.255  1.00  0.00     0.030 A 
HETATM   20  C   UNL     1       7.356  22.109  56.184  1.00  0.00     0.014 A 
HETATM   21  C   UNL     1       7.928  20.851  56.410  1.00  0.00     0.001 A 
HETATM   22  C   UNL     1       8.754  20.268  55.455  1.00  0.00     0.002 A 
ENDBRANCH   1  12
BRANCH   1  23
HETATM   23  O   UNL     1       5.474  24.538  56.143  1.00  0.00    -0.371 OA
HETATM   24  H   UNL     1       4.559  24.528  55.819  1.00  0.00     0.212 HD
ENDBRANCH   1  23
TORSDOF 2
ENDMDL
MODEL 4
REMARK VINA RESULT:      -8.6     10.084     12.580
REMARK  2 active torsions:
REMARK  status: ('A' for Active; 'I' for Inactive)
REMARK    1  A    between atoms: C_7  and  C_8 
REMARK    2  A    between atoms: C_8  and  O_9 
ROOT
HETATM    1  C   UNL     1       3.907  35.322  64.659  1.00  0.00     0.199 A 
HETATM    2  C   UNL     1       2.850  34.641  63.713  1.00  0.00     0.266 A 
HETATM    3  O   UNL     1       2.221  33.608  63.883  1.00  0.00    -0.269 OA
HETATM    4  N   UNL     1       2.688  35.481  62.607  1.00  0.00    -0.323 N 
HETATM    5  C   UNL     1       3.518  36.588  62.682  1.00  0.00     0.045 A 
HETATM    6  C   UNL     1       4.279  36.550  63.854  1.00  0.00     0.017 A 
HETATM    7  C   UNL     1       3.622  37.610  61.763  1.00  0.00     0.030 A 
HETATM    8  C   UNL     1       4.524  38.638  62.045  1.00  0.00     0.002 A 
HETATM    9  C   UNL     1       5.291  38.621  63.225  1.00  0.00     0.001 A 
HETATM   10  C   UNL     1       5.168  37.574  64.144  1.00  0.00     0.013 A 
HETATM   11  H   UNL     1       2.048  35.268  61.856  1.00  0.00     0.169 HD
ENDROOT
BRANCH   1  12
HETATM   12  C   UNL     1       5.157  34.483  64.838  1.00  0.00     0.025 A 
HETATM   13  C   UNL     1       5.801  34.135  66.030  1.00  0.00     0.016 A 
HETATM   14  C   UNL     1       5.495  34.440  67.455  1.00  0.00     0.069 C 
HETATM   15  N   UNL     1       6.902  33.379  65.716  1.00  0.00    -0.359 N 
HETATM   16  H   UNL     1       7.553  32.994  66.386  1.00  0.00     0.166 HD
HETATM   17  C   UNL     1       7.023  33.225  64.361  1.00  0.00     0.043 A 
HETATM   18  C   UNL     1       5.953  33.904  63.776  1.00  0.00     0.003 A 
HETATM   19  C   UNL     1       8.000  32.547  63.622  1.00  0.00     0.030 A 
HETATM   20  C   UNL     1       5.873  33.894  62.365  1.00  0.00     0.014 A 
HETATM   21  C   UNL     1       6.839  33.222  61.607  1.00  0.00     0.001 A 
HETATM   22  C   UNL     1       7.890  32.558  62.231  1.00  0.00     0.002 A 
ENDBRANCH   1  12
BRANCH   1  23
HETATM   23  O   UNL     1       3.304  35.754  65.874  1.00  0.00    -0.371 OA
HETATM   24  H   UNL     1       3.950  36.326  66.318  1.00  0.00     0.212 HD
ENDBRANCH   1  23
TORSDOF 2
ENDMDL
MODEL 5
REMARK VINA RESULT:      -8.5      1.704      5.110
REMARK  2 active torsions:
REMARK  status: ('A' for Active; 'I' for Inactive)
REMARK    1  A    between atoms: C_7  and  C_8 
REMARK    2  A    between atoms: C_8  and  O_9 
ROOT
HETATM    1  C   UNL     1       5.893  25.264  54.717  1.00  0.00     0.199 A 
HETATM    2  C   UNL     1       5.719  24.904  56.238  1.00  0.00     0.266 A 
HETATM    3  O   UNL     1       5.044  25.465  57.087  1.00  0.00    -0.269 OA
HETATM    4  N   UNL     1       6.454  23.738  56.470  1.00  0.00    -0.323 N 
HETATM    5  C   UNL     1       7.112  23.314  55.326  1.00  0.00     0.045 A 
HETATM    6  C   UNL     1       6.843  24.176  54.260  1.00  0.00     0.017 A 
HETATM    7  C   UNL     1       7.927  22.209  55.200  1.00  0.00     0.030 A 
HETATM    8  C   UNL     1       8.484  21.963  53.943  1.00  0.00     0.002 A 
HETATM    9  C   UNL     1       8.216  22.815  52.856  1.00  0.00     0.001 A 
HETATM   10  C   UNL     1       7.385  23.929  53.007  1.00  0.00     0.013 A 
HETATM   11  H   UNL     1       6.493  23.295  57.376  1.00  0.00     0.169 HD
ENDROOT
BRANCH   1  12
HETATM   12  C   UNL     1       6.577  26.601  54.506  1.00  0.00     0.025 A 
HETATM   13  C   UNL     1       6.512  27.439  53.387  1.00  0.00     0.016 A 
HETATM   14  C   UNL     1       5.782  27.321  52.095  1.00  0.00     0.069 C 
HETATM   15  N   UNL     1       7.299  28.536  53.629  1.00  0.00    -0.359 N 
HETATM   16  H   UNL     1       7.440  29.303  52.986  1.00  0.00     0.166 HD
HETATM   17  C   UNL     1       7.897  28.451  54.857  1.00  0.00     0.043 A 
HETATM   18  C   UNL     1       7.474  27.254  55.435  1.00  0.00     0.003 A 
HETATM   19  C   UNL     1       8.781  29.338  55.484  1.00  0.00     0.030 A 
HETATM   20  C   UNL     1       7.976  26.941  56.719  1.00  0.00     0.014 A 
HETATM   21  C   UNL     1       8.861  27.814  57.363  1.00  0.00     0.001 A 
HETATM   22  C   UNL     1       9.258  28.998  56.751  1.00  0.00     0.002 A 
ENDBRANCH   1  12
BRANCH   1  23
HETATM   23  O   UNL     1       4.666  25.108  54.010  1.00  0.00    -0.371 OA
HETATM   24  H   UNL     1       4.625  24.181  53.725  1.00  0.00     0.212 HD
ENDBRANCH   1  23
TORSDOF 2
ENDMDL
MODEL 6
REMARK VINA RESULT:      -8.4      1.304      2.432
REMARK  2 active torsions:
REMARK  status: ('A' for Active; 'I' for Inactive)
REMARK    1  A    between atoms: C_7  and  C_8 
REMARK    2  A    between atoms: C_8  and  O_9 
ROOT
HETATM    1  C   UNL     1       6.877  25.771  57.175  1.00  0.00     0.199 A 
HETATM    2  C   UNL     1       5.308  25.845  57.240  1.00  0.00     0.266 A 
HETATM    3  O   UNL     1       4.506  24.952  57.468  1.00  0.00    -0.269 OA
HETATM    4  N   UNL     1       4.951  27.182  57.044  1.00  0.00    -0.323 N 
HETATM    5  C   UNL     1       6.063  27.978  56.820  1.00  0.00     0.045 A 
HETATM    6  C   UNL     1       7.231  27.211  56.863  1.00  0.00     0.017 A 
HETATM    7  C   UNL     1       6.077  29.336  56.584  1.00  0.00     0.030 A 
HETATM    8  C   UNL     1       7.320  29.943  56.391  1.00  0.00     0.002 A 
HETATM    9  C   UNL     1       8.506  29.187  56.442  1.00  0.00     0.001 A 
HETATM   10  C   UNL     1       8.469  27.810  56.684  1.00  0.00     0.013 A 
HETATM   11  H   UNL     1       3.991  27.493  57.054  1.00  0.00     0.169 HD
ENDROOT
BRANCH   1  12
HETATM   12  C   UNL     1       7.376  24.910  56.030  1.00  0.00     0.025 A 
HETATM   13  C   UNL     1       8.083  23.705  56.100  1.00  0.00     0.016 A 
HETATM   14  C   UNL     1       8.557  22.892  57.254  1.00  0.00     0.069 C 
HETATM   15  N   UNL     1       8.338  23.284  54.819  1.00  0.00    -0.359 N 
HETATM   16  H   UNL     1       8.839  22.442  54.573  1.00  0.00     0.166 HD
HETATM   17  C   UNL     1       7.841  24.172  53.903  1.00  0.00     0.043 A 
HETATM   18  C   UNL     1       7.235  25.203  54.620  1.00  0.00     0.003 A 
HETATM   19  C   UNL     1       7.894  24.136  52.504  1.00  0.00     0.030 A 
HETATM   20  C   UNL     1       6.652  26.255  53.876  1.00  0.00     0.014 A 
HETATM   21  C   UNL     1       6.695  26.238  52.477  1.00  0.00     0.001 A 
HETATM   22  C   UNL     1       7.309  25.190  51.801  1.00  0.00     0.002 A 
ENDBRANCH   1  12
BRANCH   1  23
HETATM   23  O   UNL     1       7.429  25.444  58.446  1.00  0.00    -0.371 OA
HETATM   24  H   UNL     1       7.019  24.608  58.722  1.00  0.00     0.212 HD
ENDBRANCH   1  23
TORSDOF 2
ENDMDL
MODEL 7
REMARK VINA RESULT:      -8.3      2.274      3.414
REMARK  2 active torsions:
REMARK  status: ('A' for Active; 'I' for Inactive)
REMARK    1  A    between atoms: C_7  and  C_8 
REMARK    2  A    between atoms: C_8  and  O_9 
ROOT
HETATM    1  C   UNL     1       7.612  28.041  55.415  1.00  0.00     0.199 A 
HETATM    2  C   UNL     1       8.387  28.654  56.639  1.00  0.00     0.266 A 
HETATM    3  O   UNL     1       9.570  28.552  56.927  1.00  0.00    -0.269 OA
HETATM    4  N   UNL     1       7.473  29.429  57.358  1.00  0.00    -0.323 N 
HETATM    5  C   UNL     1       6.207  29.373  56.798  1.00  0.00     0.045 A 
HETATM    6  C   UNL     1       6.210  28.558  55.663  1.00  0.00     0.017 A 
HETATM    7  C   UNL     1       5.071  30.008  57.252  1.00  0.00     0.030 A 
HETATM    8  C   UNL     1       3.894  29.818  56.524  1.00  0.00     0.002 A 
HETATM    9  C   UNL     1       3.881  29.009  55.373  1.00  0.00     0.001 A 
HETATM   10  C   UNL     1       5.046  28.375  54.929  1.00  0.00     0.013 A 
HETATM   11  H   UNL     1       7.733  29.940  58.188  1.00  0.00     0.169 HD
ENDROOT
BRANCH   1  12
HETATM   12  C   UNL     1       7.565  26.526  55.451  1.00  0.00     0.025 A 
HETATM   13  C   UNL     1       7.482  25.690  56.571  1.00  0.00     0.016 A 
HETATM   14  C   UNL     1       7.406  25.981  58.029  1.00  0.00     0.069 C 
HETATM   15  N   UNL     1       7.479  24.390  56.133  1.00  0.00    -0.359 N 
HETATM   16  H   UNL     1       7.431  23.576  56.731  1.00  0.00     0.166 HD
HETATM   17  C   UNL     1       7.573  24.330  54.769  1.00  0.00     0.043 A 
HETATM   18  C   UNL     1       7.632  25.644  54.305  1.00  0.00     0.003 A 
HETATM   19  C   UNL     1       7.619  23.214  53.925  1.00  0.00     0.030 A 
HETATM   20  C   UNL     1       7.744  25.835  52.909  1.00  0.00     0.014 A 
HETATM   21  C   UNL     1       7.791  24.733  52.047  1.00  0.00     0.001 A 
HETATM   22  C   UNL     1       7.730  23.438  52.552  1.00  0.00     0.002 A 
ENDBRANCH   1  12
BRANCH   1  23
HETATM   23  O   UNL     1       8.077  28.590  54.186  1.00  0.00    -0.371 OA
HETATM   24  H   UNL     1       7.553  28.178  53.480  1.00  0.00     0.212 HD
ENDBRANCH   1  23
TORSDOF 2
ENDMDL
MODEL 8
REMARK VINA RESULT:      -8.2      2.404      5.666
REMARK  2 active torsions:
REMARK  status: ('A' for Active; 'I' for Inactive)
REMARK    1  A    between atoms: C_7  and  C_8 
REMARK    2  A    between atoms: C_8  and  O_9 
ROOT
HETATM    1  C   UNL     1       6.283  27.935  53.974  1.00  0.00     0.199 A 
HETATM    2  C   UNL     1       4.715  27.982  53.853  1.00  0.00     0.266 A 
HETATM    3  O   UNL     1       3.957  28.917  54.063  1.00  0.00    -0.269 OA
HETATM    4  N   UNL     1       4.302  26.732  53.384  1.00  0.00    -0.323 N 
HETATM    5  C   UNL     1       5.373  25.869  53.222  1.00  0.00     0.045 A 
HETATM    6  C   UNL     1       6.569  26.503  53.570  1.00  0.00     0.017 A 
HETATM    7  C   UNL     1       5.327  24.563  52.785  1.00  0.00     0.030 A 
HETATM    8  C   UNL     1       6.538  23.874  52.688  1.00  0.00     0.002 A 
HETATM    9  C   UNL     1       7.752  24.500  53.025  1.00  0.00     0.001 A 
HETATM   10  C   UNL     1       7.776  25.828  53.465  1.00  0.00     0.013 A 
HETATM   11  H   UNL     1       3.331  26.514  53.210  1.00  0.00     0.169 HD
ENDROOT
BRANCH   1  12
HETATM   12  C   UNL     1       6.766  28.124  55.398  1.00  0.00     0.025 A 
HETATM   13  C   UNL     1       6.095  27.814  56.587  1.00  0.00     0.016 A 
HETATM   14  C   UNL     1       4.757  27.218  56.850  1.00  0.00     0.069 C 
HETATM   15  N   UNL     1       6.904  28.166  57.638  1.00  0.00    -0.359 N 
HETATM   16  H   UNL     1       6.668  28.056  58.614  1.00  0.00     0.166 HD
HETATM   17  C   UNL     1       8.078  28.712  57.193  1.00  0.00     0.043 A 
HETATM   18  C   UNL     1       8.029  28.706  55.799  1.00  0.00     0.003 A 
HETATM   19  C   UNL     1       9.164  29.212  57.923  1.00  0.00     0.030 A 
HETATM   20  C   UNL     1       9.142  29.238  55.109  1.00  0.00     0.014 A 
HETATM   21  C   UNL     1      10.238  29.744  55.819  1.00  0.00     0.001 A 
HETATM   22  C   UNL     1      10.246  29.730  57.210  1.00  0.00     0.002 A 
ENDBRANCH   1  12
BRANCH   1  23
HETATM   23  O   UNL     1       6.897  28.796  53.020  1.00  0.00    -0.371 OA
HETATM   24  H   UNL     1       6.286  28.860  52.268  1.00  0.00     0.212 HD
ENDBRANCH   1  23
TORSDOF 2
ENDMDL
MODEL 9
REMARK VINA RESULT:      -8.1      2.451      5.276
REMARK  2 active torsions:
REMARK  status: ('A' for Active; 'I' for Inactive)
REMARK    1  A    between atoms: C_7  and  C_8 
REMARK    2  A    between atoms: C_8  and  O_9 
ROOT
HETATM    1  C   UNL     1       5.549  25.327  54.409  1.00  0.00     0.199 A 
HETATM    2  C   UNL     1       5.600  25.345  55.981  1.00  0.00     0.266 A 
HETATM    3  O   UNL     1       4.907  25.977  56.764  1.00  0.00    -0.269 OA
HETATM    4  N   UNL     1       6.580  24.428  56.371  1.00  0.00    -0.323 N 
HETATM    5  C   UNL     1       7.199  23.847  55.275  1.00  0.00     0.045 A 
HETATM    6  C   UNL     1       6.657  24.345  54.087  1.00  0.00     0.017 A 
HETATM    7  C   UNL     1       8.210  22.910  55.294  1.00  0.00     0.030 A 
HETATM    8  C   UNL     1       8.684  22.452  54.063  1.00  0.00     0.002 A 
HETATM    9  C   UNL     1       8.142  22.934  52.857  1.00  0.00     0.001 A 
HETATM   10  C   UNL     1       7.116  23.884  52.862  1.00  0.00     0.013 A 
HETATM   11  H   UNL     1       6.796  24.246  57.340  1.00  0.00     0.169 HD
ENDROOT
BRANCH   1  12
HETATM   12  C   UNL     1       5.918  26.664  53.796  1.00  0.00     0.025 A 
HETATM   13  C   UNL     1       6.706  27.680  54.347  1.00  0.00     0.016 A 
HETATM   14  C   UNL     1       7.422  27.792  55.648  1.00  0.00     0.069 C 
HETATM   15  N   UNL     1       6.762  28.714  53.447  1.00  0.00    -0.359 N 
HETATM   16  H   UNL     1       7.261  29.581  53.589  1.00  0.00     0.166 HD
HETATM   17  C   UNL     1       6.029  28.430  52.327  1.00  0.00     0.043 A 
HETATM   18  C   UNL     1       5.483  27.159  52.507  1.00  0.00     0.003 A 
HETATM   19  C   UNL     1       5.807  29.207  51.183  1.00  0.00     0.030 A 
HETATM   20  C   UNL     1       4.668  26.650  51.470  1.00  0.00     0.014 A 
HETATM   21  C   UNL     1       4.434  27.411  50.318  1.00  0.00     0.001 A 
HETATM   22  C   UNL     1       4.997  28.674  50.179  1.00  0.00     0.002 A 
ENDBRANCH   1  12
BRANCH   1  23
HETATM   23  O   UNL     1       4.321  24.779  53.942  1.00  0.00    -0.371 OA
HETATM   24  H   UNL     1       4.445  23.818  53.891  1.00  0.00     0.212 HD
ENDBRANCH   1  23
TORSDOF 2
ENDMDL
MODEL 10
REMARK VINA RESULT:      -8.0      7.886     10.328
REMARK  2 active torsions:
REMARK  status: ('A' for Active; 'I' for Inactive)
REMARK    1  A    between atoms: C_7  and  C_8 
REMARK    2  A    between atoms: C_8  and  O_9 
ROOT
HETATM    1  C   UNL     1       4.718  33.520  62.961  1.00  0.00     0.199 A 
HETATM    2  C   UNL     1       3.858  32.548  62.071  1.00  0.00     0.266 A 
HETATM    3  O   UNL     1       3.593  31.370  62.257  1.00  0.00    -0.269 OA
HETATM    4  N   UNL     1       3.365  33.299  61.001  1.00  0.00    -0.323 N 
HETATM    5  C   UNL     1       3.816  34.609  61.047  1.00  0.00     0.045 A 
HETATM    6  C   UNL     1       4.633  34.806  62.164  1.00  0.00     0.017 A 
HETATM    7  C   UNL     1       3.532  35.616  60.150  1.00  0.00     0.030 A 
HETATM    8  C   UNL     1       4.090  36.873  60.396  1.00  0.00     0.002 A 
HETATM    9  C   UNL     1       4.907  37.091  61.521  1.00  0.00     0.001 A 
HETATM   10  C   UNL     1       5.180  36.054  62.419  1.00  0.00     0.013 A 
HETATM   11  H   UNL     1       2.770  32.901  60.290  1.00  0.00     0.169 HD
ENDROOT
BRANCH   1  12
HETATM   12  C   UNL     1       6.176  33.111  63.034  1.00  0.00     0.025 A 
HETATM   13  C   UNL     1       7.042  33.188  64.130  1.00  0.00     0.016 A 
HETATM   14  C   UNL     1       6.841  33.661  65.527  1.00  0.00     0.069 C 
HETATM   15  N   UNL     1       8.270  32.720  63.738  1.00  0.00    -0.359 N 
HETATM   16  H   UNL     1       9.087  32.666  64.330  1.00  0.00     0.166 HD
HETATM   17  C   UNL     1       8.258  32.351  62.420  1.00  0.00     0.043 A 
HETATM   18  C   UNL     1       6.968  32.583  61.943  1.00  0.00     0.003 A 
HETATM   19  C   UNL     1       9.292  31.842  61.624  1.00  0.00     0.030 A 
HETATM   20  C   UNL     1       6.715  32.282  60.585  1.00  0.00     0.014 A 
HETATM   21  C   UNL     1       7.735  31.773  59.772  1.00  0.00     0.001 A 
HETATM   22  C   UNL     1       9.008  31.556  60.288  1.00  0.00     0.002 A 
ENDBRANCH   1  12
BRANCH   1  23
HETATM   23  O   UNL     1       4.100  33.740  64.225  1.00  0.00    -0.371 OA
HETATM   24  H   UNL     1       3.150  33.579  64.103  1.00  0.00     0.212 HD
ENDBRANCH   1  23
TORSDOF 2
ENDMDL
