MODEL 1
REMARK VINA RESULT:      -8.5      0.000      0.000
REMARK  6 active torsions:
REMARK  status: ('A' for Active; 'I' for Inactive)
REMARK    1  A    between atoms: C_2  and  O_3 
REMARK    2  A    between atoms: O_3  and  C_4 
REMARK    3  A    between atoms: C_7  and  N_8 
REMARK    4  A    between atoms: N_8  and  C_9 
REMARK    5  A    between atoms: C_9  and  C_10 
REMARK    6  A    between atoms: C_17  and  O_18 
ROOT
HETATM    1  C   UNL     1       7.510  26.692  55.599  1.00  0.00     0.024 A 
HETATM    2  C   UNL     1       7.866  25.912  56.827  1.00  0.00     0.253 A 
HETATM    3  O   UNL     1       7.985  26.454  57.922  1.00  0.00    -0.268 OA
HETATM    4  N   UNL     1       8.058  24.564  56.681  1.00  0.00    -0.322 N 
HETATM    5  C   UNL     1       7.968  23.894  55.457  1.00  0.00     0.048 A 
HETATM    6  C   UNL     1       7.655  24.620  54.305  1.00  0.00    -0.009 A 
HETATM    7  C   UNL     1       8.200  22.521  55.393  1.00  0.00     0.067 A 
HETATM    8  C   UNL     1       8.127  21.855  54.166  1.00  0.00     0.070 A 
HETATM    9  C   UNL     1       7.814  22.576  53.011  1.00  0.00     0.038 A 
HETATM   10  C   UNL     1       7.577  23.955  53.080  1.00  0.00     0.016 A 
HETATM   11  C   UNL     1       7.419  26.059  54.415  1.00  0.00     0.027 A 
HETATM   12  H   UNL     1       8.297  24.057  57.523  1.00  0.00     0.169 HD
ENDROOT
BRANCH   1  13
HETATM   13  C   UNL     1       7.308  28.167  55.835  1.00  0.00     0.136 C 
BRANCH  13  14
HETATM   14  N   UNL     1       8.600  28.857  55.910  1.00  0.00    -0.289 NA
HETATM   15  H   UNL     1       8.798  29.349  55.041  1.00  0.00     0.128 HD
BRANCH  14  16
HETATM   16  C   UNL     1       8.858  29.691  57.009  1.00  0.00     0.008 A 
HETATM   17  C   UNL     1      10.060  30.376  57.200  1.00  0.00     0.026 A 
HETATM   18  C   UNL     1      10.224  31.261  58.274  1.00  0.00     0.038 A 
HETATM   19  C   UNL     1       9.180  31.506  59.165  1.00  0.00     0.068 A 
HETATM   20  C   UNL     1       7.963  30.863  58.965  1.00  0.00     0.038 A 
HETATM   21  C   UNL     1       7.804  29.979  57.888  1.00  0.00     0.026 A 
BRANCH  19  22
HETATM   22  O   UNL     1       9.473  32.394  60.162  1.00  0.00    -0.352 OA
BRANCH  22  23
HETATM   23  C   UNL     1       9.684  31.859  61.466  1.00  0.00     0.171 C 
HETATM   24  C   UNL     1       8.479  32.215  62.318  1.00  0.00     0.034 C 
ENDBRANCH  22  23
ENDBRANCH  19  22
ENDBRANCH  14  16
ENDBRANCH  13  14
ENDBRANCH   1  13
BRANCH   8  25
HETATM   25  O   UNL     1       8.380  20.512  54.231  1.00  0.00    -0.356 OA
HETATM   26  C   UNL     1       8.647  19.968  55.517  1.00  0.00     0.210 C 
ENDBRANCH   8  25
TORSDOF 6
ENDMDL
MODEL 2
REMARK VINA RESULT:      -8.4      1.937      8.356
REMARK  6 active torsions:
REMARK  status: ('A' for Active; 'I' for Inactive)
REMARK    1  A    between atoms: C_2  and  O_3 
REMARK    2  A    between atoms: O_3  and  C_4 
REMARK    3  A    between atoms: C_7  and  N_8 
REMARK    4  A    between atoms: N_8  and  C_9 
REMARK    5  A    between atoms: C_9  and  C_10 
REMARK    6  A    between atoms: C_17  and  O_18 
ROOT
HETATM    1  C   UNL     1       6.235  28.096  55.020  1.00  0.00     0.024 A 
HETATM    2  C   UNL     1       5.352  28.378  56.196  1.00  0.00     0.253 A 
HETATM    3  O   UNL     1       4.152  28.121  56.176  1.00  0.00    -0.268 OA
HETATM    4  N   UNL     1       5.936  28.940  57.300  1.00  0.00    -0.322 N 
HETATM    5  C   UNL     1       7.289  29.285  57.373  1.00  0.00     0.048 A 
HETATM    6  C   UNL     1       8.114  29.041  56.272  1.00  0.00    -0.009 A 
HETATM    7  C   UNL     1       7.800  29.873  58.528  1.00  0.00     0.067 A 
HETATM    8  C   UNL     1       9.149  30.233  58.594  1.00  0.00     0.070 A 
HETATM    9  C   UNL     1       9.978  29.992  57.496  1.00  0.00     0.038 A 
HETATM   10  C   UNL     1       9.463  29.397  56.337  1.00  0.00     0.016 A 
HETATM   11  C   UNL     1       7.540  28.422  55.078  1.00  0.00     0.027 A 
HETATM   12  H   UNL     1       5.321  29.121  58.083  1.00  0.00     0.169 HD
ENDROOT
BRANCH   1  13
HETATM   13  C   UNL     1       5.528  27.473  53.844  1.00  0.00     0.136 C 
BRANCH  13  14
HETATM   14  N   UNL     1       5.115  26.101  54.160  1.00  0.00    -0.289 NA
HETATM   15  H   UNL     1       4.293  25.838  53.621  1.00  0.00     0.128 HD
BRANCH  14  16
HETATM   16  C   UNL     1       6.075  25.079  54.111  1.00  0.00     0.008 A 
HETATM   17  C   UNL     1       6.783  24.730  52.959  1.00  0.00     0.026 A 
HETATM   18  C   UNL     1       7.791  23.758  52.996  1.00  0.00     0.038 A 
HETATM   19  C   UNL     1       8.137  23.131  54.191  1.00  0.00     0.068 A 
HETATM   20  C   UNL     1       7.470  23.495  55.357  1.00  0.00     0.038 A 
HETATM   21  C   UNL     1       6.463  24.471  55.314  1.00  0.00     0.026 A 
BRANCH  19  22
HETATM   22  O   UNL     1       9.139  22.208  54.087  1.00  0.00    -0.352 OA
BRANCH  22  23
HETATM   23  C   UNL     1       8.772  20.836  54.215  1.00  0.00     0.171 C 
HETATM   24  C   UNL     1       8.325  20.343  52.850  1.00  0.00     0.034 C 
ENDBRANCH  22  23
ENDBRANCH  19  22
ENDBRANCH  14  16
ENDBRANCH  13  14
ENDBRANCH   1  13
BRANCH   8  25
HETATM   25  O   UNL     1       9.528  30.807  59.777  1.00  0.00    -0.356 OA
HETATM   26  C   UNL     1       9.002  32.096  60.067  1.00  0.00     0.210 C 
ENDBRANCH   8  25
TORSDOF 6
ENDMDL
MODEL 3
REMARK VINA RESULT:      -8.3      1.155      1.647
REMARK  6 active torsions:
REMARK  status: ('A' for Active; 'I' for Inactive)
REMARK    1  A    between atoms: C_2  and  O_3 
REMARK    2  A    between atoms: O_3  and  C_4 
REMARK    3  A    between atoms: C_7  and  N_8 
REMARK    4  A    between atoms: N_8  and  C_9 
REMARK    5  A    between atoms: C_9  and  C_10 
REMARK    6  A    between atoms: C_17  and  O_18 
ROOT
HETATM    1  C   UNL     1       6.473  26.476  54.844  1.00  0.00     0.024 A 
HETATM    2  C   UNL     1       6.306  25.789  56.164  1.00  0.00     0.253 A 
HETATM    3  O   UNL     1       5.851  26.375  57.142  1.00  0.00    -0.268 OA
HETATM    4  N   UNL     1       6.683  24.474  56.240  1.00  0.00    -0.322 N 
HETATM    5  C   UNL     1       7.236  23.762  55.172  1.00  0.00     0.048 A 
HETATM    6  C   UNL     1       7.412  24.403  53.943  1.00  0.00    -0.009 A 
HETATM    7  C   UNL     1       7.614  22.430  55.340  1.00  0.00     0.067 A 
HETATM    8  C   UNL     1       8.182  21.723  54.277  1.00  0.00     0.070 A 
HETATM    9  C   UNL     1       8.361  22.361  53.046  1.00  0.00     0.038 A 
HETATM   10  C   UNL     1       7.976  23.697  52.879  1.00  0.00     0.016 A 
HETATM   11  C   UNL     1       7.003  25.801  53.808  1.00  0.00     0.027 A 
HETATM   12  H   UNL     1       6.560  24.029  57.140  1.00  0.00     0.169 HD
ENDROOT
BRANCH   1  13
HETATM   13  C   UNL     1       6.032  27.917  54.832  1.00  0.00     0.136 C 
BRANCH  13  14
HETATM   14  N   UNL     1       7.195  28.809  54.759  1.00  0.00    -0.289 NA
HETATM   15  H   UNL     1       7.023  29.574  54.109  1.00  0.00     0.128 HD
BRANCH  14  16
HETATM   16  C   UNL     1       7.745  29.301  55.952  1.00  0.00     0.008 A 
HETATM   17  C   UNL     1       6.984  29.708  57.051  1.00  0.00     0.026 A 
HETATM   18  C   UNL     1       7.596  30.108  58.246  1.00  0.00     0.038 A 
HETATM   19  C   UNL     1       8.983  30.084  58.382  1.00  0.00     0.068 A 
HETATM   20  C   UNL     1       9.754  29.643  57.312  1.00  0.00     0.038 A 
HETATM   21  C   UNL     1       9.136  29.241  56.119  1.00  0.00     0.026 A 
BRANCH  19  22
HETATM   22  O   UNL     1       9.448  30.494  59.600  1.00  0.00    -0.352 OA
BRANCH  22  23
HETATM   23  C   UNL     1       9.055  31.792  60.041  1.00  0.00     0.171 C 
HETATM   24  C   UNL     1       9.485  31.944  61.489  1.00  0.00     0.034 C 
ENDBRANCH  22  23
ENDBRANCH  19  22
ENDBRANCH  14  16
ENDBRANCH  13  14
ENDBRANCH   1  13
BRANCH   8  25
HETATM   25  O   UNL     1       8.516  20.429  54.567  1.00  0.00    -0.356 OA
HETATM   26  C   UNL     1       8.285  19.986  55.898  1.00  0.00     0.210 C 
ENDBRANCH   8  25
TORSDOF 6
ENDMDL
MODEL 4
REMARK VINA RESULT:      -8.1      1.948      2.647
REMARK  6 active torsions:
REMARK  status: ('A' for Active; 'I' for Inactive)
REMARK    1  A    between atoms: C_2  and  O_3 
REMARK    2  A    between atoms: O_3  and  C_4 
REMARK    3  A    between atoms: C_7  and  N_8 
REMARK    4  A    between atoms: N_8  and  C_9 
REMARK    5  A    between atoms: C_9  and  C_10 
REMARK    6  A    between atoms: C_17  and  O_18 
ROOT
HETATM    1  C   UNL     1       5.874  26.180  55.322  1.00  0.00     0.024 A 
HETATM    2  C   UNL     1       5.633  25.727  53.915  1.00  0.00     0.253 A 
HETATM    3  O   UNL     1       4.930  26.371  53.143  1.00  0.00    -0.268 OA
HETATM    4  N   UNL     1       6.229  24.558  53.521  1.00  0.00    -0.322 N 
HETATM    5  C   UNL     1       7.014  23.764  54.363  1.00  0.00     0.048 A 
HETATM    6  C   UNL     1       7.226  24.172  55.682  1.00  0.00    -0.009 A 
HETATM    7  C   UNL     1       7.566  22.576  53.888  1.00  0.00     0.067 A 
HETATM    8  C   UNL     1       8.337  21.774  54.734  1.00  0.00     0.070 A 
HETATM    9  C   UNL     1       8.552  22.178  56.055  1.00  0.00     0.038 A 
HETATM   10  C   UNL     1       7.999  23.375  56.527  1.00  0.00     0.016 A 
HETATM   11  C   UNL     1       6.628  25.426  56.142  1.00  0.00     0.027 A 
HETATM   12  H   UNL     1       6.054  24.271  52.567  1.00  0.00     0.169 HD
ENDROOT
BRANCH   1  13
HETATM   13  C   UNL     1       5.193  27.475  55.684  1.00  0.00     0.136 C 
BRANCH  13  14
HETATM   14  N   UNL     1       6.042  28.618  55.328  1.00  0.00    -0.289 NA
HETATM   15  H   UNL     1       5.492  29.353  54.889  1.00  0.00     0.128 HD
BRANCH  14  16
HETATM   16  C   UNL     1       6.886  29.164  56.307  1.00  0.00     0.008 A 
HETATM   17  C   UNL     1       6.428  29.804  57.461  1.00  0.00     0.026 A 
HETATM   18  C   UNL     1       7.321  30.251  58.443  1.00  0.00     0.038 A 
HETATM   19  C   UNL     1       8.693  30.043  58.310  1.00  0.00     0.068 A 
HETATM   20  C   UNL     1       9.163  29.371  57.186  1.00  0.00     0.038 A 
HETATM   21  C   UNL     1       8.264  28.924  56.208  1.00  0.00     0.026 A 
BRANCH  19  22
HETATM   22  O   UNL     1       9.449  30.524  59.342  1.00  0.00    -0.352 OA
BRANCH  22  23
HETATM   23  C   UNL     1       8.752  31.037  60.474  1.00  0.00     0.171 C 
HETATM   24  C   UNL     1       9.380  30.439  61.720  1.00  0.00     0.034 C 
ENDBRANCH  22  23
ENDBRANCH  19  22
ENDBRANCH  14  16
ENDBRANCH  13  14
ENDBRANCH   1  13
BRANCH   8  25
HETATM   25  O   UNL     1       8.819  20.632  54.155  1.00  0.00    -0.356 OA
HETATM   26  C   UNL     1       8.382  20.346  52.832  1.00  0.00     0.210 C 
ENDBRANCH   8  25
TORSDOF 6
ENDMDL
MODEL 5
REMARK VINA RESULT:      -8.0      6.036      9.313
REMARK  6 active torsions:
REMARK  status: ('A' for Active; 'I' for Inactive)
REMARK    1  A    between atoms: C_2  and  O_3 
REMARK    2  A    between atoms: O_3  and  C_4 
REMARK    3  A    between atoms: C_7  and  N_8 
REMARK    4  A    between atoms: N_8  and  C_9 
REMARK    5  A    between atoms: C_9  and  C_10 
REMARK    6  A    between atoms: C_17  and  O_18 
ROOT
HETATM    1  C   UNL     1       5.924  26.197  52.134  1.00  0.00     0.024 A 
HETATM    2  C   UNL     1       5.361  26.417  53.504  1.00  0.00     0.253 A 
HETATM    3  O   UNL     1       4.612  27.357  53.749  1.00  0.00    -0.268 OA
HETATM    4  N   UNL     1       5.718  25.525  54.480  1.00  0.00    -0.322 N 
HETATM    5  C   UNL     1       6.592  24.453  54.272  1.00  0.00     0.048 A 
HETATM    6  C   UNL     1       7.134  24.254  53.000  1.00  0.00    -0.009 A 
HETATM    7  C   UNL     1       6.920  23.603  55.326  1.00  0.00     0.067 A 
HETATM    8  C   UNL     1       7.806  22.542  55.121  1.00  0.00     0.070 A 
HETATM    9  C   UNL     1       8.353  22.339  53.851  1.00  0.00     0.038 A 
HETATM   10  C   UNL     1       8.017  23.192  52.792  1.00  0.00     0.016 A 
HETATM   11  C   UNL     1       6.765  25.169  51.920  1.00  0.00     0.027 A 
HETATM   12  H   UNL     1       5.326  25.691  55.398  1.00  0.00     0.169 HD
ENDROOT
BRANCH   1  13
HETATM   13  C   UNL     1       5.484  27.212  51.110  1.00  0.00     0.136 C 
BRANCH  13  14
HETATM   14  N   UNL     1       5.461  26.614  49.771  1.00  0.00    -0.289 NA
HETATM   15  H   UNL     1       5.767  25.644  49.803  1.00  0.00     0.128 HD
BRANCH  14  16
HETATM   16  C   UNL     1       4.295  26.729  49.000  1.00  0.00     0.008 A 
HETATM   17  C   UNL     1       3.688  27.946  48.683  1.00  0.00     0.026 A 
HETATM   18  C   UNL     1       2.573  27.999  47.836  1.00  0.00     0.038 A 
HETATM   19  C   UNL     1       2.055  26.840  47.261  1.00  0.00     0.068 A 
HETATM   20  C   UNL     1       2.672  25.623  47.534  1.00  0.00     0.038 A 
HETATM   21  C   UNL     1       3.789  25.576  48.380  1.00  0.00     0.026 A 
BRANCH  19  22
HETATM   22  O   UNL     1       0.971  27.035  46.452  1.00  0.00    -0.352 OA
BRANCH  22  23
HETATM   23  C   UNL     1       0.327  28.305  46.525  1.00  0.00     0.171 C 
HETATM   24  C   UNL     1      -1.093  28.139  46.013  1.00  0.00     0.034 C 
ENDBRANCH  22  23
ENDBRANCH  19  22
ENDBRANCH  14  16
ENDBRANCH  13  14
ENDBRANCH   1  13
BRANCH   8  25
HETATM   25  O   UNL     1       8.054  21.783  56.232  1.00  0.00    -0.356 OA
HETATM   26  C   UNL     1       8.291  20.396  56.027  1.00  0.00     0.210 C 
ENDBRANCH   8  25
TORSDOF 6
ENDMDL
MODEL 6
REMARK VINA RESULT:      -7.9      6.176      9.337
REMARK  6 active torsions:
REMARK  status: ('A' for Active; 'I' for Inactive)
REMARK    1  A    between atoms: C_2  and  O_3 
REMARK    2  A    between atoms: O_3  and  C_4 
REMARK    3  A    between atoms: C_7  and  N_8 
REMARK    4  A    between atoms: N_8  and  C_9 
REMARK    5  A    between atoms: C_9  and  C_10 
REMARK    6  A    between atoms: C_17  and  O_18 
ROOT
HETATM    1  C   UNL     1       5.032  26.615  50.661  1.00  0.00     0.024 A 
HETATM    2  C   UNL     1       4.332  27.863  51.100  1.00  0.00     0.253 A 
HETATM    3  O   UNL     1       4.636  28.439  52.140  1.00  0.00    -0.268 OA
HETATM    4  N   UNL     1       3.331  28.339  50.295  1.00  0.00    -0.322 N 
HETATM    5  C   UNL     1       2.917  27.712  49.117  1.00  0.00     0.048 A 
HETATM    6  C   UNL     1       3.554  26.536  48.711  1.00  0.00    -0.009 A 
HETATM    7  C   UNL     1       1.875  28.252  48.365  1.00  0.00     0.067 A 
HETATM    8  C   UNL     1       1.450  27.615  47.196  1.00  0.00     0.070 A 
HETATM    9  C   UNL     1       2.083  26.439  46.786  1.00  0.00     0.038 A 
HETATM   10  C   UNL     1       3.134  25.901  47.541  1.00  0.00     0.016 A 
HETATM   11  C   UNL     1       4.643  26.001  49.527  1.00  0.00     0.027 A 
HETATM   12  H   UNL     1       2.873  29.184  50.611  1.00  0.00     0.169 HD
ENDROOT
BRANCH   1  13
HETATM   13  C   UNL     1       6.124  26.152  51.590  1.00  0.00     0.136 C 
BRANCH  13  14
HETATM   14  N   UNL     1       5.562  25.353  52.685  1.00  0.00    -0.289 NA
HETATM   15  H   UNL     1       4.750  24.828  52.369  1.00  0.00     0.128 HD
BRANCH  14  16
HETATM   16  C   UNL     1       6.419  24.524  53.425  1.00  0.00     0.008 A 
HETATM   17  C   UNL     1       7.392  23.702  52.852  1.00  0.00     0.026 A 
HETATM   18  C   UNL     1       8.274  22.962  53.650  1.00  0.00     0.038 A 
HETATM   19  C   UNL     1       8.225  23.048  55.040  1.00  0.00     0.068 A 
HETATM   20  C   UNL     1       7.288  23.892  55.626  1.00  0.00     0.038 A 
HETATM   21  C   UNL     1       6.409  24.632  54.823  1.00  0.00     0.026 A 
BRANCH  19  22
HETATM   22  O   UNL     1       9.145  22.279  55.696  1.00  0.00    -0.352 OA
BRANCH  22  23
HETATM   23  C   UNL     1       9.151  20.884  55.402  1.00  0.00     0.171 C 
HETATM   24  C   UNL     1       7.989  20.245  56.141  1.00  0.00     0.034 C 
ENDBRANCH  22  23
ENDBRANCH  19  22
ENDBRANCH  14  16
ENDBRANCH  13  14
ENDBRANCH   1  13
BRANCH   8  25
HETATM   25  O   UNL     1       0.417  28.238  46.551  1.00  0.00    -0.356 OA
HETATM   26  C   UNL     1      -0.301  27.471  45.592  1.00  0.00     0.210 C 
ENDBRANCH   8  25
TORSDOF 6
ENDMDL
MODEL 7
REMARK VINA RESULT:      -7.9      3.366     10.385
REMARK  6 active torsions:
REMARK  status: ('A' for Active; 'I' for Inactive)
REMARK    1  A    between atoms: C_2  and  O_3 
REMARK    2  A    between atoms: O_3  and  C_4 
REMARK    3  A    between atoms: C_7  and  N_8 
REMARK    4  A    between atoms: N_8  and  C_9 
REMARK    5  A    between atoms: C_9  and  C_10 
REMARK    6  A    between atoms: C_17  and  O_18 
ROOT
HETATM    1  C   UNL     1       8.176  31.508  60.604  1.00  0.00     0.024 A 
HETATM    2  C   UNL     1       7.091  32.296  59.937  1.00  0.00     0.253 A 
HETATM    3  O   UNL     1       6.853  32.177  58.739  1.00  0.00    -0.268 OA
HETATM    4  N   UNL     1       6.372  33.161  60.719  1.00  0.00    -0.322 N 
HETATM    5  C   UNL     1       6.615  33.363  62.080  1.00  0.00     0.048 A 
HETATM    6  C   UNL     1       7.638  32.645  62.704  1.00  0.00    -0.009 A 
HETATM    7  C   UNL     1       5.849  34.280  62.799  1.00  0.00     0.067 A 
HETATM    8  C   UNL     1       6.104  34.494  64.156  1.00  0.00     0.070 A 
HETATM    9  C   UNL     1       7.127  33.779  64.785  1.00  0.00     0.038 A 
HETATM   10  C   UNL     1       7.892  32.855  64.061  1.00  0.00     0.016 A 
HETATM   11  C   UNL     1       8.419  31.693  61.915  1.00  0.00     0.027 A 
HETATM   12  H   UNL     1       5.643  33.681  60.248  1.00  0.00     0.169 HD
ENDROOT
BRANCH   1  13
HETATM   13  C   UNL     1       8.921  30.573  59.687  1.00  0.00     0.136 C 
BRANCH  13  14
HETATM   14  N   UNL     1       8.059  29.458  59.279  1.00  0.00    -0.289 NA
HETATM   15  H   UNL     1       7.128  29.557  59.677  1.00  0.00     0.128 HD
BRANCH  14  16
HETATM   16  C   UNL     1       7.974  29.133  57.917  1.00  0.00     0.008 A 
HETATM   17  C   UNL     1       8.891  29.561  56.955  1.00  0.00     0.026 A 
HETATM   18  C   UNL     1       8.799  29.132  55.625  1.00  0.00     0.038 A 
HETATM   19  C   UNL     1       7.804  28.239  55.229  1.00  0.00     0.068 A 
HETATM   20  C   UNL     1       6.906  27.770  56.183  1.00  0.00     0.038 A 
HETATM   21  C   UNL     1       7.005  28.203  57.513  1.00  0.00     0.026 A 
BRANCH  19  22
HETATM   22  O   UNL     1       7.831  27.898  53.906  1.00  0.00    -0.352 OA
BRANCH  22  23
HETATM   23  C   UNL     1       7.646  26.521  53.587  1.00  0.00     0.171 C 
HETATM   24  C   UNL     1       6.462  26.416  52.642  1.00  0.00     0.034 C 
ENDBRANCH  22  23
ENDBRANCH  19  22
ENDBRANCH  14  16
ENDBRANCH  13  14
ENDBRANCH   1  13
BRANCH   8  25
HETATM   25  O   UNL     1       5.290  35.421  64.750  1.00  0.00    -0.356 OA
HETATM   26  C   UNL     1       4.002  35.608  64.178  1.00  0.00     0.210 C 
ENDBRANCH   8  25
TORSDOF 6
ENDMDL
MODEL 8
REMARK VINA RESULT:      -7.8      3.128     10.282
REMARK  6 active torsions:
REMARK  status: ('A' for Active; 'I' for Inactive)
REMARK    1  A    between atoms: C_2  and  O_3 
REMARK    2  A    between atoms: O_3  and  C_4 
REMARK    3  A    between atoms: C_7  and  N_8 
REMARK    4  A    between atoms: N_8  and  C_9 
REMARK    5  A    between atoms: C_9  and  C_10 
REMARK    6  A    between atoms: C_17  and  O_18 
ROOT
HETATM    1  C   UNL     1       8.219  31.441  60.474  1.00  0.00     0.024 A 
HETATM    2  C   UNL     1       8.817  30.845  61.711  1.00  0.00     0.253 A 
HETATM    3  O   UNL     1       9.577  29.883  61.659  1.00  0.00    -0.268 OA
HETATM    4  N   UNL     1       8.481  31.417  62.909  1.00  0.00    -0.322 N 
HETATM    5  C   UNL     1       7.599  32.493  63.037  1.00  0.00     0.048 A 
HETATM    6  C   UNL     1       7.022  33.042  61.888  1.00  0.00    -0.009 A 
HETATM    7  C   UNL     1       7.293  33.002  64.298  1.00  0.00     0.067 A 
HETATM    8  C   UNL     1       6.398  34.067  64.426  1.00  0.00     0.070 A 
HETATM    9  C   UNL     1       5.818  34.619  63.280  1.00  0.00     0.038 A 
HETATM   10  C   UNL     1       6.131  34.108  62.014  1.00  0.00     0.016 A 
HETATM   11  C   UNL     1       7.369  32.479  60.583  1.00  0.00     0.027 A 
HETATM   12  H   UNL     1       8.898  31.000  63.731  1.00  0.00     0.169 HD
ENDROOT
BRANCH   1  13
HETATM   13  C   UNL     1       8.637  30.767  59.193  1.00  0.00     0.136 C 
BRANCH  13  14
HETATM   14  N   UNL     1       8.070  29.416  59.115  1.00  0.00    -0.289 NA
HETATM   15  H   UNL     1       7.179  29.370  59.604  1.00  0.00     0.128 HD
BRANCH  14  16
HETATM   16  C   UNL     1       7.966  28.799  57.859  1.00  0.00     0.008 A 
HETATM   17  C   UNL     1       7.124  27.717  57.591  1.00  0.00     0.026 A 
HETATM   18  C   UNL     1       7.002  27.200  56.295  1.00  0.00     0.038 A 
HETATM   19  C   UNL     1       7.695  27.771  55.228  1.00  0.00     0.068 A 
HETATM   20  C   UNL     1       8.507  28.874  55.471  1.00  0.00     0.038 A 
HETATM   21  C   UNL     1       8.624  29.388  56.770  1.00  0.00     0.026 A 
BRANCH  19  22
HETATM   22  O   UNL     1       7.481  27.173  54.018  1.00  0.00    -0.352 OA
BRANCH  22  23
HETATM   23  C   UNL     1       7.508  25.748  53.985  1.00  0.00     0.171 C 
HETATM   24  C   UNL     1       7.828  25.319  52.564  1.00  0.00     0.034 C 
ENDBRANCH  22  23
ENDBRANCH  19  22
ENDBRANCH  14  16
ENDBRANCH  13  14
ENDBRANCH   1  13
BRANCH   8  25
HETATM   25  O   UNL     1       6.175  34.473  65.713  1.00  0.00    -0.356 OA
HETATM   26  C   UNL     1       4.959  34.054  66.321  1.00  0.00     0.210 C 
ENDBRANCH   8  25
TORSDOF 6
ENDMDL
MODEL 9
REMARK VINA RESULT:      -7.7      8.022     13.612
REMARK  6 active torsions:
REMARK  status: ('A' for Active; 'I' for Inactive)
REMARK    1  A    between atoms: C_2  and  O_3 
REMARK    2  A    between atoms: O_3  and  C_4 
REMARK    3  A    between atoms: C_7  and  N_8 
REMARK    4  A    between atoms: N_8  and  C_9 
REMARK    5  A    between atoms: C_9  and  C_10 
REMARK    6  A    between atoms: C_17  and  O_18 
ROOT
HETATM    1  C   UNL     1       4.319  35.764  64.015  1.00  0.00     0.024 A 
HETATM    2  C   UNL     1       4.611  36.505  65.283  1.00  0.00     0.253 A 
HETATM    3  O   UNL     1       4.197  36.110  66.369  1.00  0.00    -0.268 OA
HETATM    4  N   UNL     1       5.360  37.648  65.185  1.00  0.00    -0.322 N 
HETATM    5  C   UNL     1       5.833  38.165  63.976  1.00  0.00     0.048 A 
HETATM    6  C   UNL     1       5.547  37.489  62.787  1.00  0.00    -0.009 A 
HETATM    7  C   UNL     1       6.571  39.348  63.962  1.00  0.00     0.067 A 
HETATM    8  C   UNL     1       7.029  39.874  62.751  1.00  0.00     0.070 A 
HETATM    9  C   UNL     1       6.746  39.202  61.560  1.00  0.00     0.038 A 
HETATM   10  C   UNL     1       6.008  38.012  61.577  1.00  0.00     0.016 A 
HETATM   11  C   UNL     1       4.769  36.252  62.844  1.00  0.00     0.027 A 
HETATM   12  H   UNL     1       5.547  38.131  66.054  1.00  0.00     0.169 HD
ENDROOT
BRANCH   1  13
HETATM   13  C   UNL     1       3.496  34.515  64.198  1.00  0.00     0.136 C 
BRANCH  13  14
HETATM   14  N   UNL     1       4.292  33.467  64.847  1.00  0.00    -0.289 NA
HETATM   15  H   UNL     1       3.702  32.683  65.120  1.00  0.00     0.128 HD
BRANCH  14  16
HETATM   16  C   UNL     1       5.450  33.003  64.206  1.00  0.00     0.008 A 
HETATM   17  C   UNL     1       5.445  32.327  62.984  1.00  0.00     0.026 A 
HETATM   18  C   UNL     1       6.642  31.965  62.353  1.00  0.00     0.038 A 
HETATM   19  C   UNL     1       7.875  32.296  62.912  1.00  0.00     0.068 A 
HETATM   20  C   UNL     1       7.898  33.005  64.109  1.00  0.00     0.038 A 
HETATM   21  C   UNL     1       6.697  33.367  64.735  1.00  0.00     0.026 A 
BRANCH  19  22
HETATM   22  O   UNL     1       8.962  31.889  62.192  1.00  0.00    -0.352 OA
BRANCH  22  23
HETATM   23  C   UNL     1       8.719  31.023  61.086  1.00  0.00     0.171 C 
HETATM   24  C   UNL     1       9.402  31.618  59.867  1.00  0.00     0.034 C 
ENDBRANCH  22  23
ENDBRANCH  19  22
ENDBRANCH  14  16
ENDBRANCH  13  14
ENDBRANCH   1  13
BRANCH   8  25
HETATM   25  O   UNL     1       7.736  41.040  62.868  1.00  0.00    -0.356 OA
HETATM   26  C   UNL     1       7.641  41.731  64.107  1.00  0.00     0.210 C 
ENDBRANCH   8  25
TORSDOF 6
ENDMDL
MODEL 10
REMARK VINA RESULT:      -7.7      2.465      9.728
REMARK  6 active torsions:
REMARK  status: ('A' for Active; 'I' for Inactive)
REMARK    1  A    between atoms: C_2  and  O_3 
REMARK    2  A    between atoms: O_3  and  C_4 
REMARK    3  A    between atoms: C_7  and  N_8 
REMARK    4  A    between atoms: N_8  and  C_9 
REMARK    5  A    between atoms: C_9  and  C_10 
REMARK    6  A    between atoms: C_17  and  O_18 
ROOT
HETATM    1  C   UNL     1       7.969  30.153  58.845  1.00  0.00     0.024 A 
HETATM    2  C   UNL     1       6.734  30.921  58.489  1.00  0.00     0.253 A 
HETATM    3  O   UNL     1       6.162  30.759  57.416  1.00  0.00    -0.268 OA
HETATM    4  N   UNL     1       6.266  31.819  59.411  1.00  0.00    -0.322 N 
HETATM    5  C   UNL     1       6.890  32.072  60.636  1.00  0.00     0.048 A 
HETATM    6  C   UNL     1       8.054  31.372  60.966  1.00  0.00    -0.009 A 
HETATM    7  C   UNL     1       6.359  33.020  61.510  1.00  0.00     0.067 A 
HETATM    8  C   UNL     1       6.993  33.284  62.727  1.00  0.00     0.070 A 
HETATM    9  C   UNL     1       8.157  32.587  63.061  1.00  0.00     0.038 A 
HETATM   10  C   UNL     1       8.686  31.632  62.183  1.00  0.00     0.016 A 
HETATM   11  C   UNL     1       8.579  30.386  60.022  1.00  0.00     0.027 A 
HETATM   12  H   UNL     1       5.430  32.326  59.151  1.00  0.00     0.169 HD
ENDROOT
BRANCH   1  13
HETATM   13  C   UNL     1       8.424  29.180  57.788  1.00  0.00     0.136 C 
BRANCH  13  14
HETATM   14  N   UNL     1       8.088  27.805  58.176  1.00  0.00    -0.289 NA
HETATM   15  H   UNL     1       7.406  27.800  58.932  1.00  0.00     0.128 HD
BRANCH  14  16
HETATM   16  C   UNL     1       7.712  26.894  57.178  1.00  0.00     0.008 A 
HETATM   17  C   UNL     1       7.995  25.527  57.225  1.00  0.00     0.026 A 
HETATM   18  C   UNL     1       7.517  24.655  56.239  1.00  0.00     0.038 A 
HETATM   19  C   UNL     1       6.719  25.123  55.196  1.00  0.00     0.068 A 
HETATM   20  C   UNL     1       6.394  26.475  55.155  1.00  0.00     0.038 A 
HETATM   21  C   UNL     1       6.874  27.343  56.147  1.00  0.00     0.026 A 
BRANCH  19  22
HETATM   22  O   UNL     1       6.317  24.166  54.306  1.00  0.00    -0.352 OA
BRANCH  22  23
HETATM   23  C   UNL     1       6.824  24.262  52.977  1.00  0.00     0.171 C 
HETATM   24  C   UNL     1       7.917  23.221  52.818  1.00  0.00     0.034 C 
ENDBRANCH  22  23
ENDBRANCH  19  22
ENDBRANCH  14  16
ENDBRANCH  13  14
ENDBRANCH   1  13
BRANCH   8  25
HETATM   25  O   UNL     1       6.380  34.237  63.494  1.00  0.00    -0.356 OA
HETATM   26  C   UNL     1       4.992  34.450  63.271  1.00  0.00     0.210 C 
ENDBRANCH   8  25
TORSDOF 6
ENDMDL
