MODEL 1
REMARK VINA RESULT:      -9.7      0.000      0.000
REMARK  6 active torsions:
REMARK  status: ('A' for Active; 'I' for Inactive)
REMARK    1  A    between atoms: C_5  and  N_6 
REMARK       I    between atoms: N_6  and  C_7 
REMARK    2  A    between atoms: C_7  and  C_8 
REMARK    3  A    between atoms: C_8  and  N_9 
REMARK    4  A    between atoms: C_12  and  C_13 
REMARK       I    between atoms: C_13  and  N_14 
REMARK    5  A    between atoms: N_14  and  N_15 
REMARK       I    between atoms: N_15  and  C_16 
REMARK       I    between atoms: C_16  and  N_17 
REMARK    6  A    between atoms: N_17  and  C_18 
ROOT
HETATM    1  N   UNL     1       5.677  27.485  52.909  1.00  0.00    -0.358 N 
HETATM    2  C   UNL     1       6.723  27.781  53.715  1.00  0.00     0.092 A 
HETATM    3  C   UNL     1       6.540  28.553  54.854  1.00  0.00     0.034 A 
HETATM    4  C   UNL     1       5.266  29.025  55.169  1.00  0.00     0.036 A 
HETATM    5  C   UNL     1       4.204  28.733  54.316  1.00  0.00     0.034 A 
HETATM    6  C   UNL     1       4.437  27.957  53.186  1.00  0.00     0.092 A 
ENDROOT
BRANCH   4   7
HETATM    7  C   UNL     1       5.081  29.717  56.472  1.00  0.00     0.270 C 
HETATM    8  N   UNL     1       6.176  29.796  57.303  1.00  0.00    -0.262 N 
HETATM    9  H   UNL     1       6.944  29.125  57.278  1.00  0.00     0.190 HD
HETATM   10  O   UNL     1       3.987  30.201  56.748  1.00  0.00    -0.266 OA
BRANCH   8  11
HETATM   11  N   UNL     1       5.991  30.409  58.558  1.00  0.00    -0.249 N 
HETATM   12  C   UNL     1       6.983  31.279  58.963  1.00  0.00     0.335 C 
HETATM   13  N   UNL     1       6.744  31.766  60.221  1.00  0.00    -0.337 N 
HETATM   14  O   UNL     1       7.934  31.575  58.248  1.00  0.00    -0.246 OA
HETATM   15  H   UNL     1       5.772  31.758  60.499  1.00  0.00     0.164 HD
HETATM   16  H   UNL     1       5.603  29.796  59.274  1.00  0.00     0.192 HD
BRANCH  13  17
HETATM   17  C   UNL     1       7.598  32.780  60.831  1.00  0.00     0.086 C 
HETATM   18  C   UNL     1       6.824  33.660  61.824  1.00  0.00     0.025 C 
HETATM   19  C   UNL     1       6.442  32.908  63.098  1.00  0.00     0.002 C 
HETATM   20  C   UNL     1       7.661  32.277  63.762  1.00  0.00     0.000 C 
HETATM   21  C   UNL     1       8.434  31.383  62.798  1.00  0.00     0.002 C 
HETATM   22  C   UNL     1       8.806  32.121  61.510  1.00  0.00     0.025 C 
ENDBRANCH  13  17
ENDBRANCH   8  11
ENDBRANCH   4   7
BRANCH   1  23
HETATM   23  C   UNL     1       5.864  26.527  51.786  1.00  0.00     0.230 C 
BRANCH  23  24
HETATM   24  C   UNL     1       5.886  25.129  52.388  1.00  0.00     0.240 C 
HETATM   25  N   UNL     1       7.151  24.646  52.668  1.00  0.00    -0.326 N 
HETATM   26  H   UNL     1       7.961  25.113  52.274  1.00  0.00     0.169 HD
HETATM   27  O   UNL     1       4.821  24.560  52.615  1.00  0.00    -0.271 OA
BRANCH  25  28
HETATM   28  C   UNL     1       7.460  23.487  53.420  1.00  0.00     0.034 A 
HETATM   29  C   UNL     1       7.783  22.252  52.855  1.00  0.00     0.030 A 
HETATM   30  C   UNL     1       8.035  21.141  53.669  1.00  0.00     0.009 A 
HETATM   31  C   UNL     1       7.977  21.249  55.061  1.00  0.00    -0.062 A 
HETATM   32  C   UNL     1       8.207  20.044  55.925  1.00  0.00     0.048 C 
HETATM   33  C   UNL     1       7.642  22.480  55.628  1.00  0.00     0.009 A 
HETATM   34  C   UNL     1       7.387  23.590  54.814  1.00  0.00     0.030 A 
ENDBRANCH  25  28
ENDBRANCH  23  24
ENDBRANCH   1  23
TORSDOF 6
ENDMDL
MODEL 2
REMARK VINA RESULT:      -9.5      2.365     10.877
REMARK  6 active torsions:
REMARK  status: ('A' for Active; 'I' for Inactive)
REMARK    1  A    between atoms: C_5  and  N_6 
REMARK       I    between atoms: N_6  and  C_7 
REMARK    2  A    between atoms: C_7  and  C_8 
REMARK    3  A    between atoms: C_8  and  N_9 
REMARK    4  A    between atoms: C_12  and  C_13 
REMARK       I    between atoms: C_13  and  N_14 
REMARK    5  A    between atoms: N_14  and  N_15 
REMARK       I    between atoms: N_15  and  C_16 
REMARK       I    between atoms: C_16  and  N_17 
REMARK    6  A    between atoms: N_17  and  C_18 
ROOT
HETATM    1  N   UNL     1       5.339  31.441  58.190  1.00  0.00    -0.358 N 
HETATM    2  C   UNL     1       6.497  30.741  58.154  1.00  0.00     0.092 A 
HETATM    3  C   UNL     1       6.548  29.493  57.549  1.00  0.00     0.034 A 
HETATM    4  C   UNL     1       5.396  28.960  56.970  1.00  0.00     0.036 A 
HETATM    5  C   UNL     1       4.206  29.682  57.037  1.00  0.00     0.034 A 
HETATM    6  C   UNL     1       4.205  30.928  57.656  1.00  0.00     0.092 A 
ENDROOT
BRANCH   4   7
HETATM    7  C   UNL     1       5.522  27.695  56.200  1.00  0.00     0.270 C 
HETATM    8  N   UNL     1       5.833  26.556  56.909  1.00  0.00    -0.262 N 
HETATM    9  H   UNL     1       6.336  26.572  57.796  1.00  0.00     0.190 HD
HETATM   10  O   UNL     1       5.332  27.704  54.988  1.00  0.00    -0.266 OA
BRANCH   8  11
HETATM   11  N   UNL     1       6.001  25.365  56.176  1.00  0.00    -0.249 N 
HETATM   12  C   UNL     1       7.298  24.910  56.042  1.00  0.00     0.335 C 
HETATM   13  N   UNL     1       7.360  23.789  55.257  1.00  0.00    -0.337 N 
HETATM   14  O   UNL     1       8.248  25.455  56.591  1.00  0.00    -0.246 OA
HETATM   15  H   UNL     1       6.506  23.250  55.221  1.00  0.00     0.164 HD
HETATM   16  H   UNL     1       5.404  25.287  55.354  1.00  0.00     0.192 HD
BRANCH  13  17
HETATM   17  C   UNL     1       8.609  23.064  55.046  1.00  0.00     0.086 C 
HETATM   18  C   UNL     1       8.701  21.811  55.932  1.00  0.00     0.025 C 
HETATM   19  C   UNL     1       7.738  20.711  55.490  1.00  0.00     0.002 C 
HETATM   20  C   UNL     1       7.929  20.355  54.020  1.00  0.00     0.000 C 
HETATM   21  C   UNL     1       7.822  21.583  53.120  1.00  0.00     0.002 C 
HETATM   22  C   UNL     1       8.770  22.699  53.564  1.00  0.00     0.025 C 
ENDBRANCH  13  17
ENDBRANCH   8  11
ENDBRANCH   4   7
BRANCH   1  23
HETATM   23  C   UNL     1       5.344  32.839  58.699  1.00  0.00     0.230 C 
BRANCH  23  24
HETATM   24  C   UNL     1       5.305  32.762  60.220  1.00  0.00     0.240 C 
HETATM   25  N   UNL     1       6.481  33.145  60.841  1.00  0.00    -0.326 N 
HETATM   26  H   UNL     1       7.329  33.230  60.292  1.00  0.00     0.169 HD
HETATM   27  O   UNL     1       4.264  32.419  60.775  1.00  0.00    -0.271 OA
BRANCH  25  28
HETATM   28  C   UNL     1       6.660  33.379  62.226  1.00  0.00     0.034 A 
HETATM   29  C   UNL     1       7.522  32.641  63.038  1.00  0.00     0.030 A 
HETATM   30  C   UNL     1       7.612  32.908  64.410  1.00  0.00     0.009 A 
HETATM   31  C   UNL     1       6.847  33.924  64.989  1.00  0.00    -0.062 A 
HETATM   32  C   UNL     1       6.916  34.177  66.467  1.00  0.00     0.048 C 
HETATM   33  C   UNL     1       5.974  34.656  64.180  1.00  0.00     0.009 A 
HETATM   34  C   UNL     1       5.883  34.387  62.811  1.00  0.00     0.030 A 
ENDBRANCH  25  28
ENDBRANCH  23  24
ENDBRANCH   1  23
TORSDOF 6
ENDMDL
MODEL 3
REMARK VINA RESULT:      -9.5      4.255      8.938
REMARK  6 active torsions:
REMARK  status: ('A' for Active; 'I' for Inactive)
REMARK    1  A    between atoms: C_5  and  N_6 
REMARK       I    between atoms: N_6  and  C_7 
REMARK    2  A    between atoms: C_7  and  C_8 
REMARK    3  A    between atoms: C_8  and  N_9 
REMARK    4  A    between atoms: C_12  and  C_13 
REMARK       I    between atoms: C_13  and  N_14 
REMARK    5  A    between atoms: N_14  and  N_15 
REMARK       I    between atoms: N_15  and  C_16 
REMARK       I    between atoms: C_16  and  N_17 
REMARK    6  A    between atoms: N_17  and  C_18 
ROOT
HETATM    1  N   UNL     1       6.652  27.174  56.681  1.00  0.00    -0.358 N 
HETATM    2  C   UNL     1       5.339  27.457  56.850  1.00  0.00     0.092 A 
HETATM    3  C   UNL     1       4.602  28.026  55.821  1.00  0.00     0.034 A 
HETATM    4  C   UNL     1       5.220  28.305  54.602  1.00  0.00     0.036 A 
HETATM    5  C   UNL     1       6.578  28.031  54.452  1.00  0.00     0.034 A 
HETATM    6  C   UNL     1       7.275  27.462  55.512  1.00  0.00     0.092 A 
ENDROOT
BRANCH   4   7
HETATM    7  C   UNL     1       4.367  28.770  53.477  1.00  0.00     0.270 C 
HETATM    8  N   UNL     1       4.008  27.835  52.532  1.00  0.00    -0.262 N 
HETATM    9  H   UNL     1       4.561  27.001  52.336  1.00  0.00     0.190 HD
HETATM   10  O   UNL     1       4.004  29.942  53.439  1.00  0.00    -0.266 OA
BRANCH   8  11
HETATM   11  N   UNL     1       3.241  28.284  51.439  1.00  0.00    -0.249 N 
HETATM   12  C   UNL     1       3.728  27.975  50.185  1.00  0.00     0.335 C 
HETATM   13  N   UNL     1       2.949  28.514  49.195  1.00  0.00    -0.337 N 
HETATM   14  O   UNL     1       4.723  27.281  50.016  1.00  0.00    -0.246 OA
HETATM   15  H   UNL     1       1.991  28.696  49.463  1.00  0.00     0.164 HD
HETATM   16  H   UNL     1       2.844  29.216  51.557  1.00  0.00     0.192 HD
BRANCH  13  17
HETATM   17  C   UNL     1       3.201  28.244  47.783  1.00  0.00     0.086 C 
HETATM   18  C   UNL     1       2.508  26.957  47.312  1.00  0.00     0.025 C 
HETATM   19  C   UNL     1       0.989  27.105  47.233  1.00  0.00     0.002 C 
HETATM   20  C   UNL     1       0.586  28.292  46.364  1.00  0.00     0.000 C 
HETATM   21  C   UNL     1       1.250  29.586  46.827  1.00  0.00     0.002 C 
HETATM   22  C   UNL     1       2.770  29.443  46.926  1.00  0.00     0.025 C 
ENDBRANCH  13  17
ENDBRANCH   8  11
ENDBRANCH   4   7
BRANCH   1  23
HETATM   23  C   UNL     1       7.382  26.421  57.736  1.00  0.00     0.230 C 
BRANCH  23  24
HETATM   24  C   UNL     1       7.959  25.175  57.079  1.00  0.00     0.240 C 
HETATM   25  N   UNL     1       7.042  24.429  56.361  1.00  0.00    -0.326 N 
HETATM   26  H   UNL     1       6.051  24.604  56.487  1.00  0.00     0.169 HD
HETATM   27  O   UNL     1       9.161  24.943  57.191  1.00  0.00    -0.271 OA
BRANCH  25  28
HETATM   28  C   UNL     1       7.335  23.359  55.482  1.00  0.00     0.034 A 
HETATM   29  C   UNL     1       7.621  22.059  55.901  1.00  0.00     0.030 A 
HETATM   30  C   UNL     1       7.942  21.065  54.969  1.00  0.00     0.009 A 
HETATM   31  C   UNL     1       7.973  21.353  53.602  1.00  0.00    -0.062 A 
HETATM   32  C   UNL     1       8.360  20.293  52.612  1.00  0.00     0.048 C 
HETATM   33  C   UNL     1       7.699  22.656  53.181  1.00  0.00     0.009 A 
HETATM   34  C   UNL     1       7.381  23.650  54.113  1.00  0.00     0.030 A 
ENDBRANCH  25  28
ENDBRANCH  23  24
ENDBRANCH   1  23
TORSDOF 6
ENDMDL
MODEL 4
REMARK VINA RESULT:      -9.5      1.892      2.844
REMARK  6 active torsions:
REMARK  status: ('A' for Active; 'I' for Inactive)
REMARK    1  A    between atoms: C_5  and  N_6 
REMARK       I    between atoms: N_6  and  C_7 
REMARK    2  A    between atoms: C_7  and  C_8 
REMARK    3  A    between atoms: C_8  and  N_9 
REMARK    4  A    between atoms: C_12  and  C_13 
REMARK       I    between atoms: C_13  and  N_14 
REMARK    5  A    between atoms: N_14  and  N_15 
REMARK       I    between atoms: N_15  and  C_16 
REMARK       I    between atoms: C_16  and  N_17 
REMARK    6  A    between atoms: N_17  and  C_18 
ROOT
HETATM    1  N   UNL     1       6.758  28.057  54.783  1.00  0.00    -0.358 N 
HETATM    2  C   UNL     1       5.793  28.046  55.732  1.00  0.00     0.092 A 
HETATM    3  C   UNL     1       6.015  28.630  56.971  1.00  0.00     0.034 A 
HETATM    4  C   UNL     1       7.243  29.236  57.237  1.00  0.00     0.036 A 
HETATM    5  C   UNL     1       8.235  29.218  56.259  1.00  0.00     0.034 A 
HETATM    6  C   UNL     1       7.966  28.618  55.033  1.00  0.00     0.092 A 
ENDROOT
BRANCH   4   7
HETATM    7  C   UNL     1       7.391  29.982  58.514  1.00  0.00     0.270 C 
HETATM    8  N   UNL     1       6.428  30.922  58.809  1.00  0.00    -0.262 N 
HETATM    9  H   UNL     1       5.876  31.397  58.094  1.00  0.00     0.190 HD
HETATM   10  O   UNL     1       8.336  29.729  59.256  1.00  0.00    -0.266 OA
BRANCH   8  11
HETATM   11  N   UNL     1       6.591  31.664  59.995  1.00  0.00    -0.249 N 
HETATM   12  C   UNL     1       5.458  32.276  60.492  1.00  0.00     0.335 C 
HETATM   13  N   UNL     1       5.737  33.027  61.603  1.00  0.00    -0.337 N 
HETATM   14  O   UNL     1       4.351  32.123  59.989  1.00  0.00    -0.246 OA
HETATM   15  H   UNL     1       6.562  32.739  62.112  1.00  0.00     0.164 HD
HETATM   16  H   UNL     1       7.456  32.203  60.039  1.00  0.00     0.192 HD
BRANCH  13  17
HETATM   17  C   UNL     1       4.686  33.690  62.369  1.00  0.00     0.086 C 
HETATM   18  C   UNL     1       5.000  33.715  63.872  1.00  0.00     0.025 C 
HETATM   19  C   UNL     1       6.147  34.665  64.215  1.00  0.00     0.002 C 
HETATM   20  C   UNL     1       5.885  36.072  63.689  1.00  0.00     0.000 C 
HETATM   21  C   UNL     1       5.589  36.072  62.192  1.00  0.00     0.002 C 
HETATM   22  C   UNL     1       4.454  35.111  61.835  1.00  0.00     0.025 C 
ENDBRANCH  13  17
ENDBRANCH   8  11
ENDBRANCH   4   7
BRANCH   1  23
HETATM   23  C   UNL     1       6.445  27.569  53.413  1.00  0.00     0.230 C 
BRANCH  23  24
HETATM   24  C   UNL     1       6.413  26.048  53.475  1.00  0.00     0.240 C 
HETATM   25  N   UNL     1       7.659  25.452  53.559  1.00  0.00    -0.326 N 
HETATM   26  H   UNL     1       8.487  26.001  53.356  1.00  0.00     0.169 HD
HETATM   27  O   UNL     1       5.327  25.473  53.486  1.00  0.00    -0.271 OA
BRANCH  25  28
HETATM   28  C   UNL     1       7.920  24.091  53.846  1.00  0.00     0.034 A 
HETATM   29  C   UNL     1       7.947  23.081  52.882  1.00  0.00     0.030 A 
HETATM   30  C   UNL     1       8.171  21.750  53.253  1.00  0.00     0.009 A 
HETATM   31  C   UNL     1       8.383  21.408  54.591  1.00  0.00    -0.062 A 
HETATM   32  C   UNL     1       8.582  19.974  54.986  1.00  0.00     0.048 C 
HETATM   33  C   UNL     1       8.345  22.416  55.558  1.00  0.00     0.009 A 
HETATM   34  C   UNL     1       8.118  23.745  55.188  1.00  0.00     0.030 A 
ENDBRANCH  25  28
ENDBRANCH  23  24
ENDBRANCH   1  23
TORSDOF 6
ENDMDL
MODEL 5
REMARK VINA RESULT:      -9.2      3.611     11.123
REMARK  6 active torsions:
REMARK  status: ('A' for Active; 'I' for Inactive)
REMARK    1  A    between atoms: C_5  and  N_6 
REMARK       I    between atoms: N_6  and  C_7 
REMARK    2  A    between atoms: C_7  and  C_8 
REMARK    3  A    between atoms: C_8  and  N_9 
REMARK    4  A    between atoms: C_12  and  C_13 
REMARK       I    between atoms: C_13  and  N_14 
REMARK    5  A    between atoms: N_14  and  N_15 
REMARK       I    between atoms: N_15  and  C_16 
REMARK       I    between atoms: C_16  and  N_17 
REMARK    6  A    between atoms: N_17  and  C_18 
ROOT
HETATM    1  N   UNL     1       8.463  29.789  57.873  1.00  0.00    -0.358 N 
HETATM    2  C   UNL     1       7.154  29.491  58.042  1.00  0.00     0.092 A 
HETATM    3  C   UNL     1       6.416  28.938  57.005  1.00  0.00     0.034 A 
HETATM    4  C   UNL     1       7.032  28.685  55.779  1.00  0.00     0.036 A 
HETATM    5  C   UNL     1       8.374  29.021  55.612  1.00  0.00     0.034 A 
HETATM    6  C   UNL     1       9.071  29.574  56.681  1.00  0.00     0.092 A 
ENDROOT
BRANCH   4   7
HETATM    7  C   UNL     1       6.254  27.954  54.745  1.00  0.00     0.270 C 
HETATM    8  N   UNL     1       6.144  28.546  53.506  1.00  0.00    -0.262 N 
HETATM    9  H   UNL     1       6.211  29.554  53.362  1.00  0.00     0.190 HD
HETATM   10  O   UNL     1       5.763  26.863  55.017  1.00  0.00    -0.266 OA
BRANCH   8  11
HETATM   11  N   UNL     1       5.368  27.880  52.538  1.00  0.00    -0.249 N 
HETATM   12  C   UNL     1       5.368  28.430  51.272  1.00  0.00     0.335 C 
HETATM   13  N   UNL     1       4.531  27.750  50.427  1.00  0.00    -0.337 N 
HETATM   14  O   UNL     1       6.063  29.393  50.971  1.00  0.00    -0.246 OA
HETATM   15  H   UNL     1       4.357  26.788  50.687  1.00  0.00     0.164 HD
HETATM   16  H   UNL     1       4.474  27.530  52.882  1.00  0.00     0.192 HD
BRANCH  13  17
HETATM   17  C   UNL     1       4.434  28.079  49.008  1.00  0.00     0.086 C 
HETATM   18  C   UNL     1       4.612  26.839  48.118  1.00  0.00     0.025 C 
HETATM   19  C   UNL     1       3.420  25.886  48.199  1.00  0.00     0.002 C 
HETATM   20  C   UNL     1       2.110  26.600  47.885  1.00  0.00     0.000 C 
HETATM   21  C   UNL     1       1.904  27.825  48.772  1.00  0.00     0.002 C 
HETATM   22  C   UNL     1       3.100  28.778  48.713  1.00  0.00     0.025 C 
ENDBRANCH  13  17
ENDBRANCH   8  11
ENDBRANCH   4   7
BRANCH   1  23
HETATM   23  C   UNL     1       9.271  30.230  59.041  1.00  0.00     0.230 C 
BRANCH  23  24
HETATM   24  C   UNL     1       8.420  31.217  59.829  1.00  0.00     0.240 C 
HETATM   25  N   UNL     1       8.110  30.806  61.113  1.00  0.00    -0.326 N 
HETATM   26  H   UNL     1       8.255  29.837  61.374  1.00  0.00     0.169 HD
HETATM   27  O   UNL     1       8.111  32.287  59.310  1.00  0.00    -0.271 OA
BRANCH  25  28
HETATM   28  C   UNL     1       7.528  31.600  62.130  1.00  0.00     0.034 A 
HETATM   29  C   UNL     1       8.262  32.347  63.054  1.00  0.00     0.030 A 
HETATM   30  C   UNL     1       7.611  33.075  64.057  1.00  0.00     0.009 A 
HETATM   31  C   UNL     1       6.217  33.077  64.147  1.00  0.00    -0.062 A 
HETATM   32  C   UNL     1       5.528  33.825  65.250  1.00  0.00     0.048 C 
HETATM   33  C   UNL     1       5.481  32.321  63.231  1.00  0.00     0.009 A 
HETATM   34  C   UNL     1       6.131  31.591  62.230  1.00  0.00     0.030 A 
ENDBRANCH  25  28
ENDBRANCH  23  24
ENDBRANCH   1  23
TORSDOF 6
ENDMDL
MODEL 6
REMARK VINA RESULT:      -9.2      2.707     11.513
REMARK  6 active torsions:
REMARK  status: ('A' for Active; 'I' for Inactive)
REMARK    1  A    between atoms: C_5  and  N_6 
REMARK       I    between atoms: N_6  and  C_7 
REMARK    2  A    between atoms: C_7  and  C_8 
REMARK    3  A    between atoms: C_8  and  N_9 
REMARK    4  A    between atoms: C_12  and  C_13 
REMARK       I    between atoms: C_13  and  N_14 
REMARK    5  A    between atoms: N_14  and  N_15 
REMARK       I    between atoms: N_15  and  C_16 
REMARK       I    between atoms: C_16  and  N_17 
REMARK    6  A    between atoms: N_17  and  C_18 
ROOT
HETATM    1  N   UNL     1       4.347  32.677  59.803  1.00  0.00    -0.358 N 
HETATM    2  C   UNL     1       3.669  31.878  58.946  1.00  0.00     0.092 A 
HETATM    3  C   UNL     1       4.349  31.036  58.078  1.00  0.00     0.034 A 
HETATM    4  C   UNL     1       5.744  31.013  58.092  1.00  0.00     0.036 A 
HETATM    5  C   UNL     1       6.429  31.859  58.962  1.00  0.00     0.034 A 
HETATM    6  C   UNL     1       5.702  32.686  59.812  1.00  0.00     0.092 A 
ENDROOT
BRANCH   4   7
HETATM    7  C   UNL     1       6.434  29.993  57.259  1.00  0.00     0.270 C 
HETATM    8  N   UNL     1       6.164  29.997  55.908  1.00  0.00    -0.262 N 
HETATM    9  H   UNL     1       5.294  30.357  55.515  1.00  0.00     0.190 HD
HETATM   10  O   UNL     1       7.218  29.210  57.788  1.00  0.00    -0.266 OA
BRANCH   8  11
HETATM   11  N   UNL     1       6.779  29.002  55.124  1.00  0.00    -0.249 N 
HETATM   12  C   UNL     1       5.940  28.045  54.587  1.00  0.00     0.335 C 
HETATM   13  N   UNL     1       6.641  27.088  53.902  1.00  0.00    -0.337 N 
HETATM   14  O   UNL     1       4.722  28.093  54.708  1.00  0.00    -0.246 OA
HETATM   15  H   UNL     1       7.542  27.389  53.557  1.00  0.00     0.164 HD
HETATM   16  H   UNL     1       7.673  28.672  55.485  1.00  0.00     0.192 HD
BRANCH  13  17
HETATM   17  C   UNL     1       5.970  26.024  53.161  1.00  0.00     0.086 C 
HETATM   18  C   UNL     1       6.727  25.657  51.875  1.00  0.00     0.025 C 
HETATM   19  C   UNL     1       8.039  24.927  52.156  1.00  0.00     0.002 C 
HETATM   20  C   UNL     1       7.820  23.697  53.031  1.00  0.00     0.000 C 
HETATM   21  C   UNL     1       7.086  24.043  54.323  1.00  0.00     0.002 C 
HETATM   22  C   UNL     1       5.779  24.791  54.054  1.00  0.00     0.025 C 
ENDBRANCH  13  17
ENDBRANCH   8  11
ENDBRANCH   4   7
BRANCH   1  23
HETATM   23  C   UNL     1       3.601  33.449  60.832  1.00  0.00     0.230 C 
BRANCH  23  24
HETATM   24  C   UNL     1       4.203  33.094  62.184  1.00  0.00     0.240 C 
HETATM   25  N   UNL     1       4.757  34.166  62.863  1.00  0.00    -0.326 N 
HETATM   26  H   UNL     1       4.933  35.032  62.365  1.00  0.00     0.169 HD
HETATM   27  O   UNL     1       4.127  31.936  62.588  1.00  0.00    -0.271 OA
BRANCH  25  28
HETATM   28  C   UNL     1       5.185  34.174  64.212  1.00  0.00     0.034 A 
HETATM   29  C   UNL     1       4.373  34.540  65.287  1.00  0.00     0.030 A 
HETATM   30  C   UNL     1       4.885  34.561  66.590  1.00  0.00     0.009 A 
HETATM   31  C   UNL     1       6.213  34.208  66.841  1.00  0.00    -0.062 A 
HETATM   32  C   UNL     1       6.766  34.274  68.234  1.00  0.00     0.048 C 
HETATM   33  C   UNL     1       7.030  33.853  65.765  1.00  0.00     0.009 A 
HETATM   34  C   UNL     1       6.520  33.834  64.463  1.00  0.00     0.030 A 
ENDBRANCH  25  28
ENDBRANCH  23  24
ENDBRANCH   1  23
TORSDOF 6
ENDMDL
MODEL 7
REMARK VINA RESULT:      -8.9      3.319      6.027
REMARK  6 active torsions:
REMARK  status: ('A' for Active; 'I' for Inactive)
REMARK    1  A    between atoms: C_5  and  N_6 
REMARK       I    between atoms: N_6  and  C_7 
REMARK    2  A    between atoms: C_7  and  C_8 
REMARK    3  A    between atoms: C_8  and  N_9 
REMARK    4  A    between atoms: C_12  and  C_13 
REMARK       I    between atoms: C_13  and  N_14 
REMARK    5  A    between atoms: N_14  and  N_15 
REMARK       I    between atoms: N_15  and  C_16 
REMARK       I    between atoms: C_16  and  N_17 
REMARK    6  A    between atoms: N_17  and  C_18 
ROOT
HETATM    1  N   UNL     1       5.608  26.568  52.338  1.00  0.00    -0.358 N 
HETATM    2  C   UNL     1       4.481  27.059  52.904  1.00  0.00     0.092 A 
HETATM    3  C   UNL     1       4.528  27.686  54.141  1.00  0.00     0.034 A 
HETATM    4  C   UNL     1       5.749  27.813  54.804  1.00  0.00     0.036 A 
HETATM    5  C   UNL     1       6.896  27.280  54.220  1.00  0.00     0.034 A 
HETATM    6  C   UNL     1       6.798  26.659  52.979  1.00  0.00     0.092 A 
ENDROOT
BRANCH   4   7
HETATM    7  C   UNL     1       5.787  28.622  56.051  1.00  0.00     0.270 C 
HETATM    8  N   UNL     1       6.819  28.376  56.928  1.00  0.00    -0.262 N 
HETATM    9  H   UNL     1       7.303  27.480  56.982  1.00  0.00     0.190 HD
HETATM   10  O   UNL     1       4.926  29.475  56.243  1.00  0.00    -0.266 OA
BRANCH   8  11
HETATM   11  N   UNL     1       6.830  29.106  58.133  1.00  0.00    -0.249 N 
HETATM   12  C   UNL     1       8.055  29.603  58.532  1.00  0.00     0.335 C 
HETATM   13  N   UNL     1       7.971  30.235  59.745  1.00  0.00    -0.337 N 
HETATM   14  O   UNL     1       9.066  29.494  57.849  1.00  0.00    -0.246 OA
HETATM   15  H   UNL     1       7.051  30.588  59.975  1.00  0.00     0.164 HD
HETATM   16  H   UNL     1       6.234  28.722  58.865  1.00  0.00     0.192 HD
BRANCH  13  17
HETATM   17  C   UNL     1       9.112  30.930  60.333  1.00  0.00     0.086 C 
HETATM   18  C   UNL     1       8.902  32.452  60.365  1.00  0.00     0.025 C 
HETATM   19  C   UNL     1       7.845  32.876  61.384  1.00  0.00     0.002 C 
HETATM   20  C   UNL     1       8.161  32.339  62.776  1.00  0.00     0.000 C 
HETATM   21  C   UNL     1       8.354  30.825  62.770  1.00  0.00     0.002 C 
HETATM   22  C   UNL     1       9.398  30.387  61.741  1.00  0.00     0.025 C 
ENDBRANCH  13  17
ENDBRANCH   8  11
ENDBRANCH   4   7
BRANCH   1  23
HETATM   23  C   UNL     1       5.561  26.045  50.947  1.00  0.00     0.230 C 
BRANCH  23  24
HETATM   24  C   UNL     1       4.981  27.149  50.072  1.00  0.00     0.240 C 
HETATM   25  N   UNL     1       3.701  26.899  49.610  1.00  0.00    -0.326 N 
HETATM   26  H   UNL     1       3.322  25.961  49.676  1.00  0.00     0.169 HD
HETATM   27  O   UNL     1       5.644  28.164  49.874  1.00  0.00    -0.271 OA
BRANCH  25  28
HETATM   28  C   UNL     1       2.845  27.827  48.969  1.00  0.00     0.034 A 
HETATM   29  C   UNL     1       2.110  28.805  49.642  1.00  0.00     0.030 A 
HETATM   30  C   UNL     1       1.252  29.659  48.938  1.00  0.00     0.009 A 
HETATM   31  C   UNL     1       1.123  29.557  47.551  1.00  0.00    -0.062 A 
HETATM   32  C   UNL     1       0.171  30.448  46.809  1.00  0.00     0.048 C 
HETATM   33  C   UNL     1       1.850  28.572  46.878  1.00  0.00     0.009 A 
HETATM   34  C   UNL     1       2.704  27.716  47.580  1.00  0.00     0.030 A 
ENDBRANCH  25  28
ENDBRANCH  23  24
ENDBRANCH   1  23
TORSDOF 6
ENDMDL
MODEL 8
REMARK VINA RESULT:      -8.7      4.465      7.687
REMARK  6 active torsions:
REMARK  status: ('A' for Active; 'I' for Inactive)
REMARK    1  A    between atoms: C_5  and  N_6 
REMARK       I    between atoms: N_6  and  C_7 
REMARK    2  A    between atoms: C_7  and  C_8 
REMARK    3  A    between atoms: C_8  and  N_9 
REMARK    4  A    between atoms: C_12  and  C_13 
REMARK       I    between atoms: C_13  and  N_14 
REMARK    5  A    between atoms: N_14  and  N_15 
REMARK       I    between atoms: N_15  and  C_16 
REMARK       I    between atoms: C_16  and  N_17 
REMARK    6  A    between atoms: N_17  and  C_18 
ROOT
HETATM    1  N   UNL     1       4.742  32.162  59.723  1.00  0.00    -0.358 N 
HETATM    2  C   UNL     1       6.096  32.188  59.732  1.00  0.00     0.092 A 
HETATM    3  C   UNL     1       6.789  32.490  60.896  1.00  0.00     0.034 A 
HETATM    4  C   UNL     1       6.082  32.765  62.067  1.00  0.00     0.036 A 
HETATM    5  C   UNL     1       4.689  32.758  62.036  1.00  0.00     0.034 A 
HETATM    6  C   UNL     1       4.040  32.451  60.845  1.00  0.00     0.092 A 
ENDROOT
BRANCH   4   7
HETATM    7  C   UNL     1       6.855  32.933  63.325  1.00  0.00     0.270 C 
HETATM    8  N   UNL     1       6.147  33.278  64.456  1.00  0.00    -0.262 N 
HETATM    9  H   UNL     1       5.259  33.779  64.426  1.00  0.00     0.190 HD
HETATM   10  O   UNL     1       8.068  32.745  63.320  1.00  0.00    -0.266 OA
BRANCH   8  11
HETATM   11  N   UNL     1       6.883  33.486  65.639  1.00  0.00    -0.249 N 
HETATM   12  C   UNL     1       6.234  34.169  66.648  1.00  0.00     0.335 C 
HETATM   13  N   UNL     1       7.055  34.379  67.724  1.00  0.00    -0.337 N 
HETATM   14  O   UNL     1       5.060  34.510  66.565  1.00  0.00    -0.246 OA
HETATM   15  H   UNL     1       7.817  33.719  67.810  1.00  0.00     0.164 HD
HETATM   16  H   UNL     1       7.865  33.717  65.491  1.00  0.00     0.192 HD
BRANCH  13  17
HETATM   17  C   UNL     1       6.570  34.993  68.956  1.00  0.00     0.086 C 
HETATM   18  C   UNL     1       5.886  33.971  69.876  1.00  0.00     0.025 C 
HETATM   19  C   UNL     1       6.877  32.990  70.501  1.00  0.00     0.002 C 
HETATM   20  C   UNL     1       7.998  33.719  71.234  1.00  0.00     0.000 C 
HETATM   21  C   UNL     1       8.705  34.727  70.332  1.00  0.00     0.002 C 
HETATM   22  C   UNL     1       7.720  35.702  69.686  1.00  0.00     0.025 C 
ENDBRANCH  13  17
ENDBRANCH   8  11
ENDBRANCH   4   7
BRANCH   1  23
HETATM   23  C   UNL     1       4.026  31.681  58.512  1.00  0.00     0.230 C 
BRANCH  23  24
HETATM   24  C   UNL     1       5.011  30.838  57.713  1.00  0.00     0.240 C 
HETATM   25  N   UNL     1       5.003  29.492  58.033  1.00  0.00    -0.326 N 
HETATM   26  H   UNL     1       4.543  29.186  58.884  1.00  0.00     0.169 HD
HETATM   27  O   UNL     1       5.693  31.377  56.845  1.00  0.00    -0.271 OA
BRANCH  25  28
HETATM   28  C   UNL     1       5.644  28.455  57.314  1.00  0.00     0.034 A 
HETATM   29  C   UNL     1       6.982  28.096  57.488  1.00  0.00     0.030 A 
HETATM   30  C   UNL     1       7.555  27.084  56.706  1.00  0.00     0.009 A 
HETATM   31  C   UNL     1       6.796  26.409  55.747  1.00  0.00    -0.062 A 
HETATM   32  C   UNL     1       7.427  25.356  54.885  1.00  0.00     0.048 C 
HETATM   33  C   UNL     1       5.460  26.775  55.564  1.00  0.00     0.009 A 
HETATM   34  C   UNL     1       4.890  27.787  56.342  1.00  0.00     0.030 A 
ENDBRANCH  25  28
ENDBRANCH  23  24
ENDBRANCH   1  23
TORSDOF 6
ENDMDL
MODEL 9
REMARK VINA RESULT:      -8.7      2.539      3.788
REMARK  6 active torsions:
REMARK  status: ('A' for Active; 'I' for Inactive)
REMARK    1  A    between atoms: C_5  and  N_6 
REMARK       I    between atoms: N_6  and  C_7 
REMARK    2  A    between atoms: C_7  and  C_8 
REMARK    3  A    between atoms: C_8  and  N_9 
REMARK    4  A    between atoms: C_12  and  C_13 
REMARK       I    between atoms: C_13  and  N_14 
REMARK    5  A    between atoms: N_14  and  N_15 
REMARK       I    between atoms: N_15  and  C_16 
REMARK       I    between atoms: C_16  and  N_17 
REMARK    6  A    between atoms: N_17  and  C_18 
ROOT
HETATM    1  N   UNL     1       6.400  29.228  55.471  1.00  0.00    -0.358 N 
HETATM    2  C   UNL     1       7.491  29.208  56.271  1.00  0.00     0.092 A 
HETATM    3  C   UNL     1       7.560  30.026  57.391  1.00  0.00     0.034 A 
HETATM    4  C   UNL     1       6.493  30.872  57.693  1.00  0.00     0.036 A 
HETATM    5  C   UNL     1       5.387  30.899  56.845  1.00  0.00     0.034 A 
HETATM    6  C   UNL     1       5.365  30.062  55.735  1.00  0.00     0.092 A 
ENDROOT
BRANCH   4   7
HETATM    7  C   UNL     1       6.535  31.619  58.977  1.00  0.00     0.270 C 
HETATM    8  N   UNL     1       5.413  31.564  59.774  1.00  0.00    -0.262 N 
HETATM    9  H   UNL     1       4.477  31.394  59.406  1.00  0.00     0.190 HD
HETATM   10  O   UNL     1       7.554  32.230  59.288  1.00  0.00    -0.266 OA
BRANCH   8  11
HETATM   11  N   UNL     1       5.432  32.310  60.969  1.00  0.00    -0.249 N 
HETATM   12  C   UNL     1       4.338  33.119  61.199  1.00  0.00     0.335 C 
HETATM   13  N   UNL     1       4.486  33.851  62.348  1.00  0.00    -0.337 N 
HETATM   14  O   UNL     1       3.362  33.137  60.459  1.00  0.00    -0.246 OA
HETATM   15  H   UNL     1       5.115  33.447  63.029  1.00  0.00     0.164 HD
HETATM   16  H   UNL     1       6.344  32.697  61.210  1.00  0.00     0.192 HD
BRANCH  13  17
HETATM   17  C   UNL     1       3.420  34.708  62.859  1.00  0.00     0.086 C 
HETATM   18  C   UNL     1       3.045  34.355  64.307  1.00  0.00     0.025 C 
HETATM   19  C   UNL     1       4.133  34.748  65.305  1.00  0.00     0.002 C 
HETATM   20  C   UNL     1       4.502  36.222  65.181  1.00  0.00     0.000 C 
HETATM   21  C   UNL     1       4.896  36.590  63.753  1.00  0.00     0.002 C 
HETATM   22  C   UNL     1       3.822  36.185  62.742  1.00  0.00     0.025 C 
ENDBRANCH  13  17
ENDBRANCH   8  11
ENDBRANCH   4   7
BRANCH   1  23
HETATM   23  C   UNL     1       6.279  28.232  54.372  1.00  0.00     0.230 C 
BRANCH  23  24
HETATM   24  C   UNL     1       6.222  26.855  55.019  1.00  0.00     0.240 C 
HETATM   25  N   UNL     1       7.201  25.978  54.585  1.00  0.00    -0.326 N 
HETATM   26  H   UNL     1       7.729  26.197  53.748  1.00  0.00     0.169 HD
HETATM   27  O   UNL     1       5.372  26.633  55.878  1.00  0.00    -0.271 OA
BRANCH  25  28
HETATM   28  C   UNL     1       7.520  24.725  55.162  1.00  0.00     0.034 A 
HETATM   29  C   UNL     1       8.058  24.568  56.441  1.00  0.00     0.030 A 
HETATM   30  C   UNL     1       8.385  23.295  56.923  1.00  0.00     0.009 A 
HETATM   31  C   UNL     1       8.172  22.159  56.139  1.00  0.00    -0.062 A 
HETATM   32  C   UNL     1       8.565  20.802  56.647  1.00  0.00     0.048 C 
HETATM   33  C   UNL     1       7.645  22.315  54.855  1.00  0.00     0.009 A 
HETATM   34  C   UNL     1       7.320  23.587  54.372  1.00  0.00     0.030 A 
ENDBRANCH  25  28
ENDBRANCH  23  24
ENDBRANCH   1  23
TORSDOF 6
ENDMDL
MODEL 10
REMARK VINA RESULT:      -8.4      3.704     11.743
REMARK  6 active torsions:
REMARK  status: ('A' for Active; 'I' for Inactive)
REMARK    1  A    between atoms: C_5  and  N_6 
REMARK       I    between atoms: N_6  and  C_7 
REMARK    2  A    between atoms: C_7  and  C_8 
REMARK    3  A    between atoms: C_8  and  N_9 
REMARK    4  A    between atoms: C_12  and  C_13 
REMARK       I    between atoms: C_13  and  N_14 
REMARK    5  A    between atoms: N_14  and  N_15 
REMARK       I    between atoms: N_15  and  C_16 
REMARK       I    between atoms: C_16  and  N_17 
REMARK    6  A    between atoms: N_17  and  C_18 
ROOT
HETATM    1  N   UNL     1       2.953  34.355  60.538  1.00  0.00    -0.358 N 
HETATM    2  C   UNL     1       3.115  34.593  59.216  1.00  0.00     0.092 A 
HETATM    3  C   UNL     1       3.475  33.568  58.352  1.00  0.00     0.034 A 
HETATM    4  C   UNL     1       3.667  32.281  58.854  1.00  0.00     0.036 A 
HETATM    5  C   UNL     1       3.521  32.056  60.221  1.00  0.00     0.034 A 
HETATM    6  C   UNL     1       3.161  33.116  61.046  1.00  0.00     0.092 A 
ENDROOT
BRANCH   4   7
HETATM    7  C   UNL     1       3.902  31.181  57.882  1.00  0.00     0.270 C 
HETATM    8  N   UNL     1       4.281  29.960  58.393  1.00  0.00    -0.262 N 
HETATM    9  H   UNL     1       4.765  29.856  59.285  1.00  0.00     0.190 HD
HETATM   10  O   UNL     1       3.734  31.388  56.683  1.00  0.00    -0.266 OA
BRANCH   8  11
HETATM   11  N   UNL     1       4.551  28.929  57.472  1.00  0.00    -0.249 N 
HETATM   12  C   UNL     1       5.883  28.632  57.262  1.00  0.00     0.335 C 
HETATM   13  N   UNL     1       6.039  27.668  56.301  1.00  0.00    -0.337 N 
HETATM   14  O   UNL     1       6.785  29.168  57.894  1.00  0.00    -0.246 OA
HETATM   15  H   UNL     1       5.240  27.062  56.177  1.00  0.00     0.164 HD
HETATM   16  H   UNL     1       3.950  28.932  56.648  1.00  0.00     0.192 HD
BRANCH  13  17
HETATM   17  C   UNL     1       7.348  27.113  55.972  1.00  0.00     0.086 C 
HETATM   18  C   UNL     1       7.791  26.048  56.987  1.00  0.00     0.025 C 
HETATM   19  C   UNL     1       6.978  24.759  56.876  1.00  0.00     0.002 C 
HETATM   20  C   UNL     1       7.001  24.203  55.456  1.00  0.00     0.000 C 
HETATM   21  C   UNL     1       6.546  25.239  54.433  1.00  0.00     0.002 C 
HETATM   22  C   UNL     1       7.341  26.541  54.547  1.00  0.00     0.025 C 
ENDBRANCH  13  17
ENDBRANCH   8  11
ENDBRANCH   4   7
BRANCH   1  23
HETATM   23  C   UNL     1       2.414  35.427  61.416  1.00  0.00     0.230 C 
BRANCH  23  24
HETATM   24  C   UNL     1       3.424  35.641  62.535  1.00  0.00     0.240 C 
HETATM   25  N   UNL     1       3.033  35.137  63.763  1.00  0.00    -0.326 N 
HETATM   26  H   UNL     1       2.064  34.874  63.907  1.00  0.00     0.169 HD
HETATM   27  O   UNL     1       4.493  36.189  62.278  1.00  0.00    -0.271 OA
BRANCH  25  28
HETATM   28  C   UNL     1       3.849  35.000  64.912  1.00  0.00     0.034 A 
HETATM   29  C   UNL     1       3.756  35.819  66.038  1.00  0.00     0.030 A 
HETATM   30  C   UNL     1       4.629  35.645  67.119  1.00  0.00     0.009 A 
HETATM   31  C   UNL     1       5.602  34.642  67.095  1.00  0.00    -0.062 A 
HETATM   32  C   UNL     1       6.561  34.488  68.238  1.00  0.00     0.048 C 
HETATM   33  C   UNL     1       5.704  33.829  65.964  1.00  0.00     0.009 A 
HETATM   34  C   UNL     1       4.834  34.005  64.883  1.00  0.00     0.030 A 
ENDBRANCH  25  28
ENDBRANCH  23  24
ENDBRANCH   1  23
TORSDOF 6
ENDMDL
