MODEL 1
REMARK VINA RESULT:      -9.2      0.000      0.000
REMARK  6 active torsions:
REMARK  status: ('A' for Active; 'I' for Inactive)
REMARK    1  A    between atoms: C_2  and  C_3 
REMARK    2  A    between atoms: C_3  and  C_4 
REMARK    3  A    between atoms: C_5  and  O_6 
REMARK    4  A    between atoms: C_7  and  C_8 
REMARK    5  A    between atoms: N_9  and  N_10 
REMARK       I    between atoms: N_10  and  C_11 
REMARK    6  A    between atoms: C_11  and  C_12 
ROOT
HETATM    1  N   UNL     1       7.802  26.348  56.089  1.00  0.00    -0.243 N 
HETATM    2  C   UNL     1       8.377  25.100  56.282  1.00  0.00     0.274 C 
HETATM    3  O   UNL     1       9.086  24.810  57.247  1.00  0.00    -0.266 OA
HETATM    4  H   UNL     1       7.227  26.561  55.287  1.00  0.00     0.192 HD
ENDROOT
BRANCH   1   5
HETATM    5  N   UNL     1       8.036  27.340  56.997  1.00  0.00    -0.183 NA
HETATM    6  C   UNL     1       8.619  28.401  56.537  1.00  0.00     0.153 C 
BRANCH   6   7
HETATM    7  C   UNL     1       8.940  29.548  57.414  1.00  0.00     0.017 A 
HETATM    8  C   UNL     1       7.979  30.052  58.303  1.00  0.00     0.084 A 
HETATM    9  C   UNL     1       8.285  31.137  59.144  1.00  0.00    -0.021 A 
HETATM   10  C   UNL     1       9.564  31.719  59.048  1.00  0.00     0.010 A 
HETATM   11  C   UNL     1      10.515  31.224  58.155  1.00  0.00     0.002 A 
HETATM   12  C   UNL     1      10.207  30.137  57.342  1.00  0.00     0.016 A 
BRANCH   8  13
HETATM   13  O   UNL     1       6.744  29.459  58.330  1.00  0.00    -0.359 OA
HETATM   14  H   UNL     1       6.119  30.008  57.828  1.00  0.00     0.218 HD
ENDBRANCH   8  13
BRANCH   9  15
HETATM   15  C   UNL     1       7.313  31.699  60.158  1.00  0.00     0.067 C 
BRANCH  15  16
HETATM   16  C   UNL     1       7.991  32.519  61.221  1.00  0.00    -0.032 C 
HETATM   17  C   UNL     1       8.231  32.090  62.468  1.00  0.00     0.007 C 
ENDBRANCH  15  16
ENDBRANCH   9  15
ENDBRANCH   6   7
ENDBRANCH   1   5
BRANCH   2  18
HETATM   18  C   UNL     1       8.114  24.056  55.241  1.00  0.00     0.061 A 
HETATM   19  C   UNL     1       8.145  22.697  55.616  1.00  0.00     0.058 A 
HETATM   20  C   UNL     1       7.920  21.648  54.725  1.00  0.00    -0.007 A 
HETATM   21  N   UNL     1       8.384  22.125  56.850  1.00  0.00    -0.364 N 
HETATM   22  C   UNL     1       8.033  20.435  55.460  1.00  0.00     0.030 A 
HETATM   23  C   UNL     1       7.647  21.951  53.379  1.00  0.00     0.014 A 
HETATM   24  C   UNL     1       8.320  20.761  56.767  1.00  0.00     0.089 A 
HETATM   25  C   UNL     1       7.606  23.289  52.975  1.00  0.00     0.002 A 
HETATM   26  C   UNL     1       7.834  24.323  53.888  1.00  0.00     0.019 A 
HETATM   27  H   UNL     1       8.577  22.676  57.682  1.00  0.00     0.165 HD
ENDBRANCH   2  18
TORSDOF 6
ENDMDL
MODEL 2
REMARK VINA RESULT:      -8.8      1.908      9.088
REMARK  6 active torsions:
REMARK  status: ('A' for Active; 'I' for Inactive)
REMARK    1  A    between atoms: C_2  and  C_3 
REMARK    2  A    between atoms: C_3  and  C_4 
REMARK    3  A    between atoms: C_5  and  O_6 
REMARK    4  A    between atoms: C_7  and  C_8 
REMARK    5  A    between atoms: N_9  and  N_10 
REMARK       I    between atoms: N_10  and  C_11 
REMARK    6  A    between atoms: C_11  and  C_12 
ROOT
HETATM    1  N   UNL     1       7.021  28.420  57.272  1.00  0.00    -0.243 N 
HETATM    2  C   UNL     1       7.891  29.413  57.699  1.00  0.00     0.274 C 
HETATM    3  O   UNL     1       9.092  29.440  57.429  1.00  0.00    -0.266 OA
HETATM    4  H   UNL     1       6.040  28.420  57.511  1.00  0.00     0.192 HD
ENDROOT
BRANCH   1   5
HETATM    5  N   UNL     1       7.503  27.387  56.522  1.00  0.00    -0.183 NA
HETATM    6  C   UNL     1       6.826  27.099  55.455  1.00  0.00     0.153 C 
BRANCH   6   7
HETATM    7  C   UNL     1       7.232  25.996  54.557  1.00  0.00     0.017 A 
HETATM    8  C   UNL     1       7.295  24.679  55.034  1.00  0.00     0.084 A 
HETATM    9  C   UNL     1       7.672  23.628  54.179  1.00  0.00    -0.021 A 
HETATM   10  C   UNL     1       8.011  23.936  52.848  1.00  0.00     0.010 A 
HETATM   11  C   UNL     1       7.960  25.249  52.377  1.00  0.00     0.002 A 
HETATM   12  C   UNL     1       7.566  26.278  53.228  1.00  0.00     0.016 A 
BRANCH   8  13
HETATM   13  O   UNL     1       6.977  24.447  56.347  1.00  0.00    -0.359 OA
HETATM   14  H   UNL     1       6.596  23.558  56.428  1.00  0.00     0.218 HD
ENDBRANCH   8  13
BRANCH   9  15
HETATM   15  C   UNL     1       7.714  22.180  54.615  1.00  0.00     0.067 C 
BRANCH  15  16
HETATM   16  C   UNL     1       8.671  21.354  53.800  1.00  0.00    -0.032 C 
HETATM   17  C   UNL     1       8.297  20.425  52.909  1.00  0.00     0.007 C 
ENDBRANCH  15  16
ENDBRANCH   9  15
ENDBRANCH   6   7
ENDBRANCH   1   5
BRANCH   2  18
HETATM   18  C   UNL     1       7.317  30.508  58.546  1.00  0.00     0.061 A 
HETATM   19  C   UNL     1       7.981  30.867  59.737  1.00  0.00     0.058 A 
HETATM   20  C   UNL     1       7.529  31.866  60.598  1.00  0.00    -0.007 A 
HETATM   21  N   UNL     1       9.141  30.360  60.291  1.00  0.00    -0.364 N 
HETATM   22  C   UNL     1       8.449  31.940  61.681  1.00  0.00     0.030 A 
HETATM   23  C   UNL     1       6.350  32.559  60.270  1.00  0.00     0.014 A 
HETATM   24  C   UNL     1       9.431  31.000  61.464  1.00  0.00     0.089 A 
HETATM   25  C   UNL     1       5.669  32.230  59.094  1.00  0.00     0.002 A 
HETATM   26  C   UNL     1       6.143  31.224  58.247  1.00  0.00     0.019 A 
HETATM   27  H   UNL     1       9.675  29.614  59.856  1.00  0.00     0.165 HD
ENDBRANCH   2  18
TORSDOF 6
ENDMDL
MODEL 3
REMARK VINA RESULT:      -8.7      1.881      9.468
REMARK  6 active torsions:
REMARK  status: ('A' for Active; 'I' for Inactive)
REMARK    1  A    between atoms: C_2  and  C_3 
REMARK    2  A    between atoms: C_3  and  C_4 
REMARK    3  A    between atoms: C_5  and  O_6 
REMARK    4  A    between atoms: C_7  and  C_8 
REMARK    5  A    between atoms: N_9  and  N_10 
REMARK       I    between atoms: N_10  and  C_11 
REMARK    6  A    between atoms: C_11  and  C_12 
ROOT
HETATM    1  N   UNL     1       8.153  28.776  58.328  1.00  0.00    -0.243 N 
HETATM    2  C   UNL     1       7.663  30.067  58.469  1.00  0.00     0.274 C 
HETATM    3  O   UNL     1       6.979  30.640  57.621  1.00  0.00    -0.266 OA
HETATM    4  H   UNL     1       8.715  28.329  59.037  1.00  0.00     0.192 HD
ENDROOT
BRANCH   1   5
HETATM    5  N   UNL     1       7.892  28.084  57.180  1.00  0.00    -0.183 NA
HETATM    6  C   UNL     1       7.888  26.793  57.287  1.00  0.00     0.153 C 
BRANCH   6   7
HETATM    7  C   UNL     1       7.629  25.922  56.120  1.00  0.00     0.017 A 
HETATM    8  C   UNL     1       7.774  24.530  56.228  1.00  0.00     0.084 A 
HETATM    9  C   UNL     1       7.520  23.700  55.122  1.00  0.00    -0.021 A 
HETATM   10  C   UNL     1       7.148  24.301  53.904  1.00  0.00     0.010 A 
HETATM   11  C   UNL     1       7.015  25.685  53.795  1.00  0.00     0.002 A 
HETATM   12  C   UNL     1       7.250  26.496  54.902  1.00  0.00     0.016 A 
BRANCH   8  13
HETATM   13  O   UNL     1       8.165  24.009  57.434  1.00  0.00    -0.359 OA
HETATM   14  H   UNL     1       7.877  23.083  57.485  1.00  0.00     0.218 HD
ENDBRANCH   8  13
BRANCH   9  15
HETATM   15  C   UNL     1       7.610  22.191  55.182  1.00  0.00     0.067 C 
BRANCH  15  16
HETATM   16  C   UNL     1       8.378  21.607  54.028  1.00  0.00    -0.032 C 
HETATM   17  C   UNL     1       7.892  20.684  53.186  1.00  0.00     0.007 C 
ENDBRANCH  15  16
ENDBRANCH   9  15
ENDBRANCH   6   7
ENDBRANCH   1   5
BRANCH   2  18
HETATM   18  C   UNL     1       8.004  30.793  59.734  1.00  0.00     0.061 A 
HETATM   19  C   UNL     1       7.045  31.659  60.301  1.00  0.00     0.058 A 
HETATM   20  C   UNL     1       7.263  32.385  61.471  1.00  0.00    -0.007 A 
HETATM   21  N   UNL     1       5.769  31.969  59.872  1.00  0.00    -0.364 N 
HETATM   22  C   UNL     1       6.083  33.139  61.727  1.00  0.00     0.030 A 
HETATM   23  C   UNL     1       8.500  32.255  62.128  1.00  0.00     0.014 A 
HETATM   24  C   UNL     1       5.181  32.862  60.725  1.00  0.00     0.089 A 
HETATM   25  C   UNL     1       9.470  31.403  61.594  1.00  0.00     0.002 A 
HETATM   26  C   UNL     1       9.228  30.684  60.419  1.00  0.00     0.019 A 
HETATM   27  H   UNL     1       5.361  31.568  59.033  1.00  0.00     0.165 HD
ENDBRANCH   2  18
TORSDOF 6
ENDMDL
MODEL 4
REMARK VINA RESULT:      -8.5      5.645      8.905
REMARK  6 active torsions:
REMARK  status: ('A' for Active; 'I' for Inactive)
REMARK    1  A    between atoms: C_2  and  C_3 
REMARK    2  A    between atoms: C_3  and  C_4 
REMARK    3  A    between atoms: C_5  and  O_6 
REMARK    4  A    between atoms: C_7  and  C_8 
REMARK    5  A    between atoms: N_9  and  N_10 
REMARK       I    between atoms: N_10  and  C_11 
REMARK    6  A    between atoms: C_11  and  C_12 
ROOT
HETATM    1  N   UNL     1       6.403  25.815  53.045  1.00  0.00    -0.243 N 
HETATM    2  C   UNL     1       7.458  24.919  52.952  1.00  0.00     0.274 C 
HETATM    3  O   UNL     1       8.170  24.794  51.955  1.00  0.00    -0.266 OA
HETATM    4  H   UNL     1       5.832  25.896  53.874  1.00  0.00     0.192 HD
ENDROOT
BRANCH   1   5
HETATM    5  N   UNL     1       6.101  26.606  51.974  1.00  0.00    -0.183 NA
HETATM    6  C   UNL     1       5.262  26.107  51.123  1.00  0.00     0.153 C 
BRANCH   6   7
HETATM    7  C   UNL     1       4.854  26.853  49.912  1.00  0.00     0.017 A 
HETATM    8  C   UNL     1       3.915  26.306  49.024  1.00  0.00     0.084 A 
HETATM    9  C   UNL     1       3.520  27.018  47.877  1.00  0.00    -0.021 A 
HETATM   10  C   UNL     1       4.111  28.272  47.630  1.00  0.00     0.010 A 
HETATM   11  C   UNL     1       5.053  28.810  48.508  1.00  0.00     0.002 A 
HETATM   12  C   UNL     1       5.421  28.105  49.650  1.00  0.00     0.016 A 
BRANCH   8  13
HETATM   13  O   UNL     1       3.397  25.069  49.307  1.00  0.00    -0.359 OA
HETATM   14  H   UNL     1       3.752  24.765  50.158  1.00  0.00     0.218 HD
ENDBRANCH   8  13
BRANCH   9  15
HETATM   15  C   UNL     1       2.479  26.509  46.905  1.00  0.00     0.067 C 
BRANCH  15  16
HETATM   16  C   UNL     1       1.124  27.122  47.130  1.00  0.00    -0.032 C 
HETATM   17  C   UNL     1       0.247  27.394  46.154  1.00  0.00     0.007 C 
ENDBRANCH  15  16
ENDBRANCH   9  15
ENDBRANCH   6   7
ENDBRANCH   1   5
BRANCH   2  18
HETATM   18  C   UNL     1       7.728  24.053  54.145  1.00  0.00     0.061 A 
HETATM   19  C   UNL     1       7.856  22.661  53.961  1.00  0.00     0.058 A 
HETATM   20  C   UNL     1       8.101  21.767  55.002  1.00  0.00    -0.007 A 
HETATM   21  N   UNL     1       7.776  21.910  52.804  1.00  0.00    -0.364 N 
HETATM   22  C   UNL     1       8.164  20.463  54.436  1.00  0.00     0.030 A 
HETATM   23  C   UNL     1       8.230  22.271  56.310  1.00  0.00     0.014 A 
HETATM   24  C   UNL     1       7.960  20.583  53.080  1.00  0.00     0.089 A 
HETATM   25  C   UNL     1       8.112  23.647  56.525  1.00  0.00     0.002 A 
HETATM   26  C   UNL     1       7.866  24.523  55.464  1.00  0.00     0.019 A 
HETATM   27  H   UNL     1       7.604  22.324  51.892  1.00  0.00     0.165 HD
ENDBRANCH   2  18
TORSDOF 6
ENDMDL
MODEL 5
REMARK VINA RESULT:      -8.4      5.943      9.255
REMARK  6 active torsions:
REMARK  status: ('A' for Active; 'I' for Inactive)
REMARK    1  A    between atoms: C_2  and  C_3 
REMARK    2  A    between atoms: C_3  and  C_4 
REMARK    3  A    between atoms: C_5  and  O_6 
REMARK    4  A    between atoms: C_7  and  C_8 
REMARK    5  A    between atoms: N_9  and  N_10 
REMARK       I    between atoms: N_10  and  C_11 
REMARK    6  A    between atoms: C_11  and  C_12 
ROOT
HETATM    1  N   UNL     1       4.624  25.564  50.996  1.00  0.00    -0.243 N 
HETATM    2  C   UNL     1       4.712  26.628  50.110  1.00  0.00     0.274 C 
HETATM    3  O   UNL     1       5.543  27.533  50.200  1.00  0.00    -0.266 OA
HETATM    4  H   UNL     1       3.932  24.836  50.901  1.00  0.00     0.192 HD
ENDROOT
BRANCH   1   5
HETATM    5  N   UNL     1       5.484  25.503  52.055  1.00  0.00    -0.183 NA
HETATM    6  C   UNL     1       5.050  24.872  53.100  1.00  0.00     0.153 C 
BRANCH   6   7
HETATM    7  C   UNL     1       5.876  24.738  54.320  1.00  0.00     0.017 A 
HETATM    8  C   UNL     1       6.912  23.794  54.375  1.00  0.00     0.084 A 
HETATM    9  C   UNL     1       7.703  23.671  55.532  1.00  0.00    -0.021 A 
HETATM   10  C   UNL     1       7.410  24.496  56.635  1.00  0.00     0.010 A 
HETATM   11  C   UNL     1       6.372  25.427  56.582  1.00  0.00     0.002 A 
HETATM   12  C   UNL     1       5.608  25.552  55.425  1.00  0.00     0.016 A 
BRANCH   8  13
HETATM   13  O   UNL     1       7.130  23.003  53.277  1.00  0.00    -0.359 OA
HETATM   14  H   UNL     1       6.720  22.135  53.427  1.00  0.00     0.218 HD
ENDBRANCH   8  13
BRANCH   9  15
HETATM   15  C   UNL     1       8.865  22.709  55.641  1.00  0.00     0.067 C 
BRANCH  15  16
HETATM   16  C   UNL     1       8.506  21.443  56.370  1.00  0.00    -0.032 C 
HETATM   17  C   UNL     1       8.305  20.259  55.774  1.00  0.00     0.007 C 
ENDBRANCH  15  16
ENDBRANCH   9  15
ENDBRANCH   6   7
ENDBRANCH   1   5
BRANCH   2  18
HETATM   18  C   UNL     1       3.726  26.664  48.983  1.00  0.00     0.061 A 
HETATM   19  C   UNL     1       2.845  27.762  48.884  1.00  0.00     0.058 A 
HETATM   20  C   UNL     1       1.887  27.889  47.880  1.00  0.00    -0.007 A 
HETATM   21  N   UNL     1       2.729  28.878  49.689  1.00  0.00    -0.364 N 
HETATM   22  C   UNL     1       1.195  29.112  48.107  1.00  0.00     0.030 A 
HETATM   23  C   UNL     1       1.785  26.877  46.909  1.00  0.00     0.014 A 
HETATM   24  C   UNL     1       1.736  29.699  49.229  1.00  0.00     0.089 A 
HETATM   25  C   UNL     1       2.645  25.777  46.977  1.00  0.00     0.002 A 
HETATM   26  C   UNL     1       3.598  25.672  47.994  1.00  0.00     0.019 A 
HETATM   27  H   UNL     1       3.320  29.032  50.501  1.00  0.00     0.165 HD
ENDBRANCH   2  18
TORSDOF 6
ENDMDL
MODEL 6
REMARK VINA RESULT:      -8.4      1.561      2.536
REMARK  6 active torsions:
REMARK  status: ('A' for Active; 'I' for Inactive)
REMARK    1  A    between atoms: C_2  and  C_3 
REMARK    2  A    between atoms: C_3  and  C_4 
REMARK    3  A    between atoms: C_5  and  O_6 
REMARK    4  A    between atoms: C_7  and  C_8 
REMARK    5  A    between atoms: N_9  and  N_10 
REMARK       I    between atoms: N_10  and  C_11 
REMARK    6  A    between atoms: C_11  and  C_12 
ROOT
HETATM    1  N   UNL     1       8.395  26.480  56.956  1.00  0.00    -0.243 N 
HETATM    2  C   UNL     1       7.339  25.602  56.759  1.00  0.00     0.274 C 
HETATM    3  O   UNL     1       6.231  25.729  57.282  1.00  0.00    -0.266 OA
HETATM    4  H   UNL     1       9.295  26.351  56.517  1.00  0.00     0.192 HD
ENDROOT
BRANCH   1   5
HETATM    5  N   UNL     1       8.232  27.546  57.792  1.00  0.00    -0.183 NA
HETATM    6  C   UNL     1       8.717  28.672  57.374  1.00  0.00     0.153 C 
BRANCH   6   7
HETATM    7  C   UNL     1       8.618  29.905  58.184  1.00  0.00     0.017 A 
HETATM    8  C   UNL     1       7.363  30.426  58.533  1.00  0.00     0.084 A 
HETATM    9  C   UNL     1       7.266  31.594  59.311  1.00  0.00    -0.021 A 
HETATM   10  C   UNL     1       8.456  32.238  59.702  1.00  0.00     0.010 A 
HETATM   11  C   UNL     1       9.703  31.726  59.345  1.00  0.00     0.002 A 
HETATM   12  C   UNL     1       9.786  30.559  58.591  1.00  0.00     0.016 A 
BRANCH   8  13
HETATM   13  O   UNL     1       6.242  29.766  58.099  1.00  0.00    -0.359 OA
HETATM   14  H   UNL     1       5.474  30.085  58.601  1.00  0.00     0.218 HD
ENDBRANCH   8  13
BRANCH   9  15
HETATM   15  C   UNL     1       5.947  32.181  59.762  1.00  0.00     0.067 C 
BRANCH  15  16
HETATM   16  C   UNL     1       6.039  32.854  61.104  1.00  0.00    -0.032 C 
HETATM   17  C   UNL     1       5.525  32.354  62.237  1.00  0.00     0.007 C 
ENDBRANCH  15  16
ENDBRANCH   9  15
ENDBRANCH   6   7
ENDBRANCH   1   5
BRANCH   2  18
HETATM   18  C   UNL     1       7.580  24.432  55.856  1.00  0.00     0.061 A 
HETATM   19  C   UNL     1       7.643  24.647  54.463  1.00  0.00     0.058 A 
HETATM   20  C   UNL     1       7.857  23.628  53.537  1.00  0.00    -0.007 A 
HETATM   21  N   UNL     1       7.519  25.819  53.743  1.00  0.00    -0.364 N 
HETATM   22  C   UNL     1       7.856  24.222  52.244  1.00  0.00     0.030 A 
HETATM   23  C   UNL     1       8.021  22.311  54.005  1.00  0.00     0.014 A 
HETATM   24  C   UNL     1       7.645  25.574  52.403  1.00  0.00     0.089 A 
HETATM   25  C   UNL     1       7.966  22.064  55.380  1.00  0.00     0.002 A 
HETATM   26  C   UNL     1       7.751  23.104  56.289  1.00  0.00     0.019 A 
HETATM   27  H   UNL     1       7.357  26.720  54.185  1.00  0.00     0.165 HD
ENDBRANCH   2  18
TORSDOF 6
ENDMDL
MODEL 7
REMARK VINA RESULT:      -8.3      1.665      2.349
REMARK  6 active torsions:
REMARK  status: ('A' for Active; 'I' for Inactive)
REMARK    1  A    between atoms: C_2  and  C_3 
REMARK    2  A    between atoms: C_3  and  C_4 
REMARK    3  A    between atoms: C_5  and  O_6 
REMARK    4  A    between atoms: C_7  and  C_8 
REMARK    5  A    between atoms: N_9  and  N_10 
REMARK       I    between atoms: N_10  and  C_11 
REMARK    6  A    between atoms: C_11  and  C_12 
ROOT
HETATM    1  N   UNL     1       7.672  27.580  55.856  1.00  0.00    -0.243 N 
HETATM    2  C   UNL     1       7.061  26.336  55.791  1.00  0.00     0.274 C 
HETATM    3  O   UNL     1       6.284  25.905  56.644  1.00  0.00    -0.266 OA
HETATM    4  H   UNL     1       8.308  27.909  55.144  1.00  0.00     0.192 HD
ENDROOT
BRANCH   1   5
HETATM    5  N   UNL     1       7.432  28.388  56.929  1.00  0.00    -0.183 NA
HETATM    6  C   UNL     1       7.039  29.591  56.655  1.00  0.00     0.153 C 
BRANCH   6   7
HETATM    7  C   UNL     1       6.752  30.573  57.723  1.00  0.00     0.017 A 
HETATM    8  C   UNL     1       7.731  30.891  58.676  1.00  0.00     0.084 A 
HETATM    9  C   UNL     1       7.462  31.831  59.687  1.00  0.00    -0.021 A 
HETATM   10  C   UNL     1       6.183  32.417  59.734  1.00  0.00     0.010 A 
HETATM   11  C   UNL     1       5.206  32.092  58.793  1.00  0.00     0.002 A 
HETATM   12  C   UNL     1       5.490  31.175  57.785  1.00  0.00     0.016 A 
BRANCH   8  13
HETATM   13  O   UNL     1       8.948  30.266  58.591  1.00  0.00    -0.359 OA
HETATM   14  H   UNL     1       9.154  30.102  57.656  1.00  0.00     0.218 HD
ENDBRANCH   8  13
BRANCH   9  15
HETATM   15  C   UNL     1       8.487  32.256  60.716  1.00  0.00     0.067 C 
BRANCH  15  16
HETATM   16  C   UNL     1       7.861  32.778  61.980  1.00  0.00    -0.032 C 
HETATM   17  C   UNL     1       8.105  32.286  63.203  1.00  0.00     0.007 C 
ENDBRANCH  15  16
ENDBRANCH   9  15
ENDBRANCH   6   7
ENDBRANCH   1   5
BRANCH   2  18
HETATM   18  C   UNL     1       7.382  25.476  54.607  1.00  0.00     0.061 A 
HETATM   19  C   UNL     1       7.527  24.086  54.794  1.00  0.00     0.058 A 
HETATM   20  C   UNL     1       7.830  23.199  53.762  1.00  0.00    -0.007 A 
HETATM   21  N   UNL     1       7.412  23.331  55.946  1.00  0.00    -0.364 N 
HETATM   22  C   UNL     1       7.896  21.895  54.329  1.00  0.00     0.030 A 
HETATM   23  C   UNL     1       8.003  23.707  52.462  1.00  0.00     0.014 A 
HETATM   24  C   UNL     1       7.634  22.009  55.676  1.00  0.00     0.089 A 
HETATM   25  C   UNL     1       7.864  25.081  52.242  1.00  0.00     0.002 A 
HETATM   26  C   UNL     1       7.558  25.950  53.294  1.00  0.00     0.019 A 
HETATM   27  H   UNL     1       7.192  23.740  56.849  1.00  0.00     0.165 HD
ENDBRANCH   2  18
TORSDOF 6
ENDMDL
MODEL 8
REMARK VINA RESULT:      -8.2      4.195      7.352
REMARK  6 active torsions:
REMARK  status: ('A' for Active; 'I' for Inactive)
REMARK    1  A    between atoms: C_2  and  C_3 
REMARK    2  A    between atoms: C_3  and  C_4 
REMARK    3  A    between atoms: C_5  and  O_6 
REMARK    4  A    between atoms: C_7  and  C_8 
REMARK    5  A    between atoms: N_9  and  N_10 
REMARK       I    between atoms: N_10  and  C_11 
REMARK    6  A    between atoms: C_11  and  C_12 
ROOT
HETATM    1  N   UNL     1       7.973  30.881  60.855  1.00  0.00    -0.243 N 
HETATM    2  C   UNL     1       8.036  31.375  59.560  1.00  0.00     0.274 C 
HETATM    3  O   UNL     1       7.429  32.374  59.173  1.00  0.00    -0.266 OA
HETATM    4  H   UNL     1       8.479  30.057  61.146  1.00  0.00     0.192 HD
ENDROOT
BRANCH   1   5
HETATM    5  N   UNL     1       7.181  31.509  61.772  1.00  0.00    -0.183 NA
HETATM    6  C   UNL     1       7.759  32.423  62.486  1.00  0.00     0.153 C 
BRANCH   6   7
HETATM    7  C   UNL     1       7.020  33.175  63.523  1.00  0.00     0.017 A 
HETATM    8  C   UNL     1       5.867  33.901  63.187  1.00  0.00     0.084 A 
HETATM    9  C   UNL     1       5.158  34.610  64.174  1.00  0.00    -0.021 A 
HETATM   10  C   UNL     1       5.651  34.596  65.493  1.00  0.00     0.010 A 
HETATM   11  C   UNL     1       6.803  33.883  65.824  1.00  0.00     0.002 A 
HETATM   12  C   UNL     1       7.485  33.170  64.843  1.00  0.00     0.016 A 
BRANCH   8  13
HETATM   13  O   UNL     1       5.454  33.896  61.880  1.00  0.00    -0.359 OA
HETATM   14  H   UNL     1       4.891  33.119  61.731  1.00  0.00     0.218 HD
ENDBRANCH   8  13
BRANCH   9  15
HETATM   15  C   UNL     1       3.883  35.372  63.890  1.00  0.00     0.067 C 
BRANCH  15  16
HETATM   16  C   UNL     1       2.668  34.486  63.865  1.00  0.00    -0.032 C 
HETATM   17  C   UNL     1       2.006  34.141  62.752  1.00  0.00     0.007 C 
ENDBRANCH  15  16
ENDBRANCH   9  15
ENDBRANCH   6   7
ENDBRANCH   1   5
BRANCH   2  18
HETATM   18  C   UNL     1       8.896  30.631  58.585  1.00  0.00     0.061 A 
HETATM   19  C   UNL     1       8.403  29.438  58.014  1.00  0.00     0.058 A 
HETATM   20  C   UNL     1       9.123  28.668  57.102  1.00  0.00    -0.007 A 
HETATM   21  N   UNL     1       7.192  28.801  58.204  1.00  0.00    -0.364 N 
HETATM   22  C   UNL     1       8.310  27.553  56.754  1.00  0.00     0.030 A 
HETATM   23  C   UNL     1      10.410  29.093  56.724  1.00  0.00     0.014 A 
HETATM   24  C   UNL     1       7.127  27.663  57.449  1.00  0.00     0.089 A 
HETATM   25  C   UNL     1      10.926  30.272  57.269  1.00  0.00     0.002 A 
HETATM   26  C   UNL     1      10.184  31.028  58.182  1.00  0.00     0.019 A 
HETATM   27  H   UNL     1       6.475  29.161  58.826  1.00  0.00     0.165 HD
ENDBRANCH   2  18
TORSDOF 6
ENDMDL
MODEL 9
REMARK VINA RESULT:      -8.2      6.171      9.219
REMARK  6 active torsions:
REMARK  status: ('A' for Active; 'I' for Inactive)
REMARK    1  A    between atoms: C_2  and  C_3 
REMARK    2  A    between atoms: C_3  and  C_4 
REMARK    3  A    between atoms: C_5  and  O_6 
REMARK    4  A    between atoms: C_7  and  C_8 
REMARK    5  A    between atoms: N_9  and  N_10 
REMARK       I    between atoms: N_10  and  C_11 
REMARK    6  A    between atoms: C_11  and  C_12 
ROOT
HETATM    1  N   UNL     1       6.535  25.720  51.978  1.00  0.00    -0.243 N 
HETATM    2  C   UNL     1       6.120  24.914  53.029  1.00  0.00     0.274 C 
HETATM    3  O   UNL     1       4.980  24.920  53.494  1.00  0.00    -0.266 OA
HETATM    4  H   UNL     1       7.477  25.697  51.617  1.00  0.00     0.192 HD
ENDROOT
BRANCH   1   5
HETATM    5  N   UNL     1       5.651  26.599  51.421  1.00  0.00    -0.183 NA
HETATM    6  C   UNL     1       5.271  26.328  50.213  1.00  0.00     0.153 C 
BRANCH   6   7
HETATM    7  C   UNL     1       4.323  27.201  49.486  1.00  0.00     0.017 A 
HETATM    8  C   UNL     1       3.243  26.647  48.783  1.00  0.00     0.084 A 
HETATM    9  C   UNL     1       2.336  27.476  48.100  1.00  0.00    -0.021 A 
HETATM   10  C   UNL     1       2.558  28.867  48.115  1.00  0.00     0.010 A 
HETATM   11  C   UNL     1       3.639  29.416  48.805  1.00  0.00     0.002 A 
HETATM   12  C   UNL     1       4.518  28.586  49.494  1.00  0.00     0.016 A 
BRANCH   8  13
HETATM   13  O   UNL     1       3.098  25.284  48.785  1.00  0.00    -0.359 OA
HETATM   14  H   UNL     1       3.891  24.881  48.397  1.00  0.00     0.218 HD
ENDBRANCH   8  13
BRANCH   9  15
HETATM   15  C   UNL     1       1.125  26.948  47.363  1.00  0.00     0.067 C 
BRANCH  15  16
HETATM   16  C   UNL     1       0.507  27.972  46.450  1.00  0.00    -0.032 C 
HETATM   17  C   UNL     1      -0.626  27.782  45.759  1.00  0.00     0.007 C 
ENDBRANCH  15  16
ENDBRANCH   9  15
ENDBRANCH   6   7
ENDBRANCH   1   5
BRANCH   2  18
HETATM   18  C   UNL     1       7.137  23.989  53.624  1.00  0.00     0.061 A 
HETATM   19  C   UNL     1       7.598  24.237  54.935  1.00  0.00     0.058 A 
HETATM   20  C   UNL     1       8.545  23.442  55.579  1.00  0.00    -0.007 A 
HETATM   21  N   UNL     1       7.251  25.239  55.820  1.00  0.00    -0.364 N 
HETATM   22  C   UNL     1       8.756  23.999  56.871  1.00  0.00     0.030 A 
HETATM   23  C   UNL     1       9.076  22.333  54.895  1.00  0.00     0.014 A 
HETATM   24  C   UNL     1       7.945  25.105  56.991  1.00  0.00     0.089 A 
HETATM   25  C   UNL     1       8.638  22.058  53.597  1.00  0.00     0.002 A 
HETATM   26  C   UNL     1       7.686  22.870  52.972  1.00  0.00     0.019 A 
HETATM   27  H   UNL     1       6.570  25.958  55.594  1.00  0.00     0.165 HD
ENDBRANCH   2  18
TORSDOF 6
ENDMDL
MODEL 10
REMARK VINA RESULT:      -8.2      1.765      2.569
REMARK  6 active torsions:
REMARK  status: ('A' for Active; 'I' for Inactive)
REMARK    1  A    between atoms: C_2  and  C_3 
REMARK    2  A    between atoms: C_3  and  C_4 
REMARK    3  A    between atoms: C_5  and  O_6 
REMARK    4  A    between atoms: C_7  and  C_8 
REMARK    5  A    between atoms: N_9  and  N_10 
REMARK       I    between atoms: N_10  and  C_11 
REMARK    6  A    between atoms: C_11  and  C_12 
ROOT
HETATM    1  N   UNL     1       7.979  27.928  57.369  1.00  0.00    -0.243 N 
HETATM    2  C   UNL     1       7.851  26.548  57.437  1.00  0.00     0.274 C 
HETATM    3  O   UNL     1       7.881  25.904  58.487  1.00  0.00    -0.266 OA
HETATM    4  H   UNL     1       7.954  28.431  56.494  1.00  0.00     0.192 HD
ENDROOT
BRANCH   1   5
HETATM    5  N   UNL     1       8.171  28.639  58.518  1.00  0.00    -0.183 NA
HETATM    6  C   UNL     1       7.846  29.892  58.468  1.00  0.00     0.153 C 
BRANCH   6   7
HETATM    7  C   UNL     1       8.011  30.780  59.639  1.00  0.00     0.017 A 
HETATM    8  C   UNL     1       6.988  31.666  60.007  1.00  0.00     0.084 A 
HETATM    9  C   UNL     1       7.140  32.506  61.125  1.00  0.00    -0.021 A 
HETATM   10  C   UNL     1       8.351  32.455  61.841  1.00  0.00     0.010 A 
HETATM   11  C   UNL     1       9.372  31.581  61.468  1.00  0.00     0.002 A 
HETATM   12  C   UNL     1       9.203  30.741  60.371  1.00  0.00     0.016 A 
BRANCH   8  13
HETATM   13  O   UNL     1       5.843  31.687  59.253  1.00  0.00    -0.359 OA
HETATM   14  H   UNL     1       6.085  31.676  58.312  1.00  0.00     0.218 HD
ENDBRANCH   8  13
BRANCH   9  15
HETATM   15  C   UNL     1       6.059  33.449  61.606  1.00  0.00     0.067 C 
BRANCH  15  16
HETATM   16  C   UNL     1       4.945  32.739  62.326  1.00  0.00    -0.032 C 
HETATM   17  C   UNL     1       3.796  33.319  62.699  1.00  0.00     0.007 C 
ENDBRANCH  15  16
ENDBRANCH   9  15
ENDBRANCH   6   7
ENDBRANCH   1   5
BRANCH   2  18
HETATM   18  C   UNL     1       7.673  25.812  56.145  1.00  0.00     0.061 A 
HETATM   19  C   UNL     1       7.867  24.414  56.124  1.00  0.00     0.058 A 
HETATM   20  C   UNL     1       7.732  23.637  54.975  1.00  0.00    -0.007 A 
HETATM   21  N   UNL     1       8.208  23.553  57.149  1.00  0.00    -0.364 N 
HETATM   22  C   UNL     1       8.003  22.289  55.341  1.00  0.00     0.030 A 
HETATM   23  C   UNL     1       7.384  24.269  53.767  1.00  0.00     0.014 A 
HETATM   24  C   UNL     1       8.294  22.269  56.687  1.00  0.00     0.089 A 
HETATM   25  C   UNL     1       7.181  25.652  53.754  1.00  0.00     0.002 A 
HETATM   26  C   UNL     1       7.322  26.410  54.920  1.00  0.00     0.019 A 
HETATM   27  H   UNL     1       8.365  23.870  58.101  1.00  0.00     0.165 HD
ENDBRANCH   2  18
TORSDOF 6
ENDMDL
