MODEL 1
REMARK VINA RESULT:     -10.2      0.000      0.000
REMARK  4 active torsions:
REMARK  status: ('A' for Active; 'I' for Inactive)
REMARK    1  A    between atoms: C_2  and  C_3 
REMARK    2  A    between atoms: C_8  and  N_9 
REMARK       I    between atoms: N_9  and  C_10 
REMARK       I    between atoms: C_10  and  N_11 
REMARK    3  A    between atoms: N_11  and  C_12 
REMARK    4  A    between atoms: C_12  and  C_13 
ROOT
HETATM    1  N   UNL     1       8.201  29.030  57.964  1.00  0.00    -0.305 N 
HETATM    2  C   UNL     1       8.015  28.451  56.734  1.00  0.00     0.321 C 
HETATM    3  N   UNL     1       7.243  27.308  56.822  1.00  0.00    -0.339 N 
HETATM    4  O   UNL     1       8.465  28.843  55.667  1.00  0.00    -0.247 OA
HETATM    5  H   UNL     1       7.942  28.471  58.763  1.00  0.00     0.171 HD
HETATM    6  H   UNL     1       6.547  27.294  57.553  1.00  0.00     0.164 HD
ENDROOT
BRANCH   3   7
HETATM    7  C   UNL     1       6.868  26.646  55.589  1.00  0.00     0.162 C 
BRANCH   7   8
HETATM    8  C   UNL     1       7.347  25.221  55.527  1.00  0.00    -0.040 A 
HETATM    9  C   UNL     1       7.375  24.526  54.306  1.00  0.00     0.021 A 
HETATM   10  C   UNL     1       7.728  23.167  54.248  1.00  0.00    -0.025 A 
HETATM   11  C   UNL     1       8.061  22.486  55.440  1.00  0.00    -0.026 A 
HETATM   12  C   UNL     1       7.739  22.464  53.032  1.00  0.00     0.012 A 
HETATM   13  C   UNL     1       8.045  23.186  56.655  1.00  0.00     0.013 A 
HETATM   14  C   UNL     1       8.387  21.121  55.386  1.00  0.00     0.012 A 
HETATM   15  C   UNL     1       7.689  24.537  56.699  1.00  0.00     0.010 A 
HETATM   16  C   UNL     1       8.387  20.436  54.171  1.00  0.00     0.001 A 
HETATM   17  C   UNL     1       8.066  21.107  52.995  1.00  0.00     0.001 A 
ENDBRANCH   7   8
ENDBRANCH   3   7
BRANCH   1  18
HETATM   18  C   UNL     1       8.850  30.232  58.227  1.00  0.00     0.095 A 
HETATM   19  C   UNL     1       8.227  31.305  58.837  1.00  0.00     0.107 A 
HETATM   20  O   UNL     1       9.097  32.341  58.940  1.00  0.00    -0.215 OA
HETATM   21  N   UNL     1      10.312  31.979  58.413  1.00  0.00    -0.131 NA
HETATM   22  C   UNL     1      10.171  30.717  57.980  1.00  0.00     0.087 A 
HETATM   23  C   UNL     1      11.346  30.079  57.340  1.00  0.00     0.075 C 
BRANCH  19  24
HETATM   24  C   UNL     1       6.870  31.570  59.375  1.00  0.00     0.065 C 
HETATM   25  C   UNL     1       6.926  32.326  60.693  1.00  0.00     0.012 C 
ENDBRANCH  19  24
ENDBRANCH   1  18
TORSDOF 4
ENDMDL
MODEL 2
REMARK VINA RESULT:     -10.0      1.164      2.838
REMARK  4 active torsions:
REMARK  status: ('A' for Active; 'I' for Inactive)
REMARK    1  A    between atoms: C_2  and  C_3 
REMARK    2  A    between atoms: C_8  and  N_9 
REMARK       I    between atoms: N_9  and  C_10 
REMARK       I    between atoms: C_10  and  N_11 
REMARK    3  A    between atoms: N_11  and  C_12 
REMARK    4  A    between atoms: C_12  and  C_13 
ROOT
HETATM    1  N   UNL     1       8.018  29.195  58.400  1.00  0.00    -0.305 N 
HETATM    2  C   UNL     1       7.164  28.894  57.370  1.00  0.00     0.321 C 
HETATM    3  N   UNL     1       6.638  27.623  57.501  1.00  0.00    -0.339 N 
HETATM    4  O   UNL     1       6.881  29.614  56.423  1.00  0.00    -0.247 OA
HETATM    5  H   UNL     1       8.303  28.423  58.983  1.00  0.00     0.171 HD
HETATM    6  H   UNL     1       6.510  27.286  58.443  1.00  0.00     0.164 HD
ENDROOT
BRANCH   3   7
HETATM    7  C   UNL     1       5.634  27.203  56.545  1.00  0.00     0.162 C 
BRANCH   7   8
HETATM    8  C   UNL     1       6.082  26.035  55.707  1.00  0.00    -0.040 A 
HETATM    9  C   UNL     1       7.146  25.219  56.124  1.00  0.00     0.021 A 
HETATM   10  C   UNL     1       7.637  24.186  55.308  1.00  0.00    -0.025 A 
HETATM   11  C   UNL     1       7.049  23.964  54.043  1.00  0.00    -0.026 A 
HETATM   12  C   UNL     1       8.712  23.378  55.714  1.00  0.00     0.012 A 
HETATM   13  C   UNL     1       5.978  24.773  53.634  1.00  0.00     0.013 A 
HETATM   14  C   UNL     1       7.556  22.949  53.215  1.00  0.00     0.012 A 
HETATM   15  C   UNL     1       5.502  25.798  54.455  1.00  0.00     0.010 A 
HETATM   16  C   UNL     1       8.630  22.161  53.630  1.00  0.00     0.001 A 
HETATM   17  C   UNL     1       9.205  22.373  54.879  1.00  0.00     0.001 A 
ENDBRANCH   7   8
ENDBRANCH   3   7
BRANCH   1  18
HETATM   18  C   UNL     1       8.649  30.414  58.628  1.00  0.00     0.095 A 
HETATM   19  C   UNL     1       9.902  30.717  58.128  1.00  0.00     0.107 A 
HETATM   20  O   UNL     1      10.266  31.961  58.531  1.00  0.00    -0.215 OA
HETATM   21  N   UNL     1       9.267  32.511  59.294  1.00  0.00    -0.131 NA
HETATM   22  C   UNL     1       8.294  31.589  59.360  1.00  0.00     0.087 A 
HETATM   23  C   UNL     1       7.087  31.923  60.152  1.00  0.00     0.075 C 
BRANCH  19  24
HETATM   24  C   UNL     1      10.902  30.012  57.291  1.00  0.00     0.065 C 
HETATM   25  C   UNL     1      10.373  29.741  55.891  1.00  0.00     0.012 C 
ENDBRANCH  19  24
ENDBRANCH   1  18
TORSDOF 4
ENDMDL
MODEL 3
REMARK VINA RESULT:     -10.0      0.994      1.855
REMARK  4 active torsions:
REMARK  status: ('A' for Active; 'I' for Inactive)
REMARK    1  A    between atoms: C_2  and  C_3 
REMARK    2  A    between atoms: C_8  and  N_9 
REMARK       I    between atoms: N_9  and  C_10 
REMARK       I    between atoms: C_10  and  N_11 
REMARK    3  A    between atoms: N_11  and  C_12 
REMARK    4  A    between atoms: C_12  and  C_13 
ROOT
HETATM    1  N   UNL     1       8.036  29.090  58.174  1.00  0.00    -0.305 N 
HETATM    2  C   UNL     1       7.260  28.778  57.088  1.00  0.00     0.321 C 
HETATM    3  N   UNL     1       6.557  27.605  57.286  1.00  0.00    -0.339 N 
HETATM    4  O   UNL     1       7.176  29.410  56.044  1.00  0.00    -0.247 OA
HETATM    5  H   UNL     1       8.153  28.363  58.863  1.00  0.00     0.171 HD
HETATM    6  H   UNL     1       6.288  27.400  58.237  1.00  0.00     0.164 HD
ENDROOT
BRANCH   3   7
HETATM    7  C   UNL     1       5.608  27.202  56.267  1.00  0.00     0.162 C 
BRANCH   7   8
HETATM    8  C   UNL     1       6.071  26.002  55.485  1.00  0.00    -0.040 A 
HETATM    9  C   UNL     1       7.141  25.216  55.943  1.00  0.00     0.021 A 
HETATM   10  C   UNL     1       7.645  24.152  55.177  1.00  0.00    -0.025 A 
HETATM   11  C   UNL     1       7.064  23.867  53.921  1.00  0.00    -0.026 A 
HETATM   12  C   UNL     1       8.727  23.374  55.623  1.00  0.00     0.012 A 
HETATM   13  C   UNL     1       5.987  24.645  53.472  1.00  0.00     0.013 A 
HETATM   14  C   UNL     1       7.585  22.820  53.142  1.00  0.00     0.012 A 
HETATM   15  C   UNL     1       5.498  25.702  54.244  1.00  0.00     0.010 A 
HETATM   16  C   UNL     1       8.664  22.062  53.597  1.00  0.00     0.001 A 
HETATM   17  C   UNL     1       9.233  22.337  54.837  1.00  0.00     0.001 A 
ENDBRANCH   7   8
ENDBRANCH   3   7
BRANCH   1  18
HETATM   18  C   UNL     1       8.800  30.241  58.347  1.00  0.00     0.095 A 
HETATM   19  C   UNL     1       8.330  31.363  59.004  1.00  0.00     0.107 A 
HETATM   20  O   UNL     1       9.284  32.329  58.997  1.00  0.00    -0.215 OA
HETATM   21  N   UNL     1      10.402  31.870  58.347  1.00  0.00    -0.131 NA
HETATM   22  C   UNL     1      10.119  30.620  57.951  1.00  0.00     0.087 A 
HETATM   23  C   UNL     1      11.165  29.888  57.199  1.00  0.00     0.075 C 
BRANCH  19  24
HETATM   24  C   UNL     1       7.065  31.737  59.681  1.00  0.00     0.065 C 
HETATM   25  C   UNL     1       5.967  32.067  58.681  1.00  0.00     0.012 C 
ENDBRANCH  19  24
ENDBRANCH   1  18
TORSDOF 4
ENDMDL
MODEL 4
REMARK VINA RESULT:      -9.5      1.182      2.306
REMARK  4 active torsions:
REMARK  status: ('A' for Active; 'I' for Inactive)
REMARK    1  A    between atoms: C_2  and  C_3 
REMARK    2  A    between atoms: C_8  and  N_9 
REMARK       I    between atoms: N_9  and  C_10 
REMARK       I    between atoms: C_10  and  N_11 
REMARK    3  A    between atoms: N_11  and  C_12 
REMARK    4  A    between atoms: C_12  and  C_13 
ROOT
HETATM    1  N   UNL     1       7.161  28.882  57.756  1.00  0.00    -0.305 N 
HETATM    2  C   UNL     1       7.290  28.394  56.480  1.00  0.00     0.321 C 
HETATM    3  N   UNL     1       7.112  27.024  56.440  1.00  0.00    -0.339 N 
HETATM    4  O   UNL     1       7.547  29.040  55.474  1.00  0.00    -0.247 OA
HETATM    5  H   UNL     1       7.157  28.197  58.496  1.00  0.00     0.171 HD
HETATM    6  H   UNL     1       6.476  26.636  57.120  1.00  0.00     0.164 HD
ENDROOT
BRANCH   3   7
HETATM    7  C   UNL     1       7.111  26.379  55.142  1.00  0.00     0.162 C 
BRANCH   7   8
HETATM    8  C   UNL     1       7.601  24.957  55.201  1.00  0.00    -0.040 A 
HETATM    9  C   UNL     1       7.578  24.143  54.057  1.00  0.00     0.021 A 
HETATM   10  C   UNL     1       7.942  22.787  54.118  1.00  0.00    -0.025 A 
HETATM   11  C   UNL     1       8.339  22.232  55.355  1.00  0.00    -0.026 A 
HETATM   12  C   UNL     1       7.903  21.964  52.980  1.00  0.00     0.012 A 
HETATM   13  C   UNL     1       8.374  23.051  56.493  1.00  0.00     0.013 A 
HETATM   14  C   UNL     1       8.677  20.871  55.424  1.00  0.00     0.012 A 
HETATM   15  C   UNL     1       8.007  24.397  56.418  1.00  0.00     0.010 A 
HETATM   16  C   UNL     1       8.626  20.066  54.285  1.00  0.00     0.001 A 
HETATM   17  C   UNL     1       8.242  20.613  53.064  1.00  0.00     0.001 A 
ENDBRANCH   7   8
ENDBRANCH   3   7
BRANCH   1  18
HETATM   18  C   UNL     1       7.192  30.219  58.142  1.00  0.00     0.095 A 
HETATM   19  C   UNL     1       8.354  30.864  58.524  1.00  0.00     0.107 A 
HETATM   20  O   UNL     1       8.073  32.147  58.865  1.00  0.00    -0.215 OA
HETATM   21  N   UNL     1       6.729  32.383  58.712  1.00  0.00    -0.131 NA
HETATM   22  C   UNL     1       6.193  31.230  58.282  1.00  0.00     0.087 A 
HETATM   23  C   UNL     1       4.730  31.201  58.050  1.00  0.00     0.075 C 
BRANCH  19  24
HETATM   24  C   UNL     1       9.782  30.481  58.646  1.00  0.00     0.065 C 
HETATM   25  C   UNL     1      10.457  30.388  57.287  1.00  0.00     0.012 C 
ENDBRANCH  19  24
ENDBRANCH   1  18
TORSDOF 4
ENDMDL
MODEL 5
REMARK VINA RESULT:      -9.4      1.432      2.894
REMARK  4 active torsions:
REMARK  status: ('A' for Active; 'I' for Inactive)
REMARK    1  A    between atoms: C_2  and  C_3 
REMARK    2  A    between atoms: C_8  and  N_9 
REMARK       I    between atoms: N_9  and  C_10 
REMARK       I    between atoms: C_10  and  N_11 
REMARK    3  A    between atoms: N_11  and  C_12 
REMARK    4  A    between atoms: C_12  and  C_13 
ROOT
HETATM    1  N   UNL     1       7.165  28.568  57.076  1.00  0.00    -0.305 N 
HETATM    2  C   UNL     1       7.513  28.209  55.798  1.00  0.00     0.321 C 
HETATM    3  N   UNL     1       7.215  26.884  55.544  1.00  0.00    -0.339 N 
HETATM    4  O   UNL     1       8.039  28.924  54.957  1.00  0.00    -0.247 OA
HETATM    5  H   UNL     1       6.938  27.813  57.704  1.00  0.00     0.171 HD
HETATM    6  H   UNL     1       6.415  26.505  56.027  1.00  0.00     0.164 HD
ENDROOT
BRANCH   3   7
HETATM    7  C   UNL     1       7.426  26.388  54.199  1.00  0.00     0.162 C 
BRANCH   7   8
HETATM    8  C   UNL     1       7.575  24.891  54.148  1.00  0.00    -0.040 A 
HETATM    9  C   UNL     1       7.807  24.153  55.321  1.00  0.00     0.021 A 
HETATM   10  C   UNL     1       8.043  22.769  55.277  1.00  0.00    -0.025 A 
HETATM   11  C   UNL     1       8.047  22.106  54.030  1.00  0.00    -0.026 A 
HETATM   12  C   UNL     1       8.294  22.030  56.446  1.00  0.00     0.012 A 
HETATM   13  C   UNL     1       7.802  22.843  52.862  1.00  0.00     0.013 A 
HETATM   14  C   UNL     1       8.310  20.727  53.982  1.00  0.00     0.012 A 
HETATM   15  C   UNL     1       7.571  24.220  52.920  1.00  0.00     0.010 A 
HETATM   16  C   UNL     1       8.564  20.009  55.152  1.00  0.00     0.001 A 
HETATM   17  C   UNL     1       8.553  20.659  56.382  1.00  0.00     0.001 A 
ENDBRANCH   7   8
ENDBRANCH   3   7
BRANCH   1  18
HETATM   18  C   UNL     1       7.244  29.841  57.632  1.00  0.00     0.095 A 
HETATM   19  C   UNL     1       8.423  30.378  58.115  1.00  0.00     0.107 A 
HETATM   20  O   UNL     1       8.188  31.618  58.615  1.00  0.00    -0.215 OA
HETATM   21  N   UNL     1       6.860  31.932  58.470  1.00  0.00    -0.131 NA
HETATM   22  C   UNL     1       6.285  30.870  57.885  1.00  0.00     0.087 A 
HETATM   23  C   UNL     1       4.828  30.937  57.624  1.00  0.00     0.075 C 
BRANCH  19  24
HETATM   24  C   UNL     1       9.830  29.919  58.212  1.00  0.00     0.065 C 
HETATM   25  C   UNL     1      10.603  30.201  56.933  1.00  0.00     0.012 C 
ENDBRANCH  19  24
ENDBRANCH   1  18
TORSDOF 4
ENDMDL
MODEL 6
REMARK VINA RESULT:      -9.1      1.363      1.579
REMARK  4 active torsions:
REMARK  status: ('A' for Active; 'I' for Inactive)
REMARK    1  A    between atoms: C_2  and  C_3 
REMARK    2  A    between atoms: C_8  and  N_9 
REMARK       I    between atoms: N_9  and  C_10 
REMARK       I    between atoms: C_10  and  N_11 
REMARK    3  A    between atoms: N_11  and  C_12 
REMARK    4  A    between atoms: C_12  and  C_13 
ROOT
HETATM    1  N   UNL     1       6.762  28.987  57.513  1.00  0.00    -0.305 N 
HETATM    2  C   UNL     1       7.281  28.474  56.352  1.00  0.00     0.321 C 
HETATM    3  N   UNL     1       6.749  27.232  56.062  1.00  0.00    -0.339 N 
HETATM    4  O   UNL     1       8.122  28.997  55.635  1.00  0.00    -0.247 OA
HETATM    5  H   UNL     1       6.240  28.345  58.090  1.00  0.00     0.171 HD
HETATM    6  H   UNL     1       5.799  27.071  56.363  1.00  0.00     0.164 HD
ENDROOT
BRANCH   3   7
HETATM    7  C   UNL     1       7.121  26.611  54.807  1.00  0.00     0.162 C 
BRANCH   7   8
HETATM    8  C   UNL     1       7.567  25.183  54.975  1.00  0.00    -0.040 A 
HETATM    9  C   UNL     1       7.540  24.290  53.892  1.00  0.00     0.021 A 
HETATM   10  C   UNL     1       7.862  22.933  54.056  1.00  0.00    -0.025 A 
HETATM   11  C   UNL     1       8.222  22.457  55.337  1.00  0.00    -0.026 A 
HETATM   12  C   UNL     1       7.818  22.032  52.979  1.00  0.00     0.012 A 
HETATM   13  C   UNL     1       8.261  23.354  56.414  1.00  0.00     0.013 A 
HETATM   14  C   UNL     1       8.518  21.095  55.508  1.00  0.00     0.012 A 
HETATM   15  C   UNL     1       7.936  24.701  56.237  1.00  0.00     0.010 A 
HETATM   16  C   UNL     1       8.463  20.212  54.428  1.00  0.00     0.001 A 
HETATM   17  C   UNL     1       8.116  20.681  53.165  1.00  0.00     0.001 A 
ENDBRANCH   7   8
ENDBRANCH   3   7
BRANCH   1  18
HETATM   18  C   UNL     1       7.010  30.247  58.049  1.00  0.00     0.095 A 
HETATM   19  C   UNL     1       6.032  31.216  58.175  1.00  0.00     0.107 A 
HETATM   20  O   UNL     1       6.571  32.342  58.707  1.00  0.00    -0.215 OA
HETATM   21  N   UNL     1       7.907  32.145  58.952  1.00  0.00    -0.131 NA
HETATM   22  C   UNL     1       8.179  30.892  58.558  1.00  0.00     0.087 A 
HETATM   23  C   UNL     1       9.577  30.419  58.697  1.00  0.00     0.075 C 
BRANCH  19  24
HETATM   24  C   UNL     1       4.584  31.301  57.863  1.00  0.00     0.065 C 
HETATM   25  C   UNL     1       3.805  31.971  58.984  1.00  0.00     0.012 C 
ENDBRANCH  19  24
ENDBRANCH   1  18
TORSDOF 4
ENDMDL
MODEL 7
REMARK VINA RESULT:      -9.0      5.119      7.622
REMARK  4 active torsions:
REMARK  status: ('A' for Active; 'I' for Inactive)
REMARK    1  A    between atoms: C_2  and  C_3 
REMARK    2  A    between atoms: C_8  and  N_9 
REMARK       I    between atoms: N_9  and  C_10 
REMARK       I    between atoms: C_10  and  N_11 
REMARK    3  A    between atoms: N_11  and  C_12 
REMARK    4  A    between atoms: C_12  and  C_13 
ROOT
HETATM    1  N   UNL     1       4.213  27.222  51.014  1.00  0.00    -0.305 N 
HETATM    2  C   UNL     1       5.225  27.488  51.901  1.00  0.00     0.321 C 
HETATM    3  N   UNL     1       5.444  26.425  52.756  1.00  0.00    -0.339 N 
HETATM    4  O   UNL     1       5.872  28.522  51.981  1.00  0.00    -0.247 OA
HETATM    5  H   UNL     1       3.645  26.413  51.215  1.00  0.00     0.171 HD
HETATM    6  H   UNL     1       5.262  25.505  52.382  1.00  0.00     0.164 HD
ENDROOT
BRANCH   3   7
HETATM    7  C   UNL     1       6.556  26.515  53.679  1.00  0.00     0.162 C 
BRANCH   7   8
HETATM    8  C   UNL     1       6.998  25.170  54.191  1.00  0.00    -0.040 A 
HETATM    9  C   UNL     1       7.313  24.132  53.299  1.00  0.00     0.021 A 
HETATM   10  C   UNL     1       7.634  22.845  53.761  1.00  0.00    -0.025 A 
HETATM   11  C   UNL     1       7.639  22.590  55.151  1.00  0.00    -0.026 A 
HETATM   12  C   UNL     1       7.933  21.798  52.873  1.00  0.00     0.012 A 
HETATM   13  C   UNL     1       7.336  23.632  56.040  1.00  0.00     0.013 A 
HETATM   14  C   UNL     1       7.932  21.296  55.614  1.00  0.00     0.012 A 
HETATM   15  C   UNL     1       7.016  24.907  55.565  1.00  0.00     0.010 A 
HETATM   16  C   UNL     1       8.220  20.267  54.717  1.00  0.00     0.001 A 
HETATM   17  C   UNL     1       8.223  20.518  53.348  1.00  0.00     0.001 A 
ENDBRANCH   7   8
ENDBRANCH   3   7
BRANCH   1  18
HETATM   18  C   UNL     1       3.793  28.033  49.964  1.00  0.00     0.095 A 
HETATM   19  C   UNL     1       3.876  27.650  48.638  1.00  0.00     0.107 A 
HETATM   20  O   UNL     1       3.416  28.649  47.844  1.00  0.00    -0.215 OA
HETATM   21  N   UNL     1       3.012  29.707  48.619  1.00  0.00    -0.131 NA
HETATM   22  C   UNL     1       3.237  29.347  49.892  1.00  0.00     0.087 A 
HETATM   23  C   UNL     1       2.902  30.329  50.950  1.00  0.00     0.075 C 
BRANCH  19  24
HETATM   24  C   UNL     1       4.345  26.441  47.917  1.00  0.00     0.065 C 
HETATM   25  C   UNL     1       3.188  25.543  47.512  1.00  0.00     0.012 C 
ENDBRANCH  19  24
ENDBRANCH   1  18
TORSDOF 4
ENDMDL
MODEL 8
REMARK VINA RESULT:      -8.6      3.204      4.578
REMARK  4 active torsions:
REMARK  status: ('A' for Active; 'I' for Inactive)
REMARK    1  A    between atoms: C_2  and  C_3 
REMARK    2  A    between atoms: C_8  and  N_9 
REMARK       I    between atoms: N_9  and  C_10 
REMARK       I    between atoms: C_10  and  N_11 
REMARK    3  A    between atoms: N_11  and  C_12 
REMARK    4  A    between atoms: C_12  and  C_13 
ROOT
HETATM    1  N   UNL     1       4.668  28.035  56.824  1.00  0.00    -0.305 N 
HETATM    2  C   UNL     1       5.977  27.658  56.667  1.00  0.00     0.321 C 
HETATM    3  N   UNL     1       6.221  26.421  57.232  1.00  0.00    -0.339 N 
HETATM    4  O   UNL     1       6.862  28.302  56.121  1.00  0.00    -0.247 OA
HETATM    5  H   UNL     1       4.122  27.490  57.475  1.00  0.00     0.171 HD
HETATM    6  H   UNL     1       5.452  25.768  57.228  1.00  0.00     0.164 HD
ENDROOT
BRANCH   3   7
HETATM    7  C   UNL     1       7.536  25.840  57.051  1.00  0.00     0.162 C 
BRANCH   7   8
HETATM    8  C   UNL     1       7.568  24.804  55.959  1.00  0.00    -0.040 A 
HETATM    9  C   UNL     1       7.718  23.442  56.267  1.00  0.00     0.021 A 
HETATM   10  C   UNL     1       7.846  22.475  55.256  1.00  0.00    -0.025 A 
HETATM   11  C   UNL     1       7.824  22.881  53.903  1.00  0.00    -0.026 A 
HETATM   12  C   UNL     1       8.014  21.114  55.559  1.00  0.00     0.012 A 
HETATM   13  C   UNL     1       7.661  24.240  53.598  1.00  0.00     0.013 A 
HETATM   14  C   UNL     1       7.979  21.919  52.892  1.00  0.00     0.012 A 
HETATM   15  C   UNL     1       7.537  25.192  54.614  1.00  0.00     0.010 A 
HETATM   16  C   UNL     1       8.152  20.571  53.211  1.00  0.00     0.001 A 
HETATM   17  C   UNL     1       8.167  20.169  54.543  1.00  0.00     0.001 A 
ENDBRANCH   7   8
ENDBRANCH   3   7
BRANCH   1  18
HETATM   18  C   UNL     1       4.062  29.175  56.303  1.00  0.00     0.095 A 
HETATM   19  C   UNL     1       3.767  29.322  54.961  1.00  0.00     0.107 A 
HETATM   20  O   UNL     1       3.204  30.539  54.748  1.00  0.00    -0.215 OA
HETATM   21  N   UNL     1       3.107  31.218  55.937  1.00  0.00    -0.131 NA
HETATM   22  C   UNL     1       3.622  30.408  56.874  1.00  0.00     0.087 A 
HETATM   23  C   UNL     1       3.657  30.911  58.268  1.00  0.00     0.075 C 
BRANCH  19  24
HETATM   24  C   UNL     1       3.928  28.485  53.747  1.00  0.00     0.065 C 
HETATM   25  C   UNL     1       5.243  28.768  53.039  1.00  0.00     0.012 C 
ENDBRANCH  19  24
ENDBRANCH   1  18
TORSDOF 4
ENDMDL
MODEL 9
REMARK VINA RESULT:      -8.4      3.841      4.862
REMARK  4 active torsions:
REMARK  status: ('A' for Active; 'I' for Inactive)
REMARK    1  A    between atoms: C_2  and  C_3 
REMARK    2  A    between atoms: C_8  and  N_9 
REMARK       I    between atoms: N_9  and  C_10 
REMARK       I    between atoms: C_10  and  N_11 
REMARK    3  A    between atoms: N_11  and  C_12 
REMARK    4  A    between atoms: C_12  and  C_13 
ROOT
HETATM    1  N   UNL     1       5.829  28.669  53.932  1.00  0.00    -0.305 N 
HETATM    2  C   UNL     1       5.661  27.465  53.296  1.00  0.00     0.321 C 
HETATM    3  N   UNL     1       6.863  26.959  52.841  1.00  0.00    -0.339 N 
HETATM    4  O   UNL     1       4.604  26.878  53.111  1.00  0.00    -0.247 OA
HETATM    5  H   UNL     1       6.727  29.112  53.816  1.00  0.00     0.171 HD
HETATM    6  H   UNL     1       7.680  27.188  53.387  1.00  0.00     0.164 HD
ENDROOT
BRANCH   3   7
HETATM    7  C   UNL     1       6.861  25.639  52.243  1.00  0.00     0.162 C 
BRANCH   7   8
HETATM    8  C   UNL     1       7.227  24.557  53.223  1.00  0.00    -0.040 A 
HETATM    9  C   UNL     1       7.730  23.324  52.776  1.00  0.00     0.021 A 
HETATM   10  C   UNL     1       7.986  22.272  53.671  1.00  0.00    -0.025 A 
HETATM   11  C   UNL     1       7.732  22.457  55.048  1.00  0.00    -0.026 A 
HETATM   12  C   UNL     1       8.472  21.031  53.226  1.00  0.00     0.012 A 
HETATM   13  C   UNL     1       7.242  23.694  55.494  1.00  0.00     0.013 A 
HETATM   14  C   UNL     1       7.961  21.397  55.941  1.00  0.00     0.012 A 
HETATM   15  C   UNL     1       6.990  24.731  54.592  1.00  0.00     0.010 A 
HETATM   16  C   UNL     1       8.438  20.169  55.481  1.00  0.00     0.001 A 
HETATM   17  C   UNL     1       8.695  19.987  54.125  1.00  0.00     0.001 A 
ENDBRANCH   7   8
ENDBRANCH   3   7
BRANCH   1  18
HETATM   18  C   UNL     1       4.847  29.409  54.583  1.00  0.00     0.095 A 
HETATM   19  C   UNL     1       3.975  30.252  53.919  1.00  0.00     0.107 A 
HETATM   20  O   UNL     1       3.150  30.852  54.813  1.00  0.00    -0.215 OA
HETATM   21  N   UNL     1       3.448  30.420  56.081  1.00  0.00    -0.131 NA
HETATM   22  C   UNL     1       4.467  29.556  55.953  1.00  0.00     0.087 A 
HETATM   23  C   UNL     1       5.005  28.944  57.191  1.00  0.00     0.075 C 
BRANCH  19  24
HETATM   24  C   UNL     1       3.753  30.637  52.504  1.00  0.00     0.065 C 
HETATM   25  C   UNL     1       2.973  29.573  51.747  1.00  0.00     0.012 C 
ENDBRANCH  19  24
ENDBRANCH   1  18
TORSDOF 4
ENDMDL
MODEL 10
REMARK VINA RESULT:      -8.3      4.085      6.484
REMARK  4 active torsions:
REMARK  status: ('A' for Active; 'I' for Inactive)
REMARK    1  A    between atoms: C_2  and  C_3 
REMARK    2  A    between atoms: C_8  and  N_9 
REMARK       I    between atoms: N_9  and  C_10 
REMARK       I    between atoms: C_10  and  N_11 
REMARK    3  A    between atoms: N_11  and  C_12 
REMARK    4  A    between atoms: C_12  and  C_13 
ROOT
HETATM    1  N   UNL     1       6.796  31.215  62.055  1.00  0.00    -0.305 N 
HETATM    2  C   UNL     1       7.777  31.570  61.165  1.00  0.00     0.321 C 
HETATM    3  N   UNL     1       8.467  30.466  60.701  1.00  0.00    -0.339 N 
HETATM    4  O   UNL     1       8.059  32.704  60.805  1.00  0.00    -0.247 OA
HETATM    5  H   UNL     1       6.830  30.268  62.402  1.00  0.00     0.171 HD
HETATM    6  H   UNL     1       7.943  29.607  60.634  1.00  0.00     0.164 HD
ENDROOT
BRANCH   3   7
HETATM    7  C   UNL     1       9.463  30.674  59.670  1.00  0.00     0.162 C 
BRANCH   7   8
HETATM    8  C   UNL     1       9.051  30.099  58.341  1.00  0.00    -0.040 A 
HETATM    9  C   UNL     1       7.802  29.477  58.184  1.00  0.00     0.021 A 
HETATM   10  C   UNL     1       7.443  28.853  56.978  1.00  0.00    -0.025 A 
HETATM   11  C   UNL     1       8.358  28.851  55.901  1.00  0.00    -0.026 A 
HETATM   12  C   UNL     1       6.202  28.213  56.823  1.00  0.00     0.012 A 
HETATM   13  C   UNL     1       9.599  29.484  56.056  1.00  0.00     0.013 A 
HETATM   14  C   UNL     1       8.012  28.204  54.704  1.00  0.00     0.012 A 
HETATM   15  C   UNL     1       9.944  30.099  57.262  1.00  0.00     0.010 A 
HETATM   16  C   UNL     1       6.777  27.567  54.569  1.00  0.00     0.001 A 
HETATM   17  C   UNL     1       5.872  27.574  55.626  1.00  0.00     0.001 A 
ENDBRANCH   7   8
ENDBRANCH   3   7
BRANCH   1  18
HETATM   18  C   UNL     1       5.861  32.061  62.644  1.00  0.00     0.095 A 
HETATM   19  C   UNL     1       6.145  32.841  63.750  1.00  0.00     0.107 A 
HETATM   20  O   UNL     1       5.039  33.540  64.111  1.00  0.00    -0.215 OA
HETATM   21  N   UNL     1       4.006  33.248  63.256  1.00  0.00    -0.131 NA
HETATM   22  C   UNL     1       4.490  32.359  62.375  1.00  0.00     0.087 A 
HETATM   23  C   UNL     1       3.563  31.853  61.334  1.00  0.00     0.075 C 
BRANCH  19  24
HETATM   24  C   UNL     1       7.337  33.071  64.601  1.00  0.00     0.065 C 
HETATM   25  C   UNL     1       6.986  33.833  65.869  1.00  0.00     0.012 C 
ENDBRANCH  19  24
ENDBRANCH   1  18
TORSDOF 4
ENDMDL
