MODEL 1
REMARK VINA RESULT:      -9.8      0.000      0.000
REMARK  5 active torsions:
REMARK  status: ('A' for Active; 'I' for Inactive)
REMARK    1  A    between atoms: C_6  and  N_7 
REMARK       I    between atoms: N_7  and  C_8 
REMARK    2  A    between atoms: C_8  and  C_9 
REMARK    3  A    between atoms: C_9  and  C_10 
REMARK    4  A    between atoms: C_12  and  O_13 
REMARK    5  A    between atoms: C_19  and  C_20 
ROOT
HETATM    1  C   UNL     1       7.743  21.489  54.531  1.00  0.00     0.073 C 
HETATM    2  C   UNL     1       7.929  22.745  55.301  1.00  0.00     0.065 A 
HETATM    3  N   UNL     1       8.599  22.725  56.460  1.00  0.00    -0.177 NA
HETATM    4  N   UNL     1       8.582  24.005  56.866  1.00  0.00    -0.262 N 
HETATM    5  H   UNL     1       9.054  24.267  57.727  1.00  0.00     0.191 HD
HETATM    6  C   UNL     1       7.887  24.844  56.030  1.00  0.00     0.137 A 
HETATM    7  C   UNL     1       7.476  24.055  54.973  1.00  0.00     0.046 A 
ENDROOT
BRANCH   6   8
HETATM    8  N   UNL     1       7.698  26.192  56.275  1.00  0.00    -0.311 N 
HETATM    9  C   UNL     1       7.641  26.707  57.561  1.00  0.00     0.227 C 
HETATM   10  O   UNL     1       7.796  26.036  58.582  1.00  0.00    -0.273 OA
HETATM   11  H   UNL     1       7.651  26.818  55.480  1.00  0.00     0.170 HD
BRANCH   9  12
HETATM   12  C   UNL     1       7.291  28.181  57.608  1.00  0.00     0.141 C 
BRANCH  12  13
HETATM   13  C   UNL     1       8.433  29.175  57.639  1.00  0.00    -0.047 A 
HETATM   14  C   UNL     1       8.409  30.379  58.365  1.00  0.00     0.044 A 
HETATM   15  C   UNL     1       9.541  31.198  58.436  1.00  0.00     0.068 A 
HETATM   16  C   UNL     1      10.699  30.833  57.750  1.00  0.00     0.037 A 
HETATM   17  C   UNL     1      10.741  29.650  57.017  1.00  0.00     0.003 A 
HETATM   18  C   UNL     1       9.620  28.822  56.972  1.00  0.00     0.007 A 
BRANCH  15  19
HETATM   19  O   UNL     1       9.638  32.370  59.135  1.00  0.00    -0.356 OA
HETATM   20  C   UNL     1       9.104  32.381  60.453  1.00  0.00     0.210 C 
ENDBRANCH  15  19
ENDBRANCH  12  13
ENDBRANCH   9  12
ENDBRANCH   6   8
BRANCH   7  21
HETATM   21  C   UNL     1       6.809  24.548  53.786  1.00  0.00    -0.020 A 
HETATM   22  C   UNL     1       7.565  24.859  52.648  1.00  0.00     0.014 A 
HETATM   23  C   UNL     1       6.944  25.364  51.504  1.00  0.00     0.020 A 
HETATM   24  C   UNL     1       5.565  25.558  51.498  1.00  0.00     0.011 A 
HETATM   25 BR   UNL     1       4.725  26.253  49.953  1.00  0.00    -0.051 Br
HETATM   26  C   UNL     1       4.800  25.246  52.620  1.00  0.00     0.020 A 
HETATM   27  C   UNL     1       5.421  24.736  53.764  1.00  0.00     0.014 A 
ENDBRANCH   7  21
TORSDOF 5
ENDMDL
MODEL 2
REMARK VINA RESULT:      -9.4      2.406      3.693
REMARK  5 active torsions:
REMARK  status: ('A' for Active; 'I' for Inactive)
REMARK    1  A    between atoms: C_6  and  N_7 
REMARK       I    between atoms: N_7  and  C_8 
REMARK    2  A    between atoms: C_8  and  C_9 
REMARK    3  A    between atoms: C_9  and  C_10 
REMARK    4  A    between atoms: C_12  and  O_13 
REMARK    5  A    between atoms: C_19  and  C_20 
ROOT
HETATM    1  C   UNL     1       5.396  26.511  50.850  1.00  0.00     0.073 C 
HETATM    2  C   UNL     1       5.897  27.153  52.092  1.00  0.00     0.065 A 
HETATM    3  N   UNL     1       5.680  28.456  52.305  1.00  0.00    -0.177 NA
HETATM    4  N   UNL     1       6.249  28.688  53.500  1.00  0.00    -0.262 N 
HETATM    5  H   UNL     1       6.200  29.617  53.909  1.00  0.00     0.191 HD
HETATM    6  C   UNL     1       6.863  27.589  54.046  1.00  0.00     0.137 A 
HETATM    7  C   UNL     1       6.620  26.554  53.163  1.00  0.00     0.046 A 
ENDROOT
BRANCH   6   8
HETATM    8  N   UNL     1       7.554  27.608  55.244  1.00  0.00    -0.311 N 
HETATM    9  C   UNL     1       6.907  27.703  56.466  1.00  0.00     0.227 C 
HETATM   10  O   UNL     1       5.683  27.732  56.601  1.00  0.00    -0.273 OA
HETATM   11  H   UNL     1       8.561  27.498  55.215  1.00  0.00     0.170 HD
BRANCH   9  12
HETATM   12  C   UNL     1       7.852  27.845  57.643  1.00  0.00     0.141 C 
BRANCH  12  13
HETATM   13  C   UNL     1       8.718  29.085  57.706  1.00  0.00    -0.047 A 
HETATM   14  C   UNL     1       8.397  30.232  58.452  1.00  0.00     0.044 A 
HETATM   15  C   UNL     1       9.296  31.299  58.553  1.00  0.00     0.068 A 
HETATM   16  C   UNL     1      10.514  31.239  57.876  1.00  0.00     0.037 A 
HETATM   17  C   UNL     1      10.848  30.116  57.124  1.00  0.00     0.003 A 
HETATM   18  C   UNL     1       9.961  29.043  57.048  1.00  0.00     0.007 A 
BRANCH  15  19
HETATM   19  O   UNL     1       9.101  32.445  59.273  1.00  0.00    -0.356 OA
HETATM   20  C   UNL     1       8.919  32.302  60.677  1.00  0.00     0.210 C 
ENDBRANCH  15  19
ENDBRANCH  12  13
ENDBRANCH   9  12
ENDBRANCH   6   8
BRANCH   7  21
HETATM   21  C   UNL     1       6.981  25.170  53.394  1.00  0.00    -0.020 A 
HETATM   22  C   UNL     1       6.649  24.564  54.613  1.00  0.00     0.014 A 
HETATM   23  C   UNL     1       7.015  23.241  54.866  1.00  0.00     0.020 A 
HETATM   24  C   UNL     1       7.715  22.523  53.900  1.00  0.00     0.011 A 
HETATM   25 BR   UNL     1       8.222  20.735  54.248  1.00  0.00    -0.051 Br
HETATM   26  C   UNL     1       8.046  23.111  52.681  1.00  0.00     0.020 A 
HETATM   27  C   UNL     1       7.676  24.435  52.425  1.00  0.00     0.014 A 
ENDBRANCH   7  21
TORSDOF 5
ENDMDL
MODEL 3
REMARK VINA RESULT:      -9.0      2.448      3.510
REMARK  5 active torsions:
REMARK  status: ('A' for Active; 'I' for Inactive)
REMARK    1  A    between atoms: C_6  and  N_7 
REMARK       I    between atoms: N_7  and  C_8 
REMARK    2  A    between atoms: C_8  and  C_9 
REMARK    3  A    between atoms: C_9  and  C_10 
REMARK    4  A    between atoms: C_12  and  O_13 
REMARK    5  A    between atoms: C_19  and  C_20 
ROOT
HETATM    1  C   UNL     1       7.683  20.520  52.925  1.00  0.00     0.073 C 
HETATM    2  C   UNL     1       8.236  21.329  54.041  1.00  0.00     0.065 A 
HETATM    3  N   UNL     1       9.008  20.748  54.968  1.00  0.00    -0.177 NA
HETATM    4  N   UNL     1       9.330  21.755  55.798  1.00  0.00    -0.262 N 
HETATM    5  H   UNL     1       9.942  21.578  56.589  1.00  0.00     0.191 HD
HETATM    6  C   UNL     1       8.758  22.956  55.461  1.00  0.00     0.137 A 
HETATM    7  C   UNL     1       8.062  22.720  54.292  1.00  0.00     0.046 A 
ENDROOT
BRANCH   6   8
HETATM    8  N   UNL     1       8.911  24.116  56.200  1.00  0.00    -0.311 N 
HETATM    9  C   UNL     1       7.878  24.652  56.953  1.00  0.00     0.227 C 
HETATM   10  O   UNL     1       6.766  24.135  57.069  1.00  0.00    -0.273 OA
HETATM   11  H   UNL     1       9.827  24.549  56.222  1.00  0.00     0.170 HD
BRANCH   9  12
HETATM   12  C   UNL     1       8.213  25.994  57.573  1.00  0.00     0.141 C 
BRANCH  12  13
HETATM   13  C   UNL     1       7.610  27.232  56.946  1.00  0.00    -0.047 A 
HETATM   14  C   UNL     1       6.896  27.232  55.734  1.00  0.00     0.044 A 
HETATM   15  C   UNL     1       6.272  28.394  55.268  1.00  0.00     0.068 A 
HETATM   16  C   UNL     1       6.386  29.577  55.998  1.00  0.00     0.037 A 
HETATM   17  C   UNL     1       7.095  29.601  57.196  1.00  0.00     0.003 A 
HETATM   18  C   UNL     1       7.693  28.435  57.671  1.00  0.00     0.007 A 
BRANCH  15  19
HETATM   19  O   UNL     1       5.529  28.500  54.124  1.00  0.00    -0.356 OA
HETATM   20  C   UNL     1       4.115  28.483  54.269  1.00  0.00     0.210 C 
ENDBRANCH  15  19
ENDBRANCH  12  13
ENDBRANCH   9  12
ENDBRANCH   6   8
BRANCH   7  21
HETATM   21  C   UNL     1       7.398  23.739  53.506  1.00  0.00    -0.020 A 
HETATM   22  C   UNL     1       6.076  24.091  53.808  1.00  0.00     0.014 A 
HETATM   23  C   UNL     1       5.407  25.049  53.044  1.00  0.00     0.020 A 
HETATM   24  C   UNL     1       6.062  25.656  51.974  1.00  0.00     0.011 A 
HETATM   25 BR   UNL     1       5.154  26.944  50.930  1.00  0.00    -0.051 Br
HETATM   26  C   UNL     1       7.379  25.320  51.667  1.00  0.00     0.020 A 
HETATM   27  C   UNL     1       8.050  24.365  52.436  1.00  0.00     0.014 A 
ENDBRANCH   7  21
TORSDOF 5
ENDMDL
MODEL 4
REMARK VINA RESULT:      -8.8      4.080      7.142
REMARK  5 active torsions:
REMARK  status: ('A' for Active; 'I' for Inactive)
REMARK    1  A    between atoms: C_6  and  N_7 
REMARK       I    between atoms: N_7  and  C_8 
REMARK    2  A    between atoms: C_8  and  C_9 
REMARK    3  A    between atoms: C_9  and  C_10 
REMARK    4  A    between atoms: C_12  and  O_13 
REMARK    5  A    between atoms: C_19  and  C_20 
ROOT
HETATM    1  C   UNL     1       3.511  29.186  51.894  1.00  0.00     0.073 C 
HETATM    2  C   UNL     1       4.379  28.066  51.450  1.00  0.00     0.065 A 
HETATM    3  N   UNL     1       4.261  27.581  50.207  1.00  0.00    -0.177 NA
HETATM    4  N   UNL     1       5.185  26.607  50.151  1.00  0.00    -0.262 N 
HETATM    5  H   UNL     1       5.318  26.089  49.287  1.00  0.00     0.191 HD
HETATM    6  C   UNL     1       5.865  26.418  51.328  1.00  0.00     0.137 A 
HETATM    7  C   UNL     1       5.386  27.383  52.191  1.00  0.00     0.046 A 
ENDROOT
BRANCH   6   8
HETATM    8  N   UNL     1       6.825  25.439  51.514  1.00  0.00    -0.311 N 
HETATM    9  C   UNL     1       6.645  24.390  52.402  1.00  0.00     0.227 C 
HETATM   10  O   UNL     1       5.620  24.208  53.059  1.00  0.00    -0.273 OA
HETATM   11  H   UNL     1       7.659  25.476  50.940  1.00  0.00     0.170 HD
BRANCH   9  12
HETATM   12  C   UNL     1       7.869  23.508  52.554  1.00  0.00     0.141 C 
BRANCH  12  13
HETATM   13  C   UNL     1       8.072  22.807  53.880  1.00  0.00    -0.047 A 
HETATM   14  C   UNL     1       8.351  23.471  55.087  1.00  0.00     0.044 A 
HETATM   15  C   UNL     1       8.418  22.768  56.295  1.00  0.00     0.068 A 
HETATM   16  C   UNL     1       8.239  21.385  56.298  1.00  0.00     0.037 A 
HETATM   17  C   UNL     1       7.971  20.706  55.112  1.00  0.00     0.003 A 
HETATM   18  C   UNL     1       7.878  21.414  53.914  1.00  0.00     0.007 A 
BRANCH  15  19
HETATM   19  O   UNL     1       8.651  23.315  57.527  1.00  0.00    -0.356 OA
HETATM   20  C   UNL     1       8.652  24.734  57.614  1.00  0.00     0.210 C 
ENDBRANCH  15  19
ENDBRANCH  12  13
ENDBRANCH   9  12
ENDBRANCH   6   8
BRANCH   7  21
HETATM   21  C   UNL     1       5.908  27.637  53.518  1.00  0.00    -0.020 A 
HETATM   22  C   UNL     1       5.099  27.395  54.636  1.00  0.00     0.014 A 
HETATM   23  C   UNL     1       5.572  27.662  55.922  1.00  0.00     0.020 A 
HETATM   24  C   UNL     1       6.857  28.173  56.091  1.00  0.00     0.011 A 
HETATM   25 BR   UNL     1       7.495  28.547  57.831  1.00  0.00    -0.051 Br
HETATM   26  C   UNL     1       7.675  28.412  54.988  1.00  0.00     0.020 A 
HETATM   27  C   UNL     1       7.203  28.140  53.700  1.00  0.00     0.014 A 
ENDBRANCH   7  21
TORSDOF 5
ENDMDL
MODEL 5
REMARK VINA RESULT:      -8.7      4.387      7.034
REMARK  5 active torsions:
REMARK  status: ('A' for Active; 'I' for Inactive)
REMARK    1  A    between atoms: C_6  and  N_7 
REMARK       I    between atoms: N_7  and  C_8 
REMARK    2  A    between atoms: C_8  and  C_9 
REMARK    3  A    between atoms: C_9  and  C_10 
REMARK    4  A    between atoms: C_12  and  O_13 
REMARK    5  A    between atoms: C_19  and  C_20 
ROOT
HETATM    1  C   UNL     1      10.207  29.792  55.544  1.00  0.00     0.073 C 
HETATM    2  C   UNL     1       9.936  30.209  56.943  1.00  0.00     0.065 A 
HETATM    3  N   UNL     1      10.629  31.218  57.486  1.00  0.00    -0.177 NA
HETATM    4  N   UNL     1      10.127  31.325  58.727  1.00  0.00    -0.262 N 
HETATM    5  H   UNL     1      10.474  32.049  59.350  1.00  0.00     0.191 HD
HETATM    6  C   UNL     1       9.163  30.392  59.019  1.00  0.00     0.137 A 
HETATM    7  C   UNL     1       8.988  29.666  57.857  1.00  0.00     0.046 A 
ENDROOT
BRANCH   6   8
HETATM    8  N   UNL     1       8.545  30.284  60.252  1.00  0.00    -0.311 N 
HETATM    9  C   UNL     1       8.339  31.382  61.073  1.00  0.00     0.227 C 
HETATM   10  O   UNL     1       8.639  32.537  60.770  1.00  0.00    -0.273 OA
HETATM   11  H   UNL     1       8.191  29.375  60.528  1.00  0.00     0.170 HD
BRANCH   9  12
HETATM   12  C   UNL     1       7.770  31.024  62.431  1.00  0.00     0.141 C 
BRANCH  12  13
HETATM   13  C   UNL     1       7.073  32.117  63.213  1.00  0.00    -0.047 A 
HETATM   14  C   UNL     1       5.682  32.323  63.208  1.00  0.00     0.044 A 
HETATM   15  C   UNL     1       5.095  33.283  64.040  1.00  0.00     0.068 A 
HETATM   16  C   UNL     1       5.903  34.069  64.862  1.00  0.00     0.037 A 
HETATM   17  C   UNL     1       7.283  33.887  64.875  1.00  0.00     0.003 A 
HETATM   18  C   UNL     1       7.862  32.911  64.065  1.00  0.00     0.007 A 
BRANCH  15  19
HETATM   19  O   UNL     1       3.756  33.545  64.139  1.00  0.00    -0.356 OA
HETATM   20  C   UNL     1       3.082  33.918  62.944  1.00  0.00     0.210 C 
ENDBRANCH  15  19
ENDBRANCH  12  13
ENDBRANCH   9  12
ENDBRANCH   6   8
BRANCH   7  21
HETATM   21  C   UNL     1       7.977  28.647  57.665  1.00  0.00    -0.020 A 
HETATM   22  C   UNL     1       8.361  27.303  57.566  1.00  0.00     0.014 A 
HETATM   23  C   UNL     1       7.405  26.309  57.350  1.00  0.00     0.020 A 
HETATM   24  C   UNL     1       6.063  26.659  57.233  1.00  0.00     0.011 A 
HETATM   25 BR   UNL     1       4.768  25.315  56.929  1.00  0.00    -0.051 Br
HETATM   26  C   UNL     1       5.665  27.991  57.337  1.00  0.00     0.020 A 
HETATM   27  C   UNL     1       6.622  28.986  57.558  1.00  0.00     0.014 A 
ENDBRANCH   7  21
TORSDOF 5
ENDMDL
MODEL 6
REMARK VINA RESULT:      -8.5      3.509      6.945
REMARK  5 active torsions:
REMARK  status: ('A' for Active; 'I' for Inactive)
REMARK    1  A    between atoms: C_6  and  N_7 
REMARK       I    between atoms: N_7  and  C_8 
REMARK    2  A    between atoms: C_8  and  C_9 
REMARK    3  A    between atoms: C_9  and  C_10 
REMARK    4  A    between atoms: C_12  and  O_13 
REMARK    5  A    between atoms: C_19  and  C_20 
ROOT
HETATM    1  C   UNL     1       4.702  31.764  55.540  1.00  0.00     0.073 C 
HETATM    2  C   UNL     1       4.807  30.449  56.222  1.00  0.00     0.065 A 
HETATM    3  N   UNL     1       4.774  30.386  57.559  1.00  0.00    -0.177 NA
HETATM    4  N   UNL     1       4.882  29.073  57.823  1.00  0.00    -0.262 N 
HETATM    5  H   UNL     1       4.857  28.750  58.787  1.00  0.00     0.191 HD
HETATM    6  C   UNL     1       5.027  28.291  56.705  1.00  0.00     0.137 A 
HETATM    7  C   UNL     1       4.946  29.159  55.634  1.00  0.00     0.046 A 
ENDROOT
BRANCH   6   8
HETATM    8  N   UNL     1       5.204  26.919  56.741  1.00  0.00    -0.311 N 
HETATM    9  C   UNL     1       6.459  26.341  56.848  1.00  0.00     0.227 C 
HETATM   10  O   UNL     1       7.507  26.977  56.964  1.00  0.00    -0.273 OA
HETATM   11  H   UNL     1       4.378  26.333  56.739  1.00  0.00     0.170 HD
BRANCH   9  12
HETATM   12  C   UNL     1       6.441  24.830  56.733  1.00  0.00     0.141 C 
BRANCH  12  13
HETATM   13  C   UNL     1       6.911  24.216  55.432  1.00  0.00    -0.047 A 
HETATM   14  C   UNL     1       7.808  23.135  55.350  1.00  0.00     0.044 A 
HETATM   15  C   UNL     1       8.113  22.548  54.118  1.00  0.00     0.068 A 
HETATM   16  C   UNL     1       7.548  23.061  52.950  1.00  0.00     0.037 A 
HETATM   17  C   UNL     1       6.665  24.136  53.008  1.00  0.00     0.003 A 
HETATM   18  C   UNL     1       6.341  24.701  54.241  1.00  0.00     0.007 A 
BRANCH  15  19
HETATM   19  O   UNL     1       8.944  21.478  53.925  1.00  0.00    -0.356 OA
HETATM   20  C   UNL     1       8.483  20.451  53.056  1.00  0.00     0.210 C 
ENDBRANCH  15  19
ENDBRANCH  12  13
ENDBRANCH   9  12
ENDBRANCH   6   8
BRANCH   7  21
HETATM   21  C   UNL     1       4.927  28.756  54.243  1.00  0.00    -0.020 A 
HETATM   22  C   UNL     1       3.724  28.804  53.527  1.00  0.00     0.014 A 
HETATM   23  C   UNL     1       3.678  28.390  52.194  1.00  0.00     0.020 A 
HETATM   24  C   UNL     1       4.838  27.927  51.577  1.00  0.00     0.011 A 
HETATM   25 BR   UNL     1       4.775  27.356  49.776  1.00  0.00    -0.051 Br
HETATM   26  C   UNL     1       6.043  27.881  52.275  1.00  0.00     0.020 A 
HETATM   27  C   UNL     1       6.090  28.300  53.608  1.00  0.00     0.014 A 
ENDBRANCH   7  21
TORSDOF 5
ENDMDL
MODEL 7
REMARK VINA RESULT:      -8.4      5.773      8.419
REMARK  5 active torsions:
REMARK  status: ('A' for Active; 'I' for Inactive)
REMARK    1  A    between atoms: C_6  and  N_7 
REMARK       I    between atoms: N_7  and  C_8 
REMARK    2  A    between atoms: C_8  and  C_9 
REMARK    3  A    between atoms: C_9  and  C_10 
REMARK    4  A    between atoms: C_12  and  O_13 
REMARK    5  A    between atoms: C_19  and  C_20 
ROOT
HETATM    1  C   UNL     1       1.725  28.387  47.996  1.00  0.00     0.073 C 
HETATM    2  C   UNL     1       2.800  27.534  48.561  1.00  0.00     0.065 A 
HETATM    3  N   UNL     1       2.796  26.215  48.334  1.00  0.00    -0.177 NA
HETATM    4  N   UNL     1       3.893  25.772  48.971  1.00  0.00    -0.262 N 
HETATM    5  H   UNL     1       4.135  24.786  48.931  1.00  0.00     0.191 HD
HETATM    6  C   UNL     1       4.582  26.754  49.638  1.00  0.00     0.137 A 
HETATM    7  C   UNL     1       3.912  27.930  49.359  1.00  0.00     0.046 A 
ENDROOT
BRANCH   6   8
HETATM    8  N   UNL     1       5.712  26.520  50.401  1.00  0.00    -0.311 N 
HETATM    9  C   UNL     1       5.713  25.629  51.462  1.00  0.00     0.227 C 
HETATM   10  O   UNL     1       4.744  24.943  51.790  1.00  0.00    -0.273 OA
HETATM   11  H   UNL     1       6.572  26.984  50.132  1.00  0.00     0.170 HD
BRANCH   9  12
HETATM   12  C   UNL     1       7.009  25.623  52.247  1.00  0.00     0.141 C 
BRANCH  12  13
HETATM   13  C   UNL     1       7.264  24.457  53.179  1.00  0.00    -0.047 A 
HETATM   14  C   UNL     1       7.938  23.282  52.804  1.00  0.00     0.044 A 
HETATM   15  C   UNL     1       8.234  22.292  53.746  1.00  0.00     0.068 A 
HETATM   16  C   UNL     1       7.827  22.456  55.070  1.00  0.00     0.037 A 
HETATM   17  C   UNL     1       7.150  23.608  55.461  1.00  0.00     0.003 A 
HETATM   18  C   UNL     1       6.881  24.605  54.525  1.00  0.00     0.007 A 
BRANCH  15  19
HETATM   19  O   UNL     1       8.909  21.127  53.499  1.00  0.00    -0.356 OA
HETATM   20  C   UNL     1       8.711  20.059  54.416  1.00  0.00     0.210 C 
ENDBRANCH  15  19
ENDBRANCH  12  13
ENDBRANCH   9  12
ENDBRANCH   6   8
BRANCH   7  21
HETATM   21  C   UNL     1       4.358  29.249  49.759  1.00  0.00    -0.020 A 
HETATM   22  C   UNL     1       3.731  29.893  50.834  1.00  0.00     0.014 A 
HETATM   23  C   UNL     1       4.125  31.176  51.216  1.00  0.00     0.020 A 
HETATM   24  C   UNL     1       5.147  31.818  50.521  1.00  0.00     0.011 A 
HETATM   25 BR   UNL     1       5.674  33.561  51.028  1.00  0.00    -0.051 Br
HETATM   26  C   UNL     1       5.784  31.186  49.454  1.00  0.00     0.020 A 
HETATM   27  C   UNL     1       5.393  29.899  49.075  1.00  0.00     0.014 A 
ENDBRANCH   7  21
TORSDOF 5
ENDMDL
MODEL 8
REMARK VINA RESULT:      -8.2      8.157     12.233
REMARK  5 active torsions:
REMARK  status: ('A' for Active; 'I' for Inactive)
REMARK    1  A    between atoms: C_6  and  N_7 
REMARK       I    between atoms: N_7  and  C_8 
REMARK    2  A    between atoms: C_8  and  C_9 
REMARK    3  A    between atoms: C_9  and  C_10 
REMARK    4  A    between atoms: C_12  and  O_13 
REMARK    5  A    between atoms: C_19  and  C_20 
ROOT
HETATM    1  C   UNL     1       3.909  36.077  66.756  1.00  0.00     0.073 C 
HETATM    2  C   UNL     1       4.273  35.083  65.715  1.00  0.00     0.065 A 
HETATM    3  N   UNL     1       4.305  33.779  66.019  1.00  0.00    -0.177 NA
HETATM    4  N   UNL     1       4.654  33.187  64.865  1.00  0.00    -0.262 N 
HETATM    5  H   UNL     1       4.726  32.174  64.820  1.00  0.00     0.191 HD
HETATM    6  C   UNL     1       4.890  34.066  63.838  1.00  0.00     0.137 A 
HETATM    7  C   UNL     1       4.614  35.318  64.352  1.00  0.00     0.046 A 
ENDROOT
BRANCH   6   8
HETATM    8  N   UNL     1       5.308  33.683  62.576  1.00  0.00    -0.311 N 
HETATM    9  C   UNL     1       4.775  32.582  61.925  1.00  0.00     0.227 C 
HETATM   10  O   UNL     1       3.867  31.884  62.377  1.00  0.00    -0.273 OA
HETATM   11  H   UNL     1       5.991  34.264  62.104  1.00  0.00     0.170 HD
BRANCH   9  12
HETATM   12  C   UNL     1       5.466  32.258  60.616  1.00  0.00     0.141 C 
BRANCH  12  13
HETATM   13  C   UNL     1       6.956  31.992  60.652  1.00  0.00    -0.047 A 
HETATM   14  C   UNL     1       7.821  32.207  59.565  1.00  0.00     0.044 A 
HETATM   15  C   UNL     1       9.203  32.044  59.703  1.00  0.00     0.068 A 
HETATM   16  C   UNL     1       9.729  31.630  60.927  1.00  0.00     0.037 A 
HETATM   17  C   UNL     1       8.890  31.402  62.014  1.00  0.00     0.003 A 
HETATM   18  C   UNL     1       7.515  31.593  61.880  1.00  0.00     0.007 A 
BRANCH  15  19
HETATM   19  O   UNL     1      10.136  32.256  58.725  1.00  0.00    -0.356 OA
HETATM   20  C   UNL     1      10.399  31.174  57.840  1.00  0.00     0.210 C 
ENDBRANCH  15  19
ENDBRANCH  12  13
ENDBRANCH   9  12
ENDBRANCH   6   8
BRANCH   7  21
HETATM   21  C   UNL     1       4.611  36.545  63.583  1.00  0.00    -0.020 A 
HETATM   22  C   UNL     1       3.496  36.863  62.795  1.00  0.00     0.014 A 
HETATM   23  C   UNL     1       3.486  38.025  62.022  1.00  0.00     0.020 A 
HETATM   24  C   UNL     1       4.592  38.871  62.037  1.00  0.00     0.011 A 
HETATM   25 BR   UNL     1       4.584  40.440  60.981  1.00  0.00    -0.051 Br
HETATM   26  C   UNL     1       5.704  38.571  62.821  1.00  0.00     0.020 A 
HETATM   27  C   UNL     1       5.713  37.409  63.599  1.00  0.00     0.014 A 
ENDBRANCH   7  21
TORSDOF 5
ENDMDL
MODEL 9
REMARK VINA RESULT:      -8.1      4.636      7.240
REMARK  5 active torsions:
REMARK  status: ('A' for Active; 'I' for Inactive)
REMARK    1  A    between atoms: C_6  and  N_7 
REMARK       I    between atoms: N_7  and  C_8 
REMARK    2  A    between atoms: C_8  and  C_9 
REMARK    3  A    between atoms: C_9  and  C_10 
REMARK    4  A    between atoms: C_12  and  O_13 
REMARK    5  A    between atoms: C_19  and  C_20 
ROOT
HETATM    1  C   UNL     1       3.230  31.844  52.403  1.00  0.00     0.073 C 
HETATM    2  C   UNL     1       3.521  30.542  53.054  1.00  0.00     0.065 A 
HETATM    3  N   UNL     1       3.851  30.503  54.351  1.00  0.00    -0.177 NA
HETATM    4  N   UNL     1       4.030  29.195  54.600  1.00  0.00    -0.262 N 
HETATM    5  H   UNL     1       4.268  28.890  55.540  1.00  0.00     0.191 HD
HETATM    6  C   UNL     1       3.869  28.393  53.499  1.00  0.00     0.137 A 
HETATM    7  C   UNL     1       3.499  29.242  52.474  1.00  0.00     0.046 A 
ENDROOT
BRANCH   6   8
HETATM    8  N   UNL     1       4.054  27.022  53.511  1.00  0.00    -0.311 N 
HETATM    9  C   UNL     1       5.315  26.448  53.539  1.00  0.00     0.227 C 
HETATM   10  O   UNL     1       6.365  27.088  53.601  1.00  0.00    -0.273 OA
HETATM   11  H   UNL     1       3.231  26.431  53.550  1.00  0.00     0.170 HD
BRANCH   9  12
HETATM   12  C   UNL     1       5.297  24.938  53.410  1.00  0.00     0.141 C 
BRANCH  12  13
HETATM   13  C   UNL     1       6.526  24.177  53.859  1.00  0.00    -0.047 A 
HETATM   14  C   UNL     1       6.966  24.109  55.193  1.00  0.00     0.044 A 
HETATM   15  C   UNL     1       8.047  23.298  55.553  1.00  0.00     0.068 A 
HETATM   16  C   UNL     1       8.720  22.571  54.570  1.00  0.00     0.037 A 
HETATM   17  C   UNL     1       8.307  22.631  53.242  1.00  0.00     0.003 A 
HETATM   18  C   UNL     1       7.211  23.420  52.892  1.00  0.00     0.007 A 
BRANCH  15  19
HETATM   19  O   UNL     1       8.538  23.133  56.819  1.00  0.00    -0.356 OA
HETATM   20  C   UNL     1       8.851  24.313  57.548  1.00  0.00     0.210 C 
ENDBRANCH  15  19
ENDBRANCH  12  13
ENDBRANCH   9  12
ENDBRANCH   6   8
BRANCH   7  21
HETATM   21  C   UNL     1       3.105  28.813  51.148  1.00  0.00    -0.020 A 
HETATM   22  C   UNL     1       1.796  29.047  50.707  1.00  0.00     0.014 A 
HETATM   23  C   UNL     1       1.388  28.614  49.444  1.00  0.00     0.020 A 
HETATM   24  C   UNL     1       2.290  27.946  48.620  1.00  0.00     0.011 A 
HETATM   25 BR   UNL     1       1.736  27.348  46.914  1.00  0.00    -0.051 Br
HETATM   26  C   UNL     1       3.598  27.712  49.043  1.00  0.00     0.020 A 
HETATM   27  C   UNL     1       4.008  28.150  50.306  1.00  0.00     0.014 A 
ENDBRANCH   7  21
TORSDOF 5
ENDMDL
MODEL 10
REMARK VINA RESULT:      -8.0      4.254      7.257
REMARK  5 active torsions:
REMARK  status: ('A' for Active; 'I' for Inactive)
REMARK    1  A    between atoms: C_6  and  N_7 
REMARK       I    between atoms: N_7  and  C_8 
REMARK    2  A    between atoms: C_8  and  C_9 
REMARK    3  A    between atoms: C_9  and  C_10 
REMARK    4  A    between atoms: C_12  and  O_13 
REMARK    5  A    between atoms: C_19  and  C_20 
ROOT
HETATM    1  C   UNL     1       3.983  31.985  52.847  1.00  0.00     0.073 C 
HETATM    2  C   UNL     1       4.032  30.809  53.753  1.00  0.00     0.065 A 
HETATM    3  N   UNL     1       3.904  30.978  55.075  1.00  0.00    -0.177 NA
HETATM    4  N   UNL     1       3.985  29.732  55.570  1.00  0.00    -0.262 N 
HETATM    5  H   UNL     1       3.890  29.581  56.571  1.00  0.00     0.191 HD
HETATM    6  C   UNL     1       4.205  28.769  54.617  1.00  0.00     0.137 A 
HETATM    7  C   UNL     1       4.205  29.438  53.409  1.00  0.00     0.046 A 
ENDROOT
BRANCH   6   8
HETATM    8  N   UNL     1       4.371  27.425  54.904  1.00  0.00    -0.311 N 
HETATM    9  C   UNL     1       5.536  26.931  55.469  1.00  0.00     0.227 C 
HETATM   10  O   UNL     1       6.492  27.630  55.805  1.00  0.00    -0.273 OA
HETATM   11  H   UNL     1       3.590  26.803  54.735  1.00  0.00     0.170 HD
BRANCH   9  12
HETATM   12  C   UNL     1       5.564  25.419  55.575  1.00  0.00     0.141 C 
BRANCH  12  13
HETATM   13  C   UNL     1       6.494  24.665  54.647  1.00  0.00    -0.047 A 
HETATM   14  C   UNL     1       7.054  23.410  54.944  1.00  0.00     0.044 A 
HETATM   15  C   UNL     1       7.816  22.721  53.996  1.00  0.00     0.068 A 
HETATM   16  C   UNL     1       8.053  23.301  52.749  1.00  0.00     0.037 A 
HETATM   17  C   UNL     1       7.516  24.547  52.438  1.00  0.00     0.003 A 
HETATM   18  C   UNL     1       6.733  25.219  53.376  1.00  0.00     0.007 A 
BRANCH  15  19
HETATM   19  O   UNL     1       8.381  21.486  54.165  1.00  0.00    -0.356 OA
HETATM   20  C   UNL     1       8.356  20.607  53.048  1.00  0.00     0.210 C 
ENDBRANCH  15  19
ENDBRANCH  12  13
ENDBRANCH   9  12
ENDBRANCH   6   8
BRANCH   7  21
HETATM   21  C   UNL     1       4.283  28.799  52.111  1.00  0.00    -0.020 A 
HETATM   22  C   UNL     1       3.192  28.879  51.236  1.00  0.00     0.014 A 
HETATM   23  C   UNL     1       3.235  28.244  49.993  1.00  0.00     0.020 A 
HETATM   24  C   UNL     1       4.370  27.527  49.625  1.00  0.00     0.011 A 
HETATM   25 BR   UNL     1       4.426  26.657  47.948  1.00  0.00    -0.051 Br
HETATM   26  C   UNL     1       5.466  27.445  50.483  1.00  0.00     0.020 A 
HETATM   27  C   UNL     1       5.425  28.084  51.726  1.00  0.00     0.014 A 
ENDBRANCH   7  21
TORSDOF 5
ENDMDL
