MODEL 1
REMARK VINA RESULT:     -10.0      0.000      0.000
REMARK  6 active torsions:
REMARK  status: ('A' for Active; 'I' for Inactive)
REMARK    1  A    between atoms: C_2  and  O_3 
REMARK    2  A    between atoms: O_3  and  C_4 
REMARK    3  A    between atoms: C_7  and  N_8 
REMARK    4  A    between atoms: C_11  and  N_12 
REMARK    5  A    between atoms: C_16  and  O_17 
REMARK    6  A    between atoms: C_16  and  C_18 
ROOT
HETATM    1  N   UNL     1       8.566  30.242  58.413  1.00  0.00    -0.251 N 
HETATM    2  C   UNL     1       7.438  29.685  57.848  1.00  0.00     0.262 C 
HETATM    3  O   UNL     1       6.260  29.854  58.127  1.00  0.00    -0.270 OA
HETATM    4  C   UNL     1       7.895  28.752  56.741  1.00  0.00     0.289 C 
HETATM    5  C   UNL     1       9.180  29.417  56.308  1.00  0.00     0.146 C 
HETATM    6  C   UNL     1       9.650  30.053  57.583  1.00  0.00     0.233 C 
HETATM    7  O   UNL     1      10.827  30.331  57.745  1.00  0.00    -0.273 OA
ENDROOT
BRANCH   4   8
HETATM    8  N   UNL     1       6.943  28.514  55.532  1.00  0.00    -0.058 N 
HETATM    9  H   UNL     1       6.397  29.376  55.384  1.00  0.00     0.281 HD
HETATM   10  C   UNL     1       7.748  28.222  54.276  1.00  0.00     0.239 C 
HETATM   11  C   UNL     1       6.843  27.924  53.094  1.00  0.00     0.071 C 
HETATM   12  C   UNL     1       5.898  26.741  53.368  1.00  0.00     0.088 C 
HETATM   13  C   UNL     1       5.061  27.160  54.586  1.00  0.00     0.071 C 
HETATM   14  C   UNL     1       5.919  27.419  55.813  1.00  0.00     0.239 C 
BRANCH  12  15
HETATM   15  O   UNL     1       5.003  26.678  52.256  1.00  0.00    -0.385 OA
HETATM   16  H   UNL     1       5.485  26.390  51.459  1.00  0.00     0.211 HD
ENDBRANCH  12  15
BRANCH  12  17
HETATM   17  C   UNL     1       6.575  25.371  53.504  1.00  0.00    -0.024 A 
HETATM   18  C   UNL     1       7.412  24.870  52.487  1.00  0.00     0.011 A 
HETATM   19  C   UNL     1       8.033  23.621  52.597  1.00  0.00     0.020 A 
HETATM   20  C   UNL     1       7.851  22.857  53.743  1.00  0.00     0.011 A 
HETATM   21 BR   UNL     1       8.682  21.169  53.894  1.00  0.00    -0.051 Br
HETATM   22  C   UNL     1       7.071  23.343  54.785  1.00  0.00     0.020 A 
HETATM   23  C   UNL     1       6.451  24.594  54.671  1.00  0.00     0.011 A 
ENDBRANCH  12  17
ENDBRANCH   4   8
BRANCH   1  24
HETATM   24  C   UNL     1       8.606  30.887  59.690  1.00  0.00     0.045 A 
HETATM   25  C   UNL     1       7.995  32.135  59.898  1.00  0.00     0.033 A 
HETATM   26  C   UNL     1       7.951  32.724  61.169  1.00  0.00     0.039 A 
HETATM   27  C   UNL     1       8.502  32.080  62.271  1.00  0.00     0.068 A 
HETATM   28  C   UNL     1       9.159  30.871  62.082  1.00  0.00     0.039 A 
HETATM   29  C   UNL     1       9.209  30.285  60.806  1.00  0.00     0.033 A 
BRANCH  27  30
HETATM   30  O   UNL     1       8.350  32.726  63.463  1.00  0.00    -0.352 OA
BRANCH  30  31
HETATM   31  C   UNL     1       7.005  32.986  63.868  1.00  0.00     0.171 C 
HETATM   32  C   UNL     1       7.049  33.682  65.217  1.00  0.00     0.034 C 
ENDBRANCH  30  31
ENDBRANCH  27  30
ENDBRANCH   1  24
TORSDOF 6
ENDMDL
MODEL 2
REMARK VINA RESULT:      -9.0      3.830      9.557
REMARK  6 active torsions:
REMARK  status: ('A' for Active; 'I' for Inactive)
REMARK    1  A    between atoms: C_2  and  O_3 
REMARK    2  A    between atoms: O_3  and  C_4 
REMARK    3  A    between atoms: C_7  and  N_8 
REMARK    4  A    between atoms: C_11  and  N_12 
REMARK    5  A    between atoms: C_16  and  O_17 
REMARK    6  A    between atoms: C_16  and  C_18 
ROOT
HETATM    1  N   UNL     1       6.914  27.391  55.788  1.00  0.00    -0.251 N 
HETATM    2  C   UNL     1       5.941  28.326  55.506  1.00  0.00     0.262 C 
HETATM    3  O   UNL     1       4.939  28.225  54.813  1.00  0.00    -0.270 OA
HETATM    4  C   UNL     1       6.317  29.608  56.227  1.00  0.00     0.289 C 
HETATM    5  C   UNL     1       7.066  29.064  57.421  1.00  0.00     0.146 C 
HETATM    6  C   UNL     1       7.664  27.803  56.869  1.00  0.00     0.233 C 
HETATM    7  O   UNL     1       8.648  27.301  57.385  1.00  0.00    -0.273 OA
ENDROOT
BRANCH   4   8
HETATM    8  N   UNL     1       5.176  30.573  56.665  1.00  0.00    -0.058 N 
HETATM    9  H   UNL     1       4.496  30.632  55.892  1.00  0.00     0.281 HD
HETATM   10  C   UNL     1       4.471  30.033  57.899  1.00  0.00     0.239 C 
HETATM   11  C   UNL     1       3.396  30.987  58.386  1.00  0.00     0.071 C 
HETATM   12  C   UNL     1       3.955  32.385  58.702  1.00  0.00     0.088 C 
HETATM   13  C   UNL     1       4.558  32.892  57.383  1.00  0.00     0.071 C 
HETATM   14  C   UNL     1       5.680  31.997  56.881  1.00  0.00     0.239 C 
BRANCH  12  15
HETATM   15  O   UNL     1       2.827  33.214  58.983  1.00  0.00    -0.385 OA
HETATM   16  H   UNL     1       3.091  33.946  59.571  1.00  0.00     0.211 HD
ENDBRANCH  12  15
BRANCH  12  17
HETATM   17  C   UNL     1       4.905  32.461  59.904  1.00  0.00    -0.024 A 
HETATM   18  C   UNL     1       4.410  32.446  61.224  1.00  0.00     0.011 A 
HETATM   19  C   UNL     1       5.265  32.518  62.329  1.00  0.00     0.020 A 
HETATM   20  C   UNL     1       6.640  32.578  62.137  1.00  0.00     0.011 A 
HETATM   21 BR   UNL     1       7.796  32.680  63.625  1.00  0.00    -0.051 Br
HETATM   22  C   UNL     1       7.163  32.545  60.850  1.00  0.00     0.020 A 
HETATM   23  C   UNL     1       6.304  32.472  59.746  1.00  0.00     0.011 A 
ENDBRANCH  12  17
ENDBRANCH   4   8
BRANCH   1  24
HETATM   24  C   UNL     1       7.132  26.188  55.043  1.00  0.00     0.045 A 
HETATM   25  C   UNL     1       7.566  26.224  53.707  1.00  0.00     0.033 A 
HETATM   26  C   UNL     1       7.872  25.050  53.006  1.00  0.00     0.039 A 
HETATM   27  C   UNL     1       7.765  23.808  53.620  1.00  0.00     0.068 A 
HETATM   28  C   UNL     1       7.285  23.741  54.921  1.00  0.00     0.039 A 
HETATM   29  C   UNL     1       6.973  24.918  55.622  1.00  0.00     0.033 A 
BRANCH  27  30
HETATM   30  O   UNL     1       8.140  22.742  52.854  1.00  0.00    -0.352 OA
BRANCH  30  31
HETATM   31  C   UNL     1       8.722  21.641  53.554  1.00  0.00     0.171 C 
HETATM   32  C   UNL     1       8.314  20.365  52.840  1.00  0.00     0.034 C 
ENDBRANCH  30  31
ENDBRANCH  27  30
ENDBRANCH   1  24
TORSDOF 6
ENDMDL
MODEL 3
REMARK VINA RESULT:      -8.8      6.893      9.470
REMARK  6 active torsions:
REMARK  status: ('A' for Active; 'I' for Inactive)
REMARK    1  A    between atoms: C_2  and  O_3 
REMARK    2  A    between atoms: O_3  and  C_4 
REMARK    3  A    between atoms: C_7  and  N_8 
REMARK    4  A    between atoms: C_11  and  N_12 
REMARK    5  A    between atoms: C_16  and  O_17 
REMARK    6  A    between atoms: C_16  and  C_18 
ROOT
HETATM    1  N   UNL     1       6.354  25.944  52.914  1.00  0.00    -0.251 N 
HETATM    2  C   UNL     1       5.360  25.769  51.974  1.00  0.00     0.262 C 
HETATM    3  O   UNL     1       4.637  24.805  51.772  1.00  0.00    -0.270 OA
HETATM    4  C   UNL     1       5.281  27.042  51.151  1.00  0.00     0.289 C 
HETATM    5  C   UNL     1       5.730  28.073  52.161  1.00  0.00     0.146 C 
HETATM    6  C   UNL     1       6.672  27.281  53.020  1.00  0.00     0.233 C 
HETATM    7  O   UNL     1       7.533  27.838  53.679  1.00  0.00    -0.273 OA
ENDROOT
BRANCH   4   8
HETATM    8  N   UNL     1       3.914  27.430  50.515  1.00  0.00    -0.058 N 
HETATM    9  H   UNL     1       3.206  26.759  50.850  1.00  0.00     0.281 HD
HETATM   10  C   UNL     1       3.507  28.829  50.948  1.00  0.00     0.239 C 
HETATM   11  C   UNL     1       2.208  29.258  50.291  1.00  0.00     0.071 C 
HETATM   12  C   UNL     1       2.289  29.215  48.756  1.00  0.00     0.088 C 
HETATM   13  C   UNL     1       2.606  27.753  48.404  1.00  0.00     0.071 C 
HETATM   14  C   UNL     1       3.927  27.292  48.996  1.00  0.00     0.239 C 
BRANCH  12  15
HETATM   15  O   UNL     1       0.969  29.476  48.277  1.00  0.00    -0.385 OA
HETATM   16  H   UNL     1       0.891  30.410  48.010  1.00  0.00     0.211 HD
ENDBRANCH  12  15
BRANCH  12  17
HETATM   17  C   UNL     1       3.232  30.240  48.114  1.00  0.00    -0.024 A 
HETATM   18  C   UNL     1       3.744  30.044  46.815  1.00  0.00     0.011 A 
HETATM   19  C   UNL     1       4.608  30.970  46.219  1.00  0.00     0.020 A 
HETATM   20  C   UNL     1       4.956  32.129  46.901  1.00  0.00     0.011 A 
HETATM   21 BR   UNL     1       6.125  33.377  46.103  1.00  0.00    -0.051 Br
HETATM   22  C   UNL     1       4.431  32.376  48.163  1.00  0.00     0.020 A 
HETATM   23  C   UNL     1       3.566  31.447  48.757  1.00  0.00     0.011 A 
ENDBRANCH  12  17
ENDBRANCH   4   8
BRANCH   1  24
HETATM   24  C   UNL     1       6.984  24.885  53.643  1.00  0.00     0.045 A 
HETATM   25  C   UNL     1       7.797  23.937  52.999  1.00  0.00     0.033 A 
HETATM   26  C   UNL     1       8.491  22.958  53.722  1.00  0.00     0.039 A 
HETATM   27  C   UNL     1       8.404  22.904  55.108  1.00  0.00     0.068 A 
HETATM   28  C   UNL     1       7.565  23.794  55.764  1.00  0.00     0.039 A 
HETATM   29  C   UNL     1       6.864  24.772  55.037  1.00  0.00     0.033 A 
BRANCH  27  30
HETATM   30  O   UNL     1       9.166  21.941  55.704  1.00  0.00    -0.352 OA
BRANCH  30  31
HETATM   31  C   UNL     1       8.517  21.163  56.712  1.00  0.00     0.171 C 
HETATM   32  C   UNL     1       7.619  20.155  56.018  1.00  0.00     0.034 C 
ENDBRANCH  30  31
ENDBRANCH  27  30
ENDBRANCH   1  24
TORSDOF 6
ENDMDL
MODEL 4
REMARK VINA RESULT:      -8.7      4.905      9.210
REMARK  6 active torsions:
REMARK  status: ('A' for Active; 'I' for Inactive)
REMARK    1  A    between atoms: C_2  and  O_3 
REMARK    2  A    between atoms: O_3  and  C_4 
REMARK    3  A    between atoms: C_7  and  N_8 
REMARK    4  A    between atoms: C_11  and  N_12 
REMARK    5  A    between atoms: C_16  and  O_17 
REMARK    6  A    between atoms: C_16  and  C_18 
ROOT
HETATM    1  N   UNL     1       4.594  28.351  52.472  1.00  0.00    -0.251 N 
HETATM    2  C   UNL     1       5.028  27.388  53.358  1.00  0.00     0.262 C 
HETATM    3  O   UNL     1       5.517  26.290  53.140  1.00  0.00    -0.270 OA
HETATM    4  C   UNL     1       4.792  27.919  54.761  1.00  0.00     0.289 C 
HETATM    5  C   UNL     1       4.922  29.407  54.537  1.00  0.00     0.146 C 
HETATM    6  C   UNL     1       4.440  29.556  53.124  1.00  0.00     0.233 C 
HETATM    7  O   UNL     1       4.016  30.625  52.718  1.00  0.00    -0.273 OA
ENDROOT
BRANCH   4   8
HETATM    8  N   UNL     1       5.731  27.433  55.905  1.00  0.00    -0.058 N 
HETATM    9  H   UNL     1       5.740  28.159  56.637  1.00  0.00     0.281 HD
HETATM   10  C   UNL     1       5.207  26.139  56.504  1.00  0.00     0.239 C 
HETATM   11  C   UNL     1       6.137  25.608  57.579  1.00  0.00     0.071 C 
HETATM   12  C   UNL     1       7.563  25.373  57.052  1.00  0.00     0.088 C 
HETATM   13  C   UNL     1       8.048  26.744  56.558  1.00  0.00     0.071 C 
HETATM   14  C   UNL     1       7.178  27.295  55.441  1.00  0.00     0.239 C 
BRANCH  12  15
HETATM   15  O   UNL     1       8.361  25.040  58.189  1.00  0.00    -0.385 OA
HETATM   16  H   UNL     1       9.215  25.509  58.144  1.00  0.00     0.211 HD
ENDBRANCH  12  15
BRANCH  12  17
HETATM   17  C   UNL     1       7.711  24.241  56.027  1.00  0.00    -0.024 A 
HETATM   18  C   UNL     1       7.582  22.891  56.412  1.00  0.00     0.011 A 
HETATM   19  C   UNL     1       7.718  21.849  55.488  1.00  0.00     0.020 A 
HETATM   20  C   UNL     1       7.959  22.138  54.150  1.00  0.00     0.011 A 
HETATM   21 BR   UNL     1       8.148  20.736  52.902  1.00  0.00    -0.051 Br
HETATM   22  C   UNL     1       8.043  23.459  53.730  1.00  0.00     0.020 A 
HETATM   23  C   UNL     1       7.907  24.500  54.658  1.00  0.00     0.011 A 
ENDBRANCH  12  17
ENDBRANCH   4   8
BRANCH   1  24
HETATM   24  C   UNL     1       4.311  28.119  51.088  1.00  0.00     0.045 A 
HETATM   25  C   UNL     1       5.267  27.548  50.232  1.00  0.00     0.033 A 
HETATM   26  C   UNL     1       4.961  27.232  48.901  1.00  0.00     0.039 A 
HETATM   27  C   UNL     1       3.689  27.465  48.390  1.00  0.00     0.068 A 
HETATM   28  C   UNL     1       2.742  28.079  49.199  1.00  0.00     0.039 A 
HETATM   29  C   UNL     1       3.052  28.401  50.531  1.00  0.00     0.033 A 
BRANCH  27  30
HETATM   30  O   UNL     1       3.496  27.068  47.099  1.00  0.00    -0.352 OA
BRANCH  30  31
HETATM   31  C   UNL     1       2.509  26.054  46.896  1.00  0.00     0.171 C 
HETATM   32  C   UNL     1       2.934  24.825  47.678  1.00  0.00     0.034 C 
ENDBRANCH  30  31
ENDBRANCH  27  30
ENDBRANCH   1  24
TORSDOF 6
ENDMDL
MODEL 5
REMARK VINA RESULT:      -8.7      5.626     10.847
REMARK  6 active torsions:
REMARK  status: ('A' for Active; 'I' for Inactive)
REMARK    1  A    between atoms: C_2  and  O_3 
REMARK    2  A    between atoms: O_3  and  C_4 
REMARK    3  A    between atoms: C_7  and  N_8 
REMARK    4  A    between atoms: C_11  and  N_12 
REMARK    5  A    between atoms: C_16  and  O_17 
REMARK    6  A    between atoms: C_16  and  C_18 
ROOT
HETATM    1  N   UNL     1       3.582  27.733  49.411  1.00  0.00    -0.251 N 
HETATM    2  C   UNL     1       3.913  28.355  50.597  1.00  0.00     0.262 C 
HETATM    3  O   UNL     1       3.288  29.182  51.245  1.00  0.00    -0.270 OA
HETATM    4  C   UNL     1       5.274  27.836  51.021  1.00  0.00     0.289 C 
HETATM    5  C   UNL     1       5.257  26.447  50.426  1.00  0.00     0.146 C 
HETATM    6  C   UNL     1       4.392  26.635  49.215  1.00  0.00     0.233 C 
HETATM    7  O   UNL     1       4.466  25.867  48.270  1.00  0.00    -0.273 OA
ENDROOT
BRANCH   4   8
HETATM    8  N   UNL     1       5.613  27.798  52.540  1.00  0.00    -0.058 N 
HETATM    9  H   UNL     1       5.401  28.727  52.936  1.00  0.00     0.281 HD
HETATM   10  C   UNL     1       4.758  26.758  53.246  1.00  0.00     0.239 C 
HETATM   11  C   UNL     1       5.112  26.655  54.718  1.00  0.00     0.071 C 
HETATM   12  C   UNL     1       6.596  26.314  54.939  1.00  0.00     0.088 C 
HETATM   13  C   UNL     1       7.381  27.461  54.282  1.00  0.00     0.071 C 
HETATM   14  C   UNL     1       7.100  27.571  52.792  1.00  0.00     0.239 C 
BRANCH  12  15
HETATM   15  O   UNL     1       6.826  26.413  56.345  1.00  0.00    -0.385 OA
HETATM   16  H   UNL     1       7.402  27.176  56.534  1.00  0.00     0.211 HD
ENDBRANCH  12  15
BRANCH  12  17
HETATM   17  C   UNL     1       7.027  24.913  54.490  1.00  0.00    -0.024 A 
HETATM   18  C   UNL     1       7.503  24.682  53.183  1.00  0.00     0.011 A 
HETATM   19  C   UNL     1       7.896  23.408  52.760  1.00  0.00     0.020 A 
HETATM   20  C   UNL     1       7.848  22.339  53.646  1.00  0.00     0.011 A 
HETATM   21 BR   UNL     1       8.373  20.618  53.077  1.00  0.00    -0.051 Br
HETATM   22  C   UNL     1       7.430  22.542  54.956  1.00  0.00     0.020 A 
HETATM   23  C   UNL     1       7.037  23.819  55.376  1.00  0.00     0.011 A 
ENDBRANCH  12  17
ENDBRANCH   4   8
BRANCH   1  24
HETATM   24  C   UNL     1       2.570  28.186  48.505  1.00  0.00     0.045 A 
HETATM   25  C   UNL     1       2.689  29.411  47.830  1.00  0.00     0.033 A 
HETATM   26  C   UNL     1       1.749  29.812  46.872  1.00  0.00     0.039 A 
HETATM   27  C   UNL     1       0.669  28.997  46.551  1.00  0.00     0.068 A 
HETATM   28  C   UNL     1       0.499  27.806  47.244  1.00  0.00     0.039 A 
HETATM   29  C   UNL     1       1.439  27.408  48.209  1.00  0.00     0.033 A 
BRANCH  27  30
HETATM   30  O   UNL     1      -0.149  29.470  45.567  1.00  0.00    -0.352 OA
BRANCH  30  31
HETATM   31  C   UNL     1      -0.913  28.490  44.862  1.00  0.00     0.171 C 
HETATM   32  C   UNL     1      -1.375  29.107  43.555  1.00  0.00     0.034 C 
ENDBRANCH  30  31
ENDBRANCH  27  30
ENDBRANCH   1  24
TORSDOF 6
ENDMDL
MODEL 6
REMARK VINA RESULT:      -8.3      3.042      3.577
REMARK  6 active torsions:
REMARK  status: ('A' for Active; 'I' for Inactive)
REMARK    1  A    between atoms: C_2  and  O_3 
REMARK    2  A    between atoms: O_3  and  C_4 
REMARK    3  A    between atoms: C_7  and  N_8 
REMARK    4  A    between atoms: C_11  and  N_12 
REMARK    5  A    between atoms: C_16  and  O_17 
REMARK    6  A    between atoms: C_16  and  C_18 
ROOT
HETATM    1  N   UNL     1       5.620  30.345  57.237  1.00  0.00    -0.251 N 
HETATM    2  C   UNL     1       5.166  29.751  56.079  1.00  0.00     0.262 C 
HETATM    3  O   UNL     1       4.351  30.154  55.262  1.00  0.00    -0.270 OA
HETATM    4  C   UNL     1       5.871  28.413  55.945  1.00  0.00     0.289 C 
HETATM    5  C   UNL     1       7.179  28.699  56.646  1.00  0.00     0.146 C 
HETATM    6  C   UNL     1       6.771  29.720  57.667  1.00  0.00     0.233 C 
HETATM    7  O   UNL     1       7.437  29.897  58.673  1.00  0.00    -0.273 OA
ENDROOT
BRANCH   4   8
HETATM    8  N   UNL     1       6.107  27.838  54.517  1.00  0.00    -0.058 N 
HETATM    9  H   UNL     1       5.884  28.580  53.837  1.00  0.00     0.281 HD
HETATM   10  C   UNL     1       7.561  27.434  54.344  1.00  0.00     0.239 C 
HETATM   11  C   UNL     1       7.806  26.811  52.982  1.00  0.00     0.071 C 
HETATM   12  C   UNL     1       6.914  25.583  52.734  1.00  0.00     0.088 C 
HETATM   13  C   UNL     1       5.470  26.099  52.831  1.00  0.00     0.071 C 
HETATM   14  C   UNL     1       5.159  26.686  54.199  1.00  0.00     0.239 C 
BRANCH  12  15
HETATM   15  O   UNL     1       7.123  25.203  51.373  1.00  0.00    -0.385 OA
HETATM   16  H   UNL     1       7.240  25.999  50.821  1.00  0.00     0.211 HD
ENDBRANCH  12  15
BRANCH  12  17
HETATM   17  C   UNL     1       7.210  24.361  53.613  1.00  0.00    -0.024 A 
HETATM   18  C   UNL     1       7.523  23.112  53.040  1.00  0.00     0.011 A 
HETATM   19  C   UNL     1       7.793  21.989  53.830  1.00  0.00     0.020 A 
HETATM   20  C   UNL     1       7.783  22.100  55.215  1.00  0.00     0.011 A 
HETATM   21 BR   UNL     1       8.141  20.587  56.284  1.00  0.00    -0.051 Br
HETATM   22  C   UNL     1       7.526  23.328  55.812  1.00  0.00     0.020 A 
HETATM   23  C   UNL     1       7.257  24.450  55.017  1.00  0.00     0.011 A 
ENDBRANCH  12  17
ENDBRANCH   4   8
BRANCH   1  24
HETATM   24  C   UNL     1       4.967  31.427  57.910  1.00  0.00     0.045 A 
HETATM   25  C   UNL     1       3.970  31.195  58.872  1.00  0.00     0.033 A 
HETATM   26  C   UNL     1       3.398  32.247  59.600  1.00  0.00     0.039 A 
HETATM   27  C   UNL     1       3.812  33.558  59.398  1.00  0.00     0.068 A 
HETATM   28  C   UNL     1       4.756  33.820  58.415  1.00  0.00     0.039 A 
HETATM   29  C   UNL     1       5.325  32.766  57.681  1.00  0.00     0.033 A 
BRANCH  27  30
HETATM   30  O   UNL     1       3.220  34.489  60.203  1.00  0.00    -0.352 OA
BRANCH  30  31
HETATM   31  C   UNL     1       1.900  34.180  60.651  1.00  0.00     0.171 C 
HETATM   32  C   UNL     1       1.782  34.623  62.098  1.00  0.00     0.034 C 
ENDBRANCH  30  31
ENDBRANCH  27  30
ENDBRANCH   1  24
TORSDOF 6
ENDMDL
MODEL 7
REMARK VINA RESULT:      -8.3      6.639      9.048
REMARK  6 active torsions:
REMARK  status: ('A' for Active; 'I' for Inactive)
REMARK    1  A    between atoms: C_2  and  O_3 
REMARK    2  A    between atoms: O_3  and  C_4 
REMARK    3  A    between atoms: C_7  and  N_8 
REMARK    4  A    between atoms: C_11  and  N_12 
REMARK    5  A    between atoms: C_16  and  O_17 
REMARK    6  A    between atoms: C_16  and  C_18 
ROOT
HETATM    1  N   UNL     1       6.183  26.007  53.371  1.00  0.00    -0.251 N 
HETATM    2  C   UNL     1       6.461  27.356  53.308  1.00  0.00     0.262 C 
HETATM    3  O   UNL     1       7.536  27.934  53.353  1.00  0.00    -0.270 OA
HETATM    4  C   UNL     1       5.139  28.088  53.170  1.00  0.00     0.289 C 
HETATM    5  C   UNL     1       4.307  27.059  52.442  1.00  0.00     0.146 C 
HETATM    6  C   UNL     1       4.895  25.771  52.940  1.00  0.00     0.233 C 
HETATM    7  O   UNL     1       4.251  24.736  52.906  1.00  0.00    -0.273 OA
ENDROOT
BRANCH   4   8
HETATM    8  N   UNL     1       5.124  29.457  52.427  1.00  0.00    -0.058 N 
HETATM    9  H   UNL     1       5.691  30.121  52.975  1.00  0.00     0.281 HD
HETATM   10  C   UNL     1       5.736  29.314  51.044  1.00  0.00     0.239 C 
HETATM   11  C   UNL     1       5.677  30.620  50.272  1.00  0.00     0.071 C 
HETATM   12  C   UNL     1       4.239  31.147  50.129  1.00  0.00     0.088 C 
HETATM   13  C   UNL     1       3.734  31.355  51.566  1.00  0.00     0.071 C 
HETATM   14  C   UNL     1       3.724  30.062  52.365  1.00  0.00     0.239 C 
BRANCH  12  15
HETATM   15  O   UNL     1       4.344  32.445  49.540  1.00  0.00    -0.385 OA
HETATM   16  H   UNL     1       4.116  32.398  48.594  1.00  0.00     0.211 HD
ENDBRANCH  12  15
BRANCH  12  17
HETATM   17  C   UNL     1       3.309  30.305  49.247  1.00  0.00    -0.024 A 
HETATM   18  C   UNL     1       3.830  29.385  48.314  1.00  0.00     0.011 A 
HETATM   19  C   UNL     1       2.993  28.613  47.500  1.00  0.00     0.020 A 
HETATM   20  C   UNL     1       1.614  28.725  47.623  1.00  0.00     0.011 A 
HETATM   21 BR   UNL     1       0.482  27.689  46.524  1.00  0.00    -0.051 Br
HETATM   22  C   UNL     1       1.068  29.586  48.567  1.00  0.00     0.020 A 
HETATM   23  C   UNL     1       1.909  30.358  49.380  1.00  0.00     0.011 A 
ENDBRANCH  12  17
ENDBRANCH   4   8
BRANCH   1  24
HETATM   24  C   UNL     1       7.090  25.007  53.849  1.00  0.00     0.045 A 
HETATM   25  C   UNL     1       7.481  24.959  55.198  1.00  0.00     0.033 A 
HETATM   26  C   UNL     1       8.292  23.927  55.688  1.00  0.00     0.039 A 
HETATM   27  C   UNL     1       8.725  22.906  54.850  1.00  0.00     0.068 A 
HETATM   28  C   UNL     1       8.399  22.960  53.501  1.00  0.00     0.039 A 
HETATM   29  C   UNL     1       7.591  23.999  53.010  1.00  0.00     0.033 A 
BRANCH  27  30
HETATM   30  O   UNL     1       9.465  21.930  55.452  1.00  0.00    -0.352 OA
BRANCH  30  31
HETATM   31  C   UNL     1       9.006  20.590  55.263  1.00  0.00     0.171 C 
HETATM   32  C   UNL     1       7.906  20.325  56.274  1.00  0.00     0.034 C 
ENDBRANCH  30  31
ENDBRANCH  27  30
ENDBRANCH   1  24
TORSDOF 6
ENDMDL
MODEL 8
REMARK VINA RESULT:      -8.1      4.274      9.733
REMARK  6 active torsions:
REMARK  status: ('A' for Active; 'I' for Inactive)
REMARK    1  A    between atoms: C_2  and  O_3 
REMARK    2  A    between atoms: O_3  and  C_4 
REMARK    3  A    between atoms: C_7  and  N_8 
REMARK    4  A    between atoms: C_11  and  N_12 
REMARK    5  A    between atoms: C_16  and  O_17 
REMARK    6  A    between atoms: C_16  and  C_18 
ROOT
HETATM    1  N   UNL     1       6.810  28.839  57.242  1.00  0.00    -0.251 N 
HETATM    2  C   UNL     1       5.665  29.574  57.016  1.00  0.00     0.262 C 
HETATM    3  O   UNL     1       4.595  29.224  56.542  1.00  0.00    -0.270 OA
HETATM    4  C   UNL     1       5.938  30.996  57.469  1.00  0.00     0.289 C 
HETATM    5  C   UNL     1       6.948  30.766  58.569  1.00  0.00     0.146 C 
HETATM    6  C   UNL     1       7.647  29.524  58.097  1.00  0.00     0.233 C 
HETATM    7  O   UNL     1       8.770  29.254  58.488  1.00  0.00    -0.273 OA
ENDROOT
BRANCH   4   8
HETATM    8  N   UNL     1       4.740  31.856  57.971  1.00  0.00    -0.058 N 
HETATM    9  H   UNL     1       4.053  31.920  57.205  1.00  0.00     0.281 HD
HETATM   10  C   UNL     1       4.081  31.196  59.170  1.00  0.00     0.239 C 
HETATM   11  C   UNL     1       2.950  32.045  59.720  1.00  0.00     0.071 C 
HETATM   12  C   UNL     1       3.421  33.453  60.122  1.00  0.00     0.088 C 
HETATM   13  C   UNL     1       3.980  34.081  58.836  1.00  0.00     0.071 C 
HETATM   14  C   UNL     1       5.153  33.294  58.275  1.00  0.00     0.239 C 
BRANCH  12  15
HETATM   15  O   UNL     1       2.243  34.189  60.459  1.00  0.00    -0.385 OA
HETATM   16  H   UNL     1       2.357  34.618  61.326  1.00  0.00     0.211 HD
ENDBRANCH  12  15
BRANCH  12  17
HETATM   17  C   UNL     1       4.372  33.514  61.324  1.00  0.00    -0.024 A 
HETATM   18  C   UNL     1       4.533  32.406  62.180  1.00  0.00     0.011 A 
HETATM   19  C   UNL     1       5.395  32.450  63.281  1.00  0.00     0.020 A 
HETATM   20  C   UNL     1       6.137  33.597  63.534  1.00  0.00     0.011 A 
HETATM   21 BR   UNL     1       7.297  33.662  65.021  1.00  0.00    -0.051 Br
HETATM   22  C   UNL     1       6.038  34.690  62.681  1.00  0.00     0.020 A 
HETATM   23  C   UNL     1       5.174  34.642  61.580  1.00  0.00     0.011 A 
ENDBRANCH  12  17
ENDBRANCH   4   8
BRANCH   1  24
HETATM   24  C   UNL     1       7.099  27.571  56.645  1.00  0.00     0.045 A 
HETATM   25  C   UNL     1       7.207  26.405  57.421  1.00  0.00     0.033 A 
HETATM   26  C   UNL     1       7.394  25.148  56.830  1.00  0.00     0.039 A 
HETATM   27  C   UNL     1       7.466  25.016  55.448  1.00  0.00     0.068 A 
HETATM   28  C   UNL     1       7.417  26.159  54.662  1.00  0.00     0.039 A 
HETATM   29  C   UNL     1       7.235  27.420  55.255  1.00  0.00     0.033 A 
BRANCH  27  30
HETATM   30  O   UNL     1       7.596  23.738  54.989  1.00  0.00    -0.352 OA
BRANCH  30  31
HETATM   31  C   UNL     1       7.448  23.561  53.579  1.00  0.00     0.171 C 
HETATM   32  C   UNL     1       7.811  22.125  53.247  1.00  0.00     0.034 C 
ENDBRANCH  30  31
ENDBRANCH  27  30
ENDBRANCH   1  24
TORSDOF 6
ENDMDL
MODEL 9
REMARK VINA RESULT:      -8.0      2.268      3.492
REMARK  6 active torsions:
REMARK  status: ('A' for Active; 'I' for Inactive)
REMARK    1  A    between atoms: C_2  and  O_3 
REMARK    2  A    between atoms: O_3  and  C_4 
REMARK    3  A    between atoms: C_7  and  N_8 
REMARK    4  A    between atoms: C_11  and  N_12 
REMARK    5  A    between atoms: C_16  and  O_17 
REMARK    6  A    between atoms: C_16  and  C_18 
ROOT
HETATM    1  N   UNL     1       7.283  31.813  60.866  1.00  0.00    -0.251 N 
HETATM    2  C   UNL     1       6.704  31.406  59.683  1.00  0.00     0.262 C 
HETATM    3  O   UNL     1       5.671  31.783  59.149  1.00  0.00    -0.270 OA
HETATM    4  C   UNL     1       7.594  30.332  59.084  1.00  0.00     0.289 C 
HETATM    5  C   UNL     1       8.949  30.748  59.609  1.00  0.00     0.146 C 
HETATM    6  C   UNL     1       8.594  31.391  60.918  1.00  0.00     0.233 C 
HETATM    7  O   UNL     1       9.420  31.487  61.810  1.00  0.00    -0.273 OA
ENDROOT
BRANCH   4   8
HETATM    8  N   UNL     1       7.614  30.163  57.537  1.00  0.00    -0.058 N 
HETATM    9  H   UNL     1       7.512  31.099  57.114  1.00  0.00     0.281 HD
HETATM   10  C   UNL     1       8.936  29.563  57.087  1.00  0.00     0.239 C 
HETATM   11  C   UNL     1       8.957  29.328  55.588  1.00  0.00     0.071 C 
HETATM   12  C   UNL     1       7.811  28.413  55.125  1.00  0.00     0.088 C 
HETATM   13  C   UNL     1       6.519  29.139  55.530  1.00  0.00     0.071 C 
HETATM   14  C   UNL     1       6.425  29.351  57.033  1.00  0.00     0.239 C 
BRANCH  12  15
HETATM   15  O   UNL     1       7.850  28.413  53.696  1.00  0.00    -0.385 OA
HETATM   16  H   UNL     1       8.303  27.610  53.378  1.00  0.00     0.211 HD
ENDBRANCH  12  15
BRANCH  12  17
HETATM   17  C   UNL     1       7.895  26.956  55.597  1.00  0.00    -0.024 A 
HETATM   18  C   UNL     1       8.257  26.642  56.923  1.00  0.00     0.011 A 
HETATM   19  C   UNL     1       8.340  25.317  57.365  1.00  0.00     0.020 A 
HETATM   20  C   UNL     1       8.035  24.277  56.496  1.00  0.00     0.011 A 
HETATM   21 BR   UNL     1       8.151  22.489  57.088  1.00  0.00    -0.051 Br
HETATM   22  C   UNL     1       7.628  24.554  55.197  1.00  0.00     0.020 A 
HETATM   23  C   UNL     1       7.545  25.882  54.758  1.00  0.00     0.011 A 
ENDBRANCH  12  17
ENDBRANCH   4   8
BRANCH   1  24
HETATM   24  C   UNL     1       6.607  32.536  61.900  1.00  0.00     0.045 A 
HETATM   25  C   UNL     1       6.682  33.936  61.983  1.00  0.00     0.033 A 
HETATM   26  C   UNL     1       5.945  34.653  62.936  1.00  0.00     0.039 A 
HETATM   27  C   UNL     1       5.102  33.994  63.824  1.00  0.00     0.068 A 
HETATM   28  C   UNL     1       5.052  32.607  63.799  1.00  0.00     0.039 A 
HETATM   29  C   UNL     1       5.796  31.889  62.848  1.00  0.00     0.033 A 
BRANCH  27  30
HETATM   30  O   UNL     1       4.397  34.802  64.669  1.00  0.00    -0.352 OA
BRANCH  30  31
HETATM   31  C   UNL     1       5.135  35.375  65.750  1.00  0.00     0.171 C 
HETATM   32  C   UNL     1       4.258  35.334  66.988  1.00  0.00     0.034 C 
ENDBRANCH  30  31
ENDBRANCH  27  30
ENDBRANCH   1  24
TORSDOF 6
ENDMDL
MODEL 10
REMARK VINA RESULT:      -7.9      5.420     10.096
REMARK  6 active torsions:
REMARK  status: ('A' for Active; 'I' for Inactive)
REMARK    1  A    between atoms: C_2  and  O_3 
REMARK    2  A    between atoms: O_3  and  C_4 
REMARK    3  A    between atoms: C_7  and  N_8 
REMARK    4  A    between atoms: C_11  and  N_12 
REMARK    5  A    between atoms: C_16  and  O_17 
REMARK    6  A    between atoms: C_16  and  C_18 
ROOT
HETATM    1  N   UNL     1       4.220  28.345  49.542  1.00  0.00    -0.251 N 
HETATM    2  C   UNL     1       4.601  28.855  50.766  1.00  0.00     0.262 C 
HETATM    3  O   UNL     1       4.191  29.838  51.364  1.00  0.00    -0.270 OA
HETATM    4  C   UNL     1       5.695  27.957  51.314  1.00  0.00     0.289 C 
HETATM    5  C   UNL     1       5.323  26.630  50.695  1.00  0.00     0.146 C 
HETATM    6  C   UNL     1       4.680  27.053  49.407  1.00  0.00     0.233 C 
HETATM    7  O   UNL     1       4.615  26.287  48.461  1.00  0.00    -0.273 OA
ENDROOT
BRANCH   4   8
HETATM    8  N   UNL     1       5.852  27.838  52.858  1.00  0.00    -0.058 N 
HETATM    9  H   UNL     1       5.601  28.748  53.273  1.00  0.00     0.281 HD
HETATM   10  C   UNL     1       4.915  26.774  53.405  1.00  0.00     0.239 C 
HETATM   11  C   UNL     1       5.094  26.592  54.901  1.00  0.00     0.071 C 
HETATM   12  C   UNL     1       6.539  26.224  55.275  1.00  0.00     0.088 C 
HETATM   13  C   UNL     1       7.402  27.393  54.775  1.00  0.00     0.071 C 
HETATM   14  C   UNL     1       7.299  27.582  53.270  1.00  0.00     0.239 C 
BRANCH  12  15
HETATM   15  O   UNL     1       6.603  26.249  56.702  1.00  0.00    -0.385 OA
HETATM   16  H   UNL     1       7.289  25.630  57.014  1.00  0.00     0.211 HD
ENDBRANCH  12  15
BRANCH  12  17
HETATM   17  C   UNL     1       7.012  24.842  54.808  1.00  0.00    -0.024 A 
HETATM   18  C   UNL     1       7.045  23.747  55.695  1.00  0.00     0.011 A 
HETATM   19  C   UNL     1       7.478  22.481  55.282  1.00  0.00     0.020 A 
HETATM   20  C   UNL     1       7.861  22.278  53.962  1.00  0.00     0.011 A 
HETATM   21 BR   UNL     1       8.449  20.574  53.403  1.00  0.00    -0.051 Br
HETATM   22  C   UNL     1       7.794  23.324  53.051  1.00  0.00     0.020 A 
HETATM   23  C   UNL     1       7.360  24.589  53.468  1.00  0.00     0.011 A 
ENDBRANCH  12  17
ENDBRANCH   4   8
BRANCH   1  24
HETATM   24  C   UNL     1       3.486  29.069  48.549  1.00  0.00     0.045 A 
HETATM   25  C   UNL     1       2.084  29.145  48.586  1.00  0.00     0.033 A 
HETATM   26  C   UNL     1       1.370  29.930  47.671  1.00  0.00     0.039 A 
HETATM   27  C   UNL     1       2.034  30.672  46.701  1.00  0.00     0.068 A 
HETATM   28  C   UNL     1       3.416  30.572  46.608  1.00  0.00     0.039 A 
HETATM   29  C   UNL     1       4.130  29.779  47.522  1.00  0.00     0.033 A 
BRANCH  27  30
HETATM   30  O   UNL     1       1.236  31.439  45.902  1.00  0.00    -0.352 OA
BRANCH  30  31
HETATM   31  C   UNL     1       1.730  32.742  45.589  1.00  0.00     0.171 C 
HETATM   32  C   UNL     1       1.300  33.685  46.699  1.00  0.00     0.034 C 
ENDBRANCH  30  31
ENDBRANCH  27  30
ENDBRANCH   1  24
TORSDOF 6
ENDMDL
