MODEL 1
REMARK VINA RESULT:      -8.6      0.000      0.000
REMARK  6 active torsions:
REMARK  status: ('A' for Active; 'I' for Inactive)
REMARK    1  A    between atoms: C_8  and  N_9 
REMARK       I    between atoms: N_9  and  C_10 
REMARK    2  A    between atoms: C_10  and  C_11 
REMARK    3  A    between atoms: C_11  and  N_12 
REMARK    4  A    between atoms: N_12  and  C_15 
REMARK    5  A    between atoms: C_15  and  C_16 
REMARK    6  A    between atoms: C_16  and  C_17 
ROOT
HETATM    1  N   UNL     1       5.268  26.033  54.488  1.00  0.00    -0.062 N 
HETATM    2  H   UNL     1       6.041  26.302  55.117  1.00  0.00     0.278 HD
HETATM    3  H   UNL     1       4.487  25.851  55.142  1.00  0.00     0.278 HD
ENDROOT
BRANCH   1   4
HETATM    4  C   UNL     1       4.814  27.241  53.687  1.00  0.00     0.335 C 
BRANCH   4   5
HETATM    5  C   UNL     1       5.912  28.291  53.721  1.00  0.00     0.248 C 
HETATM    6  N   UNL     1       5.960  29.277  54.649  1.00  0.00    -0.322 N 
HETATM    7  H   UNL     1       6.643  29.995  54.421  1.00  0.00     0.169 HD
HETATM    8  O   UNL     1       6.747  28.264  52.805  1.00  0.00    -0.271 OA
BRANCH   6   9
HETATM    9  C   UNL     1       5.201  29.528  55.777  1.00  0.00     0.085 A 
HETATM   10  C   UNL     1       5.503  28.909  56.978  1.00  0.00     0.052 A 
HETATM   11  C   UNL     1       6.555  27.939  57.376  1.00  0.00     0.072 C 
HETATM   12  N   UNL     1       4.610  29.390  57.893  1.00  0.00    -0.280 N 
HETATM   13  H   UNL     1       4.540  29.172  58.884  1.00  0.00     0.189 HD
HETATM   14  N   UNL     1       3.730  30.246  57.370  1.00  0.00    -0.177 NA
HETATM   15  C   UNL     1       4.028  30.289  56.067  1.00  0.00     0.079 A 
HETATM   16  C   UNL     1       3.072  31.011  55.193  1.00  0.00     0.075 C 
ENDBRANCH   6   9
ENDBRANCH   4   5
ENDBRANCH   1   4
BRANCH   1  17
HETATM   17  C   UNL     1       5.627  24.781  53.724  1.00  0.00     0.194 C 
HETATM   18  C   UNL     1       5.020  24.905  52.323  1.00  0.00     0.041 C 
BRANCH  17  19
HETATM   19  C   UNL     1       7.187  24.527  53.782  1.00  0.00     0.007 C 
HETATM   20  C   UNL     1       7.823  25.020  52.449  1.00  0.00     0.022 C 
HETATM   21  C   UNL     1       7.837  25.429  54.866  1.00  0.00     0.022 C 
BRANCH  19  22
HETATM   22  C   UNL     1       7.489  23.034  54.043  1.00  0.00    -0.048 A 
HETATM   23  C   UNL     1       7.520  22.496  55.345  1.00  0.00     0.008 A 
HETATM   24  C   UNL     1       7.837  21.153  55.571  1.00  0.00     0.001 A 
HETATM   25  C   UNL     1       8.128  20.312  54.504  1.00  0.00     0.000 A 
HETATM   26  C   UNL     1       8.098  20.813  53.209  1.00  0.00     0.001 A 
HETATM   27  C   UNL     1       7.784  22.156  52.982  1.00  0.00     0.008 A 
ENDBRANCH  19  22
ENDBRANCH  17  19
ENDBRANCH   1  17
TORSDOF 6
ENDMDL
MODEL 2
REMARK VINA RESULT:      -8.3      3.221      5.166
REMARK  6 active torsions:
REMARK  status: ('A' for Active; 'I' for Inactive)
REMARK    1  A    between atoms: C_8  and  N_9 
REMARK       I    between atoms: N_9  and  C_10 
REMARK    2  A    between atoms: C_10  and  C_11 
REMARK    3  A    between atoms: C_11  and  N_12 
REMARK    4  A    between atoms: N_12  and  C_15 
REMARK    5  A    between atoms: C_15  and  C_16 
REMARK    6  A    between atoms: C_16  and  C_17 
ROOT
HETATM    1  N   UNL     1       5.238  26.409  53.522  1.00  0.00    -0.062 N 
HETATM    2  H   UNL     1       5.729  26.776  54.353  1.00  0.00     0.278 HD
HETATM    3  H   UNL     1       4.240  26.498  53.783  1.00  0.00     0.278 HD
ENDROOT
BRANCH   1   4
HETATM    4  C   UNL     1       5.410  27.370  52.358  1.00  0.00     0.335 C 
BRANCH   4   5
HETATM    5  C   UNL     1       4.040  27.865  51.926  1.00  0.00     0.248 C 
HETATM    6  N   UNL     1       3.681  28.001  50.628  1.00  0.00    -0.322 N 
HETATM    7  H   UNL     1       2.810  28.514  50.514  1.00  0.00     0.169 HD
HETATM    8  O   UNL     1       3.261  28.222  52.823  1.00  0.00    -0.271 OA
BRANCH   6   9
HETATM    9  C   UNL     1       4.316  27.659  49.448  1.00  0.00     0.085 A 
HETATM   10  C   UNL     1       5.268  28.498  48.894  1.00  0.00     0.052 A 
HETATM   11  C   UNL     1       5.818  29.813  49.311  1.00  0.00     0.072 C 
HETATM   12  N   UNL     1       5.732  27.867  47.775  1.00  0.00    -0.280 N 
HETATM   13  H   UNL     1       6.449  28.177  47.125  1.00  0.00     0.189 HD
HETATM   14  N   UNL     1       5.128  26.699  47.542  1.00  0.00    -0.177 NA
HETATM   15  C   UNL     1       4.213  26.588  48.509  1.00  0.00     0.079 A 
HETATM   16  C   UNL     1       3.245  25.472  48.379  1.00  0.00     0.075 C 
ENDBRANCH   6   9
ENDBRANCH   4   5
ENDBRANCH   1   4
BRANCH   1  17
HETATM   17  C   UNL     1       5.604  24.962  53.295  1.00  0.00     0.194 C 
HETATM   18  C   UNL     1       5.053  24.556  51.925  1.00  0.00     0.041 C 
BRANCH  17  19
HETATM   19  C   UNL     1       7.155  24.744  53.511  1.00  0.00     0.007 C 
HETATM   20  C   UNL     1       7.903  25.153  52.208  1.00  0.00     0.022 C 
HETATM   21  C   UNL     1       7.692  25.734  54.580  1.00  0.00     0.022 C 
BRANCH  19  22
HETATM   22  C   UNL     1       7.453  23.280  53.906  1.00  0.00    -0.048 A 
HETATM   23  C   UNL     1       7.754  22.295  52.946  1.00  0.00     0.008 A 
HETATM   24  C   UNL     1       7.980  20.964  53.311  1.00  0.00     0.001 A 
HETATM   25  C   UNL     1       7.915  20.584  54.646  1.00  0.00     0.000 A 
HETATM   26  C   UNL     1       7.628  21.535  55.616  1.00  0.00     0.001 A 
HETATM   27  C   UNL     1       7.398  22.865  55.251  1.00  0.00     0.008 A 
ENDBRANCH  19  22
ENDBRANCH  17  19
ENDBRANCH   1  17
TORSDOF 6
ENDMDL
MODEL 3
REMARK VINA RESULT:      -8.2      0.794      1.905
REMARK  6 active torsions:
REMARK  status: ('A' for Active; 'I' for Inactive)
REMARK    1  A    between atoms: C_8  and  N_9 
REMARK       I    between atoms: N_9  and  C_10 
REMARK    2  A    between atoms: C_10  and  C_11 
REMARK    3  A    between atoms: C_11  and  N_12 
REMARK    4  A    between atoms: N_12  and  C_15 
REMARK    5  A    between atoms: C_15  and  C_16 
REMARK    6  A    between atoms: C_16  and  C_17 
ROOT
HETATM    1  N   UNL     1       5.291  25.952  54.473  1.00  0.00    -0.062 N 
HETATM    2  H   UNL     1       6.130  26.264  54.987  1.00  0.00     0.278 HD
HETATM    3  H   UNL     1       4.617  25.743  55.229  1.00  0.00     0.278 HD
ENDROOT
BRANCH   1   4
HETATM    4  C   UNL     1       4.675  27.127  53.733  1.00  0.00     0.335 C 
BRANCH   4   5
HETATM    5  C   UNL     1       5.780  28.097  53.349  1.00  0.00     0.248 C 
HETATM    6  N   UNL     1       6.395  28.905  54.245  1.00  0.00    -0.322 N 
HETATM    7  H   UNL     1       6.972  29.615  53.800  1.00  0.00     0.169 HD
HETATM    8  O   UNL     1       6.061  28.183  52.145  1.00  0.00    -0.271 OA
BRANCH   6   9
HETATM    9  C   UNL     1       6.311  28.998  55.622  1.00  0.00     0.085 A 
HETATM   10  C   UNL     1       5.205  29.578  56.220  1.00  0.00     0.052 A 
HETATM   11  C   UNL     1       3.967  30.188  55.673  1.00  0.00     0.072 C 
HETATM   12  N   UNL     1       5.402  29.480  57.568  1.00  0.00    -0.280 N 
HETATM   13  H   UNL     1       4.790  29.784  58.321  1.00  0.00     0.189 HD
HETATM   14  N   UNL     1       6.566  28.913  57.890  1.00  0.00    -0.177 NA
HETATM   15  C   UNL     1       7.167  28.677  56.719  1.00  0.00     0.079 A 
HETATM   16  C   UNL     1       8.581  28.233  56.778  1.00  0.00     0.075 C 
ENDBRANCH   6   9
ENDBRANCH   4   5
ENDBRANCH   1   4
BRANCH   1  17
HETATM   17  C   UNL     1       5.601  24.708  53.675  1.00  0.00     0.194 C 
HETATM   18  C   UNL     1       4.899  24.840  52.321  1.00  0.00     0.041 C 
BRANCH  17  19
HETATM   19  C   UNL     1       7.162  24.458  53.624  1.00  0.00     0.007 C 
HETATM   20  C   UNL     1       7.689  24.876  52.220  1.00  0.00     0.022 C 
HETATM   21  C   UNL     1       7.891  25.421  54.600  1.00  0.00     0.022 C 
BRANCH  19  22
HETATM   22  C   UNL     1       7.492  22.983  53.943  1.00  0.00    -0.048 A 
HETATM   23  C   UNL     1       7.517  22.493  55.264  1.00  0.00     0.008 A 
HETATM   24  C   UNL     1       7.860  21.166  55.544  1.00  0.00     0.001 A 
HETATM   25  C   UNL     1       8.182  20.294  54.512  1.00  0.00     0.000 A 
HETATM   26  C   UNL     1       8.159  20.746  53.199  1.00  0.00     0.001 A 
HETATM   27  C   UNL     1       7.820  22.074  52.919  1.00  0.00     0.008 A 
ENDBRANCH  19  22
ENDBRANCH  17  19
ENDBRANCH   1  17
TORSDOF 6
ENDMDL
MODEL 4
REMARK VINA RESULT:      -8.2      1.840      2.936
REMARK  6 active torsions:
REMARK  status: ('A' for Active; 'I' for Inactive)
REMARK    1  A    between atoms: C_8  and  N_9 
REMARK       I    between atoms: N_9  and  C_10 
REMARK    2  A    between atoms: C_10  and  C_11 
REMARK    3  A    between atoms: C_11  and  N_12 
REMARK    4  A    between atoms: N_12  and  C_15 
REMARK    5  A    between atoms: C_15  and  C_16 
REMARK    6  A    between atoms: C_16  and  C_17 
ROOT
HETATM    1  N   UNL     1       7.185  26.632  54.758  1.00  0.00    -0.062 N 
HETATM    2  H   UNL     1       7.127  26.821  53.745  1.00  0.00     0.278 HD
HETATM    3  H   UNL     1       8.031  27.154  55.045  1.00  0.00     0.278 HD
ENDROOT
BRANCH   1   4
HETATM    4  C   UNL     1       6.046  27.337  55.477  1.00  0.00     0.335 C 
BRANCH   4   5
HETATM    5  C   UNL     1       5.993  28.781  55.009  1.00  0.00     0.248 C 
HETATM    6  N   UNL     1       6.392  29.821  55.780  1.00  0.00    -0.322 N 
HETATM    7  H   UNL     1       6.120  30.721  55.394  1.00  0.00     0.169 HD
HETATM    8  O   UNL     1       5.488  28.995  53.897  1.00  0.00    -0.271 OA
BRANCH   6   9
HETATM    9  C   UNL     1       7.009  29.876  57.017  1.00  0.00     0.085 A 
HETATM   10  C   UNL     1       6.499  30.683  58.020  1.00  0.00     0.052 A 
HETATM   11  C   UNL     1       5.331  31.597  58.082  1.00  0.00     0.072 C 
HETATM   12  N   UNL     1       7.295  30.486  59.112  1.00  0.00    -0.280 N 
HETATM   13  H   UNL     1       7.213  30.899  60.037  1.00  0.00     0.189 HD
HETATM   14  N   UNL     1       8.302  29.640  58.884  1.00  0.00    -0.177 NA
HETATM   15  C   UNL     1       8.187  29.313  57.593  1.00  0.00     0.079 A 
HETATM   16  C   UNL     1       9.306  28.536  57.006  1.00  0.00     0.075 C 
ENDBRANCH   6   9
ENDBRANCH   4   5
ENDBRANCH   1   4
BRANCH   1  17
HETATM   17  C   UNL     1       7.359  25.153  55.005  1.00  0.00     0.194 C 
HETATM   18  C   UNL     1       6.319  24.733  56.049  1.00  0.00     0.041 C 
BRANCH  17  19
HETATM   19  C   UNL     1       7.329  24.357  53.639  1.00  0.00     0.007 C 
HETATM   20  C   UNL     1       5.864  24.326  53.111  1.00  0.00     0.022 C 
HETATM   21  C   UNL     1       8.105  25.140  52.545  1.00  0.00     0.022 C 
BRANCH  19  22
HETATM   22  C   UNL     1       7.902  22.934  53.820  1.00  0.00    -0.048 A 
HETATM   23  C   UNL     1       7.666  21.909  52.883  1.00  0.00     0.008 A 
HETATM   24  C   UNL     1       8.153  20.613  53.079  1.00  0.00     0.001 A 
HETATM   25  C   UNL     1       8.892  20.308  54.215  1.00  0.00     0.000 A 
HETATM   26  C   UNL     1       9.148  21.300  55.154  1.00  0.00     0.001 A 
HETATM   27  C   UNL     1       8.658  22.594  54.959  1.00  0.00     0.008 A 
ENDBRANCH  19  22
ENDBRANCH  17  19
ENDBRANCH   1  17
TORSDOF 6
ENDMDL
MODEL 5
REMARK VINA RESULT:      -8.1      2.896      4.318
REMARK  6 active torsions:
REMARK  status: ('A' for Active; 'I' for Inactive)
REMARK    1  A    between atoms: C_8  and  N_9 
REMARK       I    between atoms: N_9  and  C_10 
REMARK    2  A    between atoms: C_10  and  C_11 
REMARK    3  A    between atoms: C_11  and  N_12 
REMARK    4  A    between atoms: N_12  and  C_15 
REMARK    5  A    between atoms: C_15  and  C_16 
REMARK    6  A    between atoms: C_16  and  C_17 
ROOT
HETATM    1  N   UNL     1       5.163  26.296  54.058  1.00  0.00    -0.062 N 
HETATM    2  H   UNL     1       6.012  26.827  54.306  1.00  0.00     0.278 HD
HETATM    3  H   UNL     1       4.625  26.289  54.942  1.00  0.00     0.278 HD
ENDROOT
BRANCH   1   4
HETATM    4  C   UNL     1       4.307  27.112  53.104  1.00  0.00     0.335 C 
BRANCH   4   5
HETATM    5  C   UNL     1       5.199  28.099  52.370  1.00  0.00     0.248 C 
HETATM    6  N   UNL     1       4.880  28.624  51.163  1.00  0.00    -0.322 N 
HETATM    7  H   UNL     1       5.659  29.115  50.732  1.00  0.00     0.169 HD
HETATM    8  O   UNL     1       6.294  28.363  52.889  1.00  0.00    -0.271 OA
BRANCH   6   9
HETATM    9  C   UNL     1       3.741  28.536  50.384  1.00  0.00     0.085 A 
HETATM   10  C   UNL     1       3.603  27.519  49.455  1.00  0.00     0.052 A 
HETATM   11  C   UNL     1       4.483  26.391  49.056  1.00  0.00     0.072 C 
HETATM   12  N   UNL     1       2.371  27.682  48.888  1.00  0.00    -0.280 N 
HETATM   13  H   UNL     1       1.921  27.111  48.177  1.00  0.00     0.189 HD
HETATM   14  N   UNL     1       1.714  28.746  49.353  1.00  0.00    -0.177 NA
HETATM   15  C   UNL     1       2.561  29.321  50.214  1.00  0.00     0.079 A 
HETATM   16  C   UNL     1       2.171  30.654  50.735  1.00  0.00     0.075 C 
ENDBRANCH   6   9
ENDBRANCH   4   5
ENDBRANCH   1   4
BRANCH   1  17
HETATM   17  C   UNL     1       5.528  24.891  53.643  1.00  0.00     0.194 C 
HETATM   18  C   UNL     1       4.853  24.617  52.296  1.00  0.00     0.041 C 
BRANCH  17  19
HETATM   19  C   UNL     1       7.096  24.692  53.685  1.00  0.00     0.007 C 
HETATM   20  C   UNL     1       7.696  25.170  52.330  1.00  0.00     0.022 C 
HETATM   21  C   UNL     1       7.730  25.647  54.733  1.00  0.00     0.022 C 
BRANCH  19  22
HETATM   22  C   UNL     1       7.454  23.219  53.982  1.00  0.00    -0.048 A 
HETATM   23  C   UNL     1       7.749  22.301  52.955  1.00  0.00     0.008 A 
HETATM   24  C   UNL     1       8.030  20.960  53.233  1.00  0.00     0.001 A 
HETATM   25  C   UNL     1       8.028  20.501  54.545  1.00  0.00     0.000 A 
HETATM   26  C   UNL     1       7.749  21.385  55.579  1.00  0.00     0.001 A 
HETATM   27  C   UNL     1       7.464  22.725  55.301  1.00  0.00     0.008 A 
ENDBRANCH  19  22
ENDBRANCH  17  19
ENDBRANCH   1  17
TORSDOF 6
ENDMDL
MODEL 6
REMARK VINA RESULT:      -8.0      1.520      2.427
REMARK  6 active torsions:
REMARK  status: ('A' for Active; 'I' for Inactive)
REMARK    1  A    between atoms: C_8  and  N_9 
REMARK       I    between atoms: N_9  and  C_10 
REMARK    2  A    between atoms: C_10  and  C_11 
REMARK    3  A    between atoms: C_11  and  N_12 
REMARK    4  A    between atoms: N_12  and  C_15 
REMARK    5  A    between atoms: C_15  and  C_16 
REMARK    6  A    between atoms: C_16  and  C_17 
ROOT
HETATM    1  N   UNL     1       7.548  26.631  54.994  1.00  0.00    -0.062 N 
HETATM    2  H   UNL     1       7.051  27.107  54.224  1.00  0.00     0.278 HD
HETATM    3  H   UNL     1       8.526  26.600  54.658  1.00  0.00     0.278 HD
ENDROOT
BRANCH   1   4
HETATM    4  C   UNL     1       7.596  27.537  56.212  1.00  0.00     0.335 C 
BRANCH   4   5
HETATM    5  C   UNL     1       7.871  28.959  55.753  1.00  0.00     0.248 C 
HETATM    6  N   UNL     1       6.967  29.960  55.870  1.00  0.00    -0.322 N 
HETATM    7  H   UNL     1       7.235  30.793  55.352  1.00  0.00     0.169 HD
HETATM    8  O   UNL     1       8.953  29.168  55.183  1.00  0.00    -0.271 OA
BRANCH   6   9
HETATM    9  C   UNL     1       5.726  30.023  56.478  1.00  0.00     0.085 A 
HETATM   10  C   UNL     1       4.623  29.433  55.884  1.00  0.00     0.052 A 
HETATM   11  C   UNL     1       4.443  28.676  54.618  1.00  0.00     0.072 C 
HETATM   12  N   UNL     1       3.576  29.630  56.738  1.00  0.00    -0.280 N 
HETATM   13  H   UNL     1       2.612  29.320  56.640  1.00  0.00     0.189 HD
HETATM   14  N   UNL     1       3.907  30.332  57.823  1.00  0.00    -0.177 NA
HETATM   15  C   UNL     1       5.195  30.643  57.649  1.00  0.00     0.079 A 
HETATM   16  C   UNL     1       5.780  31.606  58.614  1.00  0.00     0.075 C 
ENDBRANCH   6   9
ENDBRANCH   4   5
ENDBRANCH   1   4
BRANCH   1  17
HETATM   17  C   UNL     1       7.003  25.235  55.182  1.00  0.00     0.194 C 
HETATM   18  C   UNL     1       5.643  25.360  55.876  1.00  0.00     0.041 C 
BRANCH  17  19
HETATM   19  C   UNL     1       7.011  24.450  53.810  1.00  0.00     0.007 C 
HETATM   20  C   UNL     1       5.587  24.523  53.184  1.00  0.00     0.022 C 
HETATM   21  C   UNL     1       7.913  25.180  52.778  1.00  0.00     0.022 C 
BRANCH  19  22
HETATM   22  C   UNL     1       7.470  22.989  54.017  1.00  0.00    -0.048 A 
HETATM   23  C   UNL     1       7.827  22.159  52.936  1.00  0.00     0.008 A 
HETATM   24  C   UNL     1       8.200  20.825  53.132  1.00  0.00     0.001 A 
HETATM   25  C   UNL     1       8.229  20.287  54.413  1.00  0.00     0.000 A 
HETATM   26  C   UNL     1       7.889  21.084  55.499  1.00  0.00     0.001 A 
HETATM   27  C   UNL     1       7.513  22.416  55.303  1.00  0.00     0.008 A 
ENDBRANCH  19  22
ENDBRANCH  17  19
ENDBRANCH   1  17
TORSDOF 6
ENDMDL
MODEL 7
REMARK VINA RESULT:      -8.0      3.317      5.328
REMARK  6 active torsions:
REMARK  status: ('A' for Active; 'I' for Inactive)
REMARK    1  A    between atoms: C_8  and  N_9 
REMARK       I    between atoms: N_9  and  C_10 
REMARK    2  A    between atoms: C_10  and  C_11 
REMARK    3  A    between atoms: C_11  and  N_12 
REMARK    4  A    between atoms: N_12  and  C_15 
REMARK    5  A    between atoms: C_15  and  C_16 
REMARK    6  A    between atoms: C_16  and  C_17 
ROOT
HETATM    1  N   UNL     1       5.771  26.372  53.624  1.00  0.00    -0.062 N 
HETATM    2  H   UNL     1       5.160  26.935  54.235  1.00  0.00     0.278 HD
HETATM    3  H   UNL     1       5.265  25.472  53.551  1.00  0.00     0.278 HD
ENDROOT
BRANCH   1   4
HETATM    4  C   UNL     1       5.746  26.934  52.213  1.00  0.00     0.335 C 
BRANCH   4   5
HETATM    5  C   UNL     1       4.366  27.508  51.940  1.00  0.00     0.248 C 
HETATM    6  N   UNL     1       3.908  27.765  50.692  1.00  0.00    -0.322 N 
HETATM    7  H   UNL     1       3.052  28.314  50.694  1.00  0.00     0.169 HD
HETATM    8  O   UNL     1       3.678  27.813  52.926  1.00  0.00    -0.271 OA
BRANCH   6   9
HETATM    9  C   UNL     1       4.432  27.503  49.439  1.00  0.00     0.085 A 
HETATM   10  C   UNL     1       5.318  28.389  48.849  1.00  0.00     0.052 A 
HETATM   11  C   UNL     1       5.891  29.686  49.291  1.00  0.00     0.072 C 
HETATM   12  N   UNL     1       5.679  27.833  47.655  1.00  0.00    -0.280 N 
HETATM   13  H   UNL     1       6.328  28.193  46.960  1.00  0.00     0.189 HD
HETATM   14  N   UNL     1       5.069  26.672  47.409  1.00  0.00    -0.177 NA
HETATM   15  C   UNL     1       4.251  26.489  48.451  1.00  0.00     0.079 A 
HETATM   16  C   UNL     1       3.287  25.367  48.345  1.00  0.00     0.075 C 
ENDBRANCH   6   9
ENDBRANCH   4   5
ENDBRANCH   1   4
BRANCH   1  17
HETATM   17  C   UNL     1       7.120  26.174  54.274  1.00  0.00     0.194 C 
HETATM   18  C   UNL     1       7.619  27.549  54.729  1.00  0.00     0.041 C 
BRANCH  17  19
HETATM   19  C   UNL     1       7.035  25.062  55.396  1.00  0.00     0.007 C 
HETATM   20  C   UNL     1       8.007  25.444  56.551  1.00  0.00     0.022 C 
HETATM   21  C   UNL     1       5.633  25.079  56.063  1.00  0.00     0.022 C 
BRANCH  19  22
HETATM   22  C   UNL     1       7.360  23.669  54.812  1.00  0.00    -0.048 A 
HETATM   23  C   UNL     1       7.503  22.532  55.631  1.00  0.00     0.008 A 
HETATM   24  C   UNL     1       7.840  21.285  55.096  1.00  0.00     0.001 A 
HETATM   25  C   UNL     1       8.037  21.139  53.729  1.00  0.00     0.000 A 
HETATM   26  C   UNL     1       7.894  22.241  52.895  1.00  0.00     0.001 A 
HETATM   27  C   UNL     1       7.562  23.489  53.430  1.00  0.00     0.008 A 
ENDBRANCH  19  22
ENDBRANCH  17  19
ENDBRANCH   1  17
TORSDOF 6
ENDMDL
MODEL 8
REMARK VINA RESULT:      -7.7      3.127      4.469
REMARK  6 active torsions:
REMARK  status: ('A' for Active; 'I' for Inactive)
REMARK    1  A    between atoms: C_8  and  N_9 
REMARK       I    between atoms: N_9  and  C_10 
REMARK    2  A    between atoms: C_10  and  C_11 
REMARK    3  A    between atoms: C_11  and  N_12 
REMARK    4  A    between atoms: N_12  and  C_15 
REMARK    5  A    between atoms: C_15  and  C_16 
REMARK    6  A    between atoms: C_16  and  C_17 
ROOT
HETATM    1  N   UNL     1       7.070  27.836  56.652  1.00  0.00    -0.062 N 
HETATM    2  H   UNL     1       6.041  27.796  56.722  1.00  0.00     0.278 HD
HETATM    3  H   UNL     1       7.227  28.572  55.941  1.00  0.00     0.278 HD
ENDROOT
BRANCH   1   4
HETATM    4  C   UNL     1       7.650  28.416  57.930  1.00  0.00     0.335 C 
BRANCH   4   5
HETATM    5  C   UNL     1       8.515  29.613  57.575  1.00  0.00     0.248 C 
HETATM    6  N   UNL     1       8.491  30.773  58.273  1.00  0.00    -0.322 N 
HETATM    7  H   UNL     1       8.983  31.526  57.799  1.00  0.00     0.169 HD
HETATM    8  O   UNL     1       9.211  29.522  56.553  1.00  0.00    -0.271 OA
BRANCH   6   9
HETATM    9  C   UNL     1       7.852  31.138  59.444  1.00  0.00     0.085 A 
HETATM   10  C   UNL     1       6.604  31.738  59.406  1.00  0.00     0.052 A 
HETATM   11  C   UNL     1       5.704  32.122  58.289  1.00  0.00     0.072 C 
HETATM   12  N   UNL     1       6.232  31.933  60.706  1.00  0.00    -0.280 N 
HETATM   13  H   UNL     1       5.369  32.334  61.063  1.00  0.00     0.189 HD
HETATM   14  N   UNL     1       7.157  31.538  61.583  1.00  0.00    -0.177 NA
HETATM   15  C   UNL     1       8.181  31.117  60.833  1.00  0.00     0.079 A 
HETATM   16  C   UNL     1       9.443  30.810  61.550  1.00  0.00     0.075 C 
ENDBRANCH   6   9
ENDBRANCH   4   5
ENDBRANCH   1   4
BRANCH   1  17
HETATM   17  C   UNL     1       7.612  26.509  56.176  1.00  0.00     0.194 C 
HETATM   18  C   UNL     1       8.381  25.880  57.341  1.00  0.00     0.041 C 
BRANCH  17  19
HETATM   19  C   UNL     1       6.454  25.629  55.555  1.00  0.00     0.007 C 
HETATM   20  C   UNL     1       5.543  25.116  56.709  1.00  0.00     0.022 C 
HETATM   21  C   UNL     1       5.510  26.514  54.696  1.00  0.00     0.022 C 
BRANCH  19  22
HETATM   22  C   UNL     1       7.036  24.464  54.724  1.00  0.00    -0.048 A 
HETATM   23  C   UNL     1       7.371  24.613  53.364  1.00  0.00     0.008 A 
HETATM   24  C   UNL     1       7.857  23.539  52.610  1.00  0.00     0.001 A 
HETATM   25  C   UNL     1       8.024  22.291  53.197  1.00  0.00     0.000 A 
HETATM   26  C   UNL     1       7.710  22.116  54.538  1.00  0.00     0.001 A 
HETATM   27  C   UNL     1       7.221  23.188  55.291  1.00  0.00     0.008 A 
ENDBRANCH  19  22
ENDBRANCH  17  19
ENDBRANCH   1  17
TORSDOF 6
ENDMDL
MODEL 9
REMARK VINA RESULT:      -7.5      2.255      4.451
REMARK  6 active torsions:
REMARK  status: ('A' for Active; 'I' for Inactive)
REMARK    1  A    between atoms: C_8  and  N_9 
REMARK       I    between atoms: N_9  and  C_10 
REMARK    2  A    between atoms: C_10  and  C_11 
REMARK    3  A    between atoms: C_11  and  N_12 
REMARK    4  A    between atoms: N_12  and  C_15 
REMARK    5  A    between atoms: C_15  and  C_16 
REMARK    6  A    between atoms: C_16  and  C_17 
ROOT
HETATM    1  N   UNL     1       6.079  27.259  55.450  1.00  0.00    -0.062 N 
HETATM    2  H   UNL     1       5.510  27.193  56.309  1.00  0.00     0.278 HD
HETATM    3  H   UNL     1       5.564  26.661  54.782  1.00  0.00     0.278 HD
ENDROOT
BRANCH   1   4
HETATM    4  C   UNL     1       5.967  28.658  54.867  1.00  0.00     0.335 C 
BRANCH   4   5
HETATM    5  C   UNL     1       4.552  28.860  54.351  1.00  0.00     0.248 C 
HETATM    6  N   UNL     1       4.119  28.358  53.171  1.00  0.00    -0.322 N 
HETATM    7  H   UNL     1       3.218  28.738  52.891  1.00  0.00     0.169 HD
HETATM    8  O   UNL     1       3.804  29.583  55.027  1.00  0.00    -0.271 OA
BRANCH   6   9
HETATM    9  C   UNL     1       4.709  27.512  52.250  1.00  0.00     0.085 A 
HETATM   10  C   UNL     1       5.146  27.998  51.029  1.00  0.00     0.052 A 
HETATM   11  C   UNL     1       5.124  29.351  50.416  1.00  0.00     0.072 C 
HETATM   12  N   UNL     1       5.711  26.941  50.375  1.00  0.00    -0.280 N 
HETATM   13  H   UNL     1       6.153  26.925  49.459  1.00  0.00     0.189 HD
HETATM   14  N   UNL     1       5.642  25.799  51.062  1.00  0.00    -0.177 NA
HETATM   15  C   UNL     1       4.971  26.111  52.176  1.00  0.00     0.079 A 
HETATM   16  C   UNL     1       4.564  24.977  53.042  1.00  0.00     0.075 C 
ENDBRANCH   6   9
ENDBRANCH   4   5
ENDBRANCH   1   4
BRANCH   1  17
HETATM   17  C   UNL     1       7.465  26.714  55.698  1.00  0.00     0.194 C 
HETATM   18  C   UNL     1       8.249  27.778  56.472  1.00  0.00     0.041 C 
BRANCH  17  19
HETATM   19  C   UNL     1       7.384  25.286  56.372  1.00  0.00     0.007 C 
HETATM   20  C   UNL     1       8.236  25.301  57.676  1.00  0.00     0.022 C 
HETATM   21  C   UNL     1       5.940  25.008  56.870  1.00  0.00     0.022 C 
BRANCH  19  22
HETATM   22  C   UNL     1       7.858  24.189  55.393  1.00  0.00    -0.048 A 
HETATM   23  C   UNL     1       8.518  23.027  55.837  1.00  0.00     0.008 A 
HETATM   24  C   UNL     1       8.981  22.061  54.937  1.00  0.00     0.001 A 
HETATM   25  C   UNL     1       8.792  22.229  53.571  1.00  0.00     0.000 A 
HETATM   26  C   UNL     1       8.137  23.361  53.104  1.00  0.00     0.001 A 
HETATM   27  C   UNL     1       7.677  24.329  54.003  1.00  0.00     0.008 A 
ENDBRANCH  19  22
ENDBRANCH  17  19
ENDBRANCH   1  17
TORSDOF 6
ENDMDL
MODEL 10
REMARK VINA RESULT:      -7.5      2.727      4.591
REMARK  6 active torsions:
REMARK  status: ('A' for Active; 'I' for Inactive)
REMARK    1  A    between atoms: C_8  and  N_9 
REMARK       I    between atoms: N_9  and  C_10 
REMARK    2  A    between atoms: C_10  and  C_11 
REMARK    3  A    between atoms: C_11  and  N_12 
REMARK    4  A    between atoms: N_12  and  C_15 
REMARK    5  A    between atoms: C_15  and  C_16 
REMARK    6  A    between atoms: C_16  and  C_17 
ROOT
HETATM    1  N   UNL     1       5.637  25.919  53.937  1.00  0.00    -0.062 N 
HETATM    2  H   UNL     1       5.362  26.912  53.875  1.00  0.00     0.278 HD
HETATM    3  H   UNL     1       4.983  25.538  54.643  1.00  0.00     0.278 HD
ENDROOT
BRANCH   1   4
HETATM    4  C   UNL     1       5.260  25.201  52.652  1.00  0.00     0.335 C 
BRANCH   4   5
HETATM    5  C   UNL     1       6.190  25.664  51.543  1.00  0.00     0.248 C 
HETATM    6  N   UNL     1       5.822  26.564  50.600  1.00  0.00    -0.322 N 
HETATM    7  H   UNL     1       6.488  26.623  49.834  1.00  0.00     0.169 HD
HETATM    8  O   UNL     1       7.304  25.124  51.479  1.00  0.00    -0.271 OA
BRANCH   6   9
HETATM    9  C   UNL     1       4.684  27.334  50.446  1.00  0.00     0.085 A 
HETATM   10  C   UNL     1       3.869  27.169  49.339  1.00  0.00     0.052 A 
HETATM   11  C   UNL     1       3.942  26.271  48.158  1.00  0.00     0.072 C 
HETATM   12  N   UNL     1       2.823  28.032  49.500  1.00  0.00    -0.280 N 
HETATM   13  H   UNL     1       2.020  28.174  48.893  1.00  0.00     0.189 HD
HETATM   14  N   UNL     1       2.914  28.768  50.610  1.00  0.00    -0.177 NA
HETATM   15  C   UNL     1       4.077  28.409  51.163  1.00  0.00     0.079 A 
HETATM   16  C   UNL     1       4.541  29.223  52.313  1.00  0.00     0.075 C 
ENDBRANCH   6   9
ENDBRANCH   4   5
ENDBRANCH   1   4
BRANCH   1  17
HETATM   17  C   UNL     1       7.065  25.801  54.411  1.00  0.00     0.194 C 
HETATM   18  C   UNL     1       7.581  27.218  54.680  1.00  0.00     0.041 C 
BRANCH  17  19
HETATM   19  C   UNL     1       7.164  24.787  55.621  1.00  0.00     0.007 C 
HETATM   20  C   UNL     1       8.202  25.332  56.646  1.00  0.00     0.022 C 
HETATM   21  C   UNL     1       5.829  24.766  56.414  1.00  0.00     0.022 C 
BRANCH  19  22
HETATM   22  C   UNL     1       7.540  23.374  55.123  1.00  0.00    -0.048 A 
HETATM   23  C   UNL     1       7.934  23.132  53.792  1.00  0.00     0.008 A 
HETATM   24  C   UNL     1       8.231  21.842  53.341  1.00  0.00     0.001 A 
HETATM   25  C   UNL     1       8.145  20.760  54.209  1.00  0.00     0.000 A 
HETATM   26  C   UNL     1       7.767  20.969  55.529  1.00  0.00     0.001 A 
HETATM   27  C   UNL     1       7.467  22.258  55.979  1.00  0.00     0.008 A 
ENDBRANCH  19  22
ENDBRANCH  17  19
ENDBRANCH   1  17
TORSDOF 6
ENDMDL
