MODEL 1
REMARK VINA RESULT:      -8.5      0.000      0.000
REMARK  10 active torsions:
REMARK  status: ('A' for Active; 'I' for Inactive)
REMARK    1  A    between atoms: C_2  and  O_3 
REMARK    2  A    between atoms: O_3  and  C_4 
REMARK    3  A    between atoms: C_7  and  C_8 
REMARK    4  A    between atoms: C_8  and  C_9 
REMARK    5  A    between atoms: C_10  and  C_11 
REMARK    6  A    between atoms: C_13  and  N_14 
REMARK    7  A    between atoms: N_20  and  C_21 
REMARK    8  A    between atoms: C_21  and  C_22 
REMARK    9  A    between atoms: C_22  and  N_23 
REMARK   10  A    between atoms: C_34  and  O_35 
ROOT
HETATM    1  C   UNL     1       5.452  28.670  54.001  1.00  0.00     0.059 C 
HETATM    2  C   UNL     1       6.125  28.527  55.322  1.00  0.00     0.161 C 
HETATM    3  N   UNL     1       5.407  29.516  56.109  1.00  0.00    -0.332 N 
HETATM    4  C   UNL     1       4.641  30.334  55.291  1.00  0.00     0.278 C 
HETATM    5  O   UNL     1       4.270  31.455  55.604  1.00  0.00    -0.265 OA
HETATM    6  C   UNL     1       4.563  29.673  53.967  1.00  0.00     0.146 C 
ENDROOT
BRANCH   1   7
HETATM    7  C   UNL     1       5.850  27.975  52.763  1.00  0.00     0.193 C 
HETATM    8  O   UNL     1       5.982  28.579  51.708  1.00  0.00    -0.287 OA
BRANCH   7   9
HETATM    9  C   UNL     1       6.293  26.581  52.931  1.00  0.00     0.015 A 
HETATM   10  C   UNL     1       7.642  26.235  52.846  1.00  0.00     0.018 A 
HETATM   11  C   UNL     1       8.001  24.884  52.791  1.00  0.00     0.038 A 
HETATM   12  C   UNL     1       7.015  23.895  52.830  1.00  0.00     0.069 A 
HETATM   13  C   UNL     1       5.676  24.256  53.004  1.00  0.00     0.038 A 
HETATM   14  C   UNL     1       5.307  25.599  53.044  1.00  0.00     0.018 A 
BRANCH  12  15
HETATM   15  O   UNL     1       7.239  22.551  52.760  1.00  0.00    -0.347 OA
BRANCH  15  16
HETATM   16  C   UNL     1       8.250  21.990  53.609  1.00  0.00     0.120 C 
HETATM   17  C   UNL     1       8.688  20.629  53.068  1.00  0.00     0.040 C 
HETATM   18  C   UNL     1       7.619  21.824  54.988  1.00  0.00     0.040 C 
ENDBRANCH  15  16
ENDBRANCH  12  15
ENDBRANCH   7   9
ENDBRANCH   1   7
BRANCH   2  19
HETATM   19  C   UNL     1       6.119  27.171  55.986  1.00  0.00    -0.028 A 
HETATM   20  C   UNL     1       7.351  26.534  56.220  1.00  0.00     0.045 A 
HETATM   21  C   UNL     1       7.403  25.302  56.888  1.00  0.00     0.103 A 
HETATM   22  C   UNL     1       6.233  24.671  57.308  1.00  0.00     0.036 A 
HETATM   23  C   UNL     1       5.006  25.294  57.071  1.00  0.00     0.003 A 
HETATM   24  C   UNL     1       4.948  26.538  56.427  1.00  0.00     0.010 A 
BRANCH  21  25
HETATM   25  N   UNL     1       8.713  24.708  57.175  1.00  0.00    -0.116 N 
HETATM   26  O   UNL     1       9.071  24.694  58.365  1.00  0.00    -0.532 OA
HETATM   27  O   UNL     1       9.362  24.251  56.230  1.00  0.00    -0.532 OA
ENDBRANCH  21  25
ENDBRANCH   2  19
BRANCH   6  28
HETATM   28  O   UNL     1       3.860  30.155  52.904  1.00  0.00    -0.355 OA
HETATM   29  H   UNL     1       4.356  30.923  52.534  1.00  0.00     0.218 HD
ENDBRANCH   6  28
BRANCH   3  30
HETATM   30  C   UNL     1       5.817  29.954  57.429  1.00  0.00     0.155 C 
BRANCH  30  31
HETATM   31  C   UNL     1       7.207  30.616  57.409  1.00  0.00     0.254 C 
BRANCH  31  32
HETATM   32  N   UNL     1       8.248  29.829  58.202  1.00  0.00    -0.066 N 
HETATM   33  H   UNL     1       7.714  29.116  58.728  1.00  0.00     0.280 HD
HETATM   34  C   UNL     1       8.999  30.662  59.260  1.00  0.00     0.262 C 
HETATM   35  C   UNL     1      10.067  31.587  58.626  1.00  0.00     0.260 C 
HETATM   36  N   UNL     1      10.985  30.806  57.706  1.00  0.00    -0.072 N 
HETATM   37  H   UNL     1      11.629  30.216  58.260  1.00  0.00     0.277 HD
HETATM   38  H   UNL     1      11.615  31.477  57.233  1.00  0.00     0.277 HD
HETATM   39  C   UNL     1      10.274  29.983  56.661  1.00  0.00     0.260 C 
HETATM   40  C   UNL     1       9.215  29.053  57.304  1.00  0.00     0.262 C 
ENDBRANCH  31  32
ENDBRANCH  30  31
ENDBRANCH   3  30
TORSDOF 10
ENDMDL
MODEL 2
REMARK VINA RESULT:      -8.5      2.486      5.536
REMARK  10 active torsions:
REMARK  status: ('A' for Active; 'I' for Inactive)
REMARK    1  A    between atoms: C_2  and  O_3 
REMARK    2  A    between atoms: O_3  and  C_4 
REMARK    3  A    between atoms: C_7  and  C_8 
REMARK    4  A    between atoms: C_8  and  C_9 
REMARK    5  A    between atoms: C_10  and  C_11 
REMARK    6  A    between atoms: C_13  and  N_14 
REMARK    7  A    between atoms: N_20  and  C_21 
REMARK    8  A    between atoms: C_21  and  C_22 
REMARK    9  A    between atoms: C_22  and  N_23 
REMARK   10  A    between atoms: C_34  and  O_35 
ROOT
HETATM    1  C   UNL     1       6.695  27.211  57.002  1.00  0.00     0.059 C 
HETATM    2  C   UNL     1       7.149  28.344  56.148  1.00  0.00     0.161 C 
HETATM    3  N   UNL     1       5.892  29.037  55.915  1.00  0.00    -0.332 N 
HETATM    4  C   UNL     1       4.817  28.254  56.313  1.00  0.00     0.278 C 
HETATM    5  O   UNL     1       3.682  28.390  55.885  1.00  0.00    -0.265 OA
HETATM    6  C   UNL     1       5.364  27.160  57.149  1.00  0.00     0.146 C 
ENDROOT
BRANCH   1   7
HETATM    7  C   UNL     1       7.546  26.097  57.461  1.00  0.00     0.193 C 
HETATM    8  O   UNL     1       7.708  25.869  58.651  1.00  0.00    -0.287 OA
BRANCH   7   9
HETATM    9  C   UNL     1       7.987  25.161  56.414  1.00  0.00     0.015 A 
HETATM   10  C   UNL     1       7.302  25.054  55.204  1.00  0.00     0.018 A 
HETATM   11  C   UNL     1       7.613  24.007  54.329  1.00  0.00     0.038 A 
HETATM   12  C   UNL     1       8.608  23.086  54.666  1.00  0.00     0.069 A 
HETATM   13  C   UNL     1       9.346  23.258  55.841  1.00  0.00     0.038 A 
HETATM   14  C   UNL     1       9.032  24.289  56.726  1.00  0.00     0.018 A 
BRANCH  12  15
HETATM   15  O   UNL     1       8.983  22.014  53.910  1.00  0.00    -0.347 OA
BRANCH  15  16
HETATM   16  C   UNL     1       8.149  20.848  53.930  1.00  0.00     0.120 C 
HETATM   17  C   UNL     1       8.665  19.855  54.971  1.00  0.00     0.040 C 
HETATM   18  C   UNL     1       8.228  20.231  52.537  1.00  0.00     0.040 C 
ENDBRANCH  15  16
ENDBRANCH  12  15
ENDBRANCH   7   9
ENDBRANCH   1   7
BRANCH   2  19
HETATM   19  C   UNL     1       8.208  29.272  56.693  1.00  0.00    -0.028 A 
HETATM   20  C   UNL     1       7.897  30.052  57.822  1.00  0.00     0.045 A 
HETATM   21  C   UNL     1       8.866  30.884  58.404  1.00  0.00     0.103 A 
HETATM   22  C   UNL     1      10.146  30.975  57.858  1.00  0.00     0.036 A 
HETATM   23  C   UNL     1      10.457  30.209  56.733  1.00  0.00     0.003 A 
HETATM   24  C   UNL     1       9.503  29.356  56.162  1.00  0.00     0.010 A 
BRANCH  21  25
HETATM   25  N   UNL     1       8.521  31.626  59.622  1.00  0.00    -0.116 N 
HETATM   26  O   UNL     1       7.761  31.057  60.424  1.00  0.00    -0.532 OA
HETATM   27  O   UNL     1       9.014  32.746  59.777  1.00  0.00    -0.532 OA
ENDBRANCH  21  25
ENDBRANCH   2  19
BRANCH   6  28
HETATM   28  O   UNL     1       4.608  26.204  57.758  1.00  0.00    -0.355 OA
HETATM   29  H   UNL     1       3.660  26.401  57.573  1.00  0.00     0.218 HD
ENDBRANCH   6  28
BRANCH   3  30
HETATM   30  C   UNL     1       5.722  30.102  54.945  1.00  0.00     0.155 C 
BRANCH  30  31
HETATM   31  C   UNL     1       4.937  29.632  53.707  1.00  0.00     0.254 C 
BRANCH  31  32
HETATM   32  N   UNL     1       5.843  29.099  52.600  1.00  0.00    -0.066 N 
HETATM   33  H   UNL     1       6.740  29.604  52.710  1.00  0.00     0.280 HD
HETATM   34  C   UNL     1       5.352  29.415  51.173  1.00  0.00     0.262 C 
HETATM   35  C   UNL     1       4.169  28.509  50.749  1.00  0.00     0.260 C 
HETATM   36  N   UNL     1       4.503  27.046  50.965  1.00  0.00    -0.072 N 
HETATM   37  H   UNL     1       5.181  26.724  50.254  1.00  0.00     0.277 HD
HETATM   38  H   UNL     1       3.654  26.488  50.762  1.00  0.00     0.277 HD
HETATM   39  C   UNL     1       4.986  26.711  52.354  1.00  0.00     0.260 C 
HETATM   40  C   UNL     1       6.174  27.614  52.767  1.00  0.00     0.262 C 
ENDBRANCH  31  32
ENDBRANCH  30  31
ENDBRANCH   3  30
TORSDOF 10
ENDMDL
MODEL 3
REMARK VINA RESULT:      -8.3      2.643      5.139
REMARK  10 active torsions:
REMARK  status: ('A' for Active; 'I' for Inactive)
REMARK    1  A    between atoms: C_2  and  O_3 
REMARK    2  A    between atoms: O_3  and  C_4 
REMARK    3  A    between atoms: C_7  and  C_8 
REMARK    4  A    between atoms: C_8  and  C_9 
REMARK    5  A    between atoms: C_10  and  C_11 
REMARK    6  A    between atoms: C_13  and  N_14 
REMARK    7  A    between atoms: N_20  and  C_21 
REMARK    8  A    between atoms: C_21  and  C_22 
REMARK    9  A    between atoms: C_22  and  N_23 
REMARK   10  A    between atoms: C_34  and  O_35 
ROOT
HETATM    1  C   UNL     1       6.610  27.283  57.066  1.00  0.00     0.059 C 
HETATM    2  C   UNL     1       7.103  28.549  56.456  1.00  0.00     0.161 C 
HETATM    3  N   UNL     1       5.849  29.230  56.177  1.00  0.00    -0.332 N 
HETATM    4  C   UNL     1       4.776  28.362  56.316  1.00  0.00     0.278 C 
HETATM    5  O   UNL     1       3.693  28.527  55.778  1.00  0.00    -0.265 OA
HETATM    6  C   UNL     1       5.275  27.169  57.039  1.00  0.00     0.146 C 
ENDROOT
BRANCH   1   7
HETATM    7  C   UNL     1       7.455  26.139  57.453  1.00  0.00     0.193 C 
HETATM    8  O   UNL     1       7.636  25.849  58.627  1.00  0.00    -0.287 OA
BRANCH   7   9
HETATM    9  C   UNL     1       7.867  25.251  56.352  1.00  0.00     0.015 A 
HETATM   10  C   UNL     1       7.191  25.251  55.132  1.00  0.00     0.018 A 
HETATM   11  C   UNL     1       7.466  24.249  54.196  1.00  0.00     0.038 A 
HETATM   12  C   UNL     1       8.416  23.265  54.482  1.00  0.00     0.069 A 
HETATM   13  C   UNL     1       9.148  23.331  55.671  1.00  0.00     0.038 A 
HETATM   14  C   UNL     1       8.870  24.316  56.617  1.00  0.00     0.018 A 
BRANCH  12  15
HETATM   15  O   UNL     1       8.753  22.228  53.662  1.00  0.00    -0.347 OA
BRANCH  15  16
HETATM   16  C   UNL     1       7.883  21.088  53.623  1.00  0.00     0.120 C 
HETATM   17  C   UNL     1       7.885  20.385  54.980  1.00  0.00     0.040 C 
HETATM   18  C   UNL     1       8.436  20.154  52.551  1.00  0.00     0.040 C 
ENDBRANCH  15  16
ENDBRANCH  12  15
ENDBRANCH   7   9
ENDBRANCH   1   7
BRANCH   2  19
HETATM   19  C   UNL     1       8.043  29.413  57.262  1.00  0.00    -0.028 A 
HETATM   20  C   UNL     1       7.606  29.896  58.508  1.00  0.00     0.045 A 
HETATM   21  C   UNL     1       8.464  30.652  59.322  1.00  0.00     0.103 A 
HETATM   22  C   UNL     1       9.755  30.962  58.899  1.00  0.00     0.036 A 
HETATM   23  C   UNL     1      10.193  30.492  57.659  1.00  0.00     0.003 A 
HETATM   24  C   UNL     1       9.350  29.715  56.852  1.00  0.00     0.010 A 
BRANCH  21  25
HETATM   25  N   UNL     1       7.992  31.075  60.645  1.00  0.00    -0.116 N 
HETATM   26  O   UNL     1       6.899  31.667  60.684  1.00  0.00    -0.532 OA
HETATM   27  O   UNL     1       8.692  30.805  61.624  1.00  0.00    -0.532 OA
ENDBRANCH  21  25
ENDBRANCH   2  19
BRANCH   6  28
HETATM   28  O   UNL     1       4.502  26.106  57.399  1.00  0.00    -0.355 OA
HETATM   29  H   UNL     1       3.580  26.284  57.098  1.00  0.00     0.218 HD
ENDBRANCH   6  28
BRANCH   3  30
HETATM   30  C   UNL     1       5.741  30.428  55.366  1.00  0.00     0.155 C 
BRANCH  30  31
HETATM   31  C   UNL     1       5.331  31.653  56.203  1.00  0.00     0.254 C 
BRANCH  31  32
HETATM   32  N   UNL     1       3.878  31.590  56.669  1.00  0.00    -0.066 N 
HETATM   33  H   UNL     1       3.501  30.706  56.284  1.00  0.00     0.280 HD
HETATM   34  C   UNL     1       2.983  32.713  56.106  1.00  0.00     0.262 C 
HETATM   35  C   UNL     1       3.234  34.069  56.812  1.00  0.00     0.260 C 
HETATM   36  N   UNL     1       3.144  33.920  58.318  1.00  0.00    -0.072 N 
HETATM   37  H   UNL     1       2.159  33.797  58.608  1.00  0.00     0.277 HD
HETATM   38  H   UNL     1       3.413  34.823  58.748  1.00  0.00     0.277 HD
HETATM   39  C   UNL     1       4.010  32.828  58.894  1.00  0.00     0.260 C 
HETATM   40  C   UNL     1       3.747  31.474  58.190  1.00  0.00     0.262 C 
ENDBRANCH  31  32
ENDBRANCH  30  31
ENDBRANCH   3  30
TORSDOF 10
ENDMDL
MODEL 4
REMARK VINA RESULT:      -8.1      3.597      6.203
REMARK  10 active torsions:
REMARK  status: ('A' for Active; 'I' for Inactive)
REMARK    1  A    between atoms: C_2  and  O_3 
REMARK    2  A    between atoms: O_3  and  C_4 
REMARK    3  A    between atoms: C_7  and  C_8 
REMARK    4  A    between atoms: C_8  and  C_9 
REMARK    5  A    between atoms: C_10  and  C_11 
REMARK    6  A    between atoms: C_13  and  N_14 
REMARK    7  A    between atoms: N_20  and  C_21 
REMARK    8  A    between atoms: C_21  and  C_22 
REMARK    9  A    between atoms: C_22  and  N_23 
REMARK   10  A    between atoms: C_34  and  O_35 
ROOT
HETATM    1  C   UNL     1       8.876  30.406  57.771  1.00  0.00     0.059 C 
HETATM    2  C   UNL     1       7.584  30.298  58.507  1.00  0.00     0.161 C 
HETATM    3  N   UNL     1       7.738  31.353  59.494  1.00  0.00    -0.332 N 
HETATM    4  C   UNL     1       9.049  31.805  59.533  1.00  0.00     0.278 C 
HETATM    5  O   UNL     1       9.547  32.368  60.495  1.00  0.00    -0.265 OA
HETATM    6  C   UNL     1       9.719  31.295  58.313  1.00  0.00     0.146 C 
ENDROOT
BRANCH   1   7
HETATM    7  C   UNL     1       9.328  29.491  56.707  1.00  0.00     0.193 C 
HETATM    8  O   UNL     1      10.469  29.538  56.271  1.00  0.00    -0.287 OA
BRANCH   7   9
HETATM    9  C   UNL     1       8.405  28.392  56.378  1.00  0.00     0.015 A 
HETATM   10  C   UNL     1       8.315  27.257  57.184  1.00  0.00     0.018 A 
HETATM   11  C   UNL     1       7.597  26.147  56.727  1.00  0.00     0.038 A 
HETATM   12  C   UNL     1       6.971  26.183  55.479  1.00  0.00     0.069 A 
HETATM   13  C   UNL     1       6.996  27.359  54.723  1.00  0.00     0.038 A 
HETATM   14  C   UNL     1       7.721  28.464  55.162  1.00  0.00     0.018 A 
BRANCH  12  15
HETATM   15  O   UNL     1       6.265  25.159  54.917  1.00  0.00    -0.347 OA
BRANCH  15  16
HETATM   16  C   UNL     1       6.306  25.014  53.491  1.00  0.00     0.120 C 
HETATM   17  C   UNL     1       4.887  24.871  52.941  1.00  0.00     0.040 C 
HETATM   18  C   UNL     1       7.106  23.746  53.204  1.00  0.00     0.040 C 
ENDBRANCH  15  16
ENDBRANCH  12  15
ENDBRANCH   7   9
ENDBRANCH   1   7
BRANCH   2  19
HETATM   19  C   UNL     1       6.301  30.443  57.725  1.00  0.00    -0.028 A 
HETATM   20  C   UNL     1       6.072  31.646  57.031  1.00  0.00     0.045 A 
HETATM   21  C   UNL     1       4.925  31.807  56.241  1.00  0.00     0.103 A 
HETATM   22  C   UNL     1       3.975  30.791  56.149  1.00  0.00     0.036 A 
HETATM   23  C   UNL     1       4.193  29.597  56.841  1.00  0.00     0.003 A 
HETATM   24  C   UNL     1       5.350  29.419  57.613  1.00  0.00     0.010 A 
BRANCH  21  25
HETATM   25  N   UNL     1       4.761  33.050  55.479  1.00  0.00    -0.116 N 
HETATM   26  O   UNL     1       4.125  32.971  54.414  1.00  0.00    -0.532 OA
HETATM   27  O   UNL     1       5.244  34.085  55.946  1.00  0.00    -0.532 OA
ENDBRANCH  21  25
ENDBRANCH   2  19
BRANCH   6  28
HETATM   28  O   UNL     1      11.011  31.563  57.975  1.00  0.00    -0.355 OA
HETATM   29  H   UNL     1      11.146  31.282  57.039  1.00  0.00     0.218 HD
ENDBRANCH   6  28
BRANCH   3  30
HETATM   30  C   UNL     1       6.850  31.538  60.627  1.00  0.00     0.155 C 
BRANCH  30  31
HETATM   31  C   UNL     1       6.040  32.842  60.515  1.00  0.00     0.254 C 
BRANCH  31  32
HETATM   32  N   UNL     1       6.267  33.781  61.698  1.00  0.00    -0.066 N 
HETATM   33  H   UNL     1       7.100  34.343  61.449  1.00  0.00     0.280 HD
HETATM   34  C   UNL     1       6.616  33.065  63.017  1.00  0.00     0.262 C 
HETATM   35  C   UNL     1       5.376  32.410  63.674  1.00  0.00     0.260 C 
HETATM   36  N   UNL     1       4.244  33.410  63.808  1.00  0.00    -0.072 N 
HETATM   37  H   UNL     1       4.452  34.088  64.561  1.00  0.00     0.277 HD
HETATM   38  H   UNL     1       3.409  32.907  64.159  1.00  0.00     0.277 HD
HETATM   39  C   UNL     1       3.882  34.125  62.531  1.00  0.00     0.260 C 
HETATM   40  C   UNL     1       5.126  34.784  61.886  1.00  0.00     0.262 C 
ENDBRANCH  31  32
ENDBRANCH  30  31
ENDBRANCH   3  30
TORSDOF 10
ENDMDL
MODEL 5
REMARK VINA RESULT:      -7.9      3.090      7.754
REMARK  10 active torsions:
REMARK  status: ('A' for Active; 'I' for Inactive)
REMARK    1  A    between atoms: C_2  and  O_3 
REMARK    2  A    between atoms: O_3  and  C_4 
REMARK    3  A    between atoms: C_7  and  C_8 
REMARK    4  A    between atoms: C_8  and  C_9 
REMARK    5  A    between atoms: C_10  and  C_11 
REMARK    6  A    between atoms: C_13  and  N_14 
REMARK    7  A    between atoms: N_20  and  C_21 
REMARK    8  A    between atoms: C_21  and  C_22 
REMARK    9  A    between atoms: C_22  and  N_23 
REMARK   10  A    between atoms: C_34  and  O_35 
ROOT
HETATM    1  C   UNL     1       5.408  29.909  55.489  1.00  0.00     0.059 C 
HETATM    2  C   UNL     1       6.206  29.074  56.431  1.00  0.00     0.161 C 
HETATM    3  N   UNL     1       6.148  27.780  55.773  1.00  0.00    -0.332 N 
HETATM    4  C   UNL     1       5.200  27.784  54.760  1.00  0.00     0.278 C 
HETATM    5  O   UNL     1       4.663  26.776  54.326  1.00  0.00    -0.265 OA
HETATM    6  C   UNL     1       4.855  29.200  54.495  1.00  0.00     0.146 C 
ENDROOT
BRANCH   1   7
HETATM    7  C   UNL     1       5.033  31.318  55.708  1.00  0.00     0.193 C 
HETATM    8  O   UNL     1       4.885  32.089  54.772  1.00  0.00    -0.287 OA
BRANCH   7   9
HETATM    9  C   UNL     1       4.633  31.663  57.083  1.00  0.00     0.015 A 
HETATM   10  C   UNL     1       5.339  32.609  57.826  1.00  0.00     0.018 A 
HETATM   11  C   UNL     1       5.069  32.749  59.191  1.00  0.00     0.038 A 
HETATM   12  C   UNL     1       4.095  31.952  59.798  1.00  0.00     0.069 A 
HETATM   13  C   UNL     1       3.336  31.071  59.022  1.00  0.00     0.038 A 
HETATM   14  C   UNL     1       3.608  30.913  57.664  1.00  0.00     0.018 A 
BRANCH  12  15
HETATM   15  O   UNL     1       3.760  31.979  61.120  1.00  0.00    -0.347 OA
BRANCH  15  16
HETATM   16  C   UNL     1       4.585  32.745  62.009  1.00  0.00     0.120 C 
HETATM   17  C   UNL     1       5.350  31.810  62.946  1.00  0.00     0.040 C 
HETATM   18  C   UNL     1       3.645  33.636  62.817  1.00  0.00     0.040 C 
ENDBRANCH  15  16
ENDBRANCH  12  15
ENDBRANCH   7   9
ENDBRANCH   1   7
BRANCH   2  19
HETATM   19  C   UNL     1       7.627  29.490  56.728  1.00  0.00    -0.028 A 
HETATM   20  C   UNL     1       7.903  30.090  57.970  1.00  0.00     0.045 A 
HETATM   21  C   UNL     1       9.216  30.439  58.318  1.00  0.00     0.103 A 
HETATM   22  C   UNL     1      10.269  30.222  57.430  1.00  0.00     0.036 A 
HETATM   23  C   UNL     1      10.000  29.633  56.193  1.00  0.00     0.003 A 
HETATM   24  C   UNL     1       8.694  29.259  55.848  1.00  0.00     0.010 A 
BRANCH  21  25
HETATM   25  N   UNL     1       9.469  30.997  59.651  1.00  0.00    -0.116 N 
HETATM   26  O   UNL     1       9.904  32.161  59.694  1.00  0.00    -0.532 OA
HETATM   27  O   UNL     1       9.223  30.291  60.632  1.00  0.00    -0.532 OA
ENDBRANCH  21  25
ENDBRANCH   2  19
BRANCH   6  28
HETATM   28  O   UNL     1       3.980  29.614  53.536  1.00  0.00    -0.355 OA
HETATM   29  H   UNL     1       3.353  30.252  53.949  1.00  0.00     0.218 HD
ENDBRANCH   6  28
BRANCH   3  30
HETATM   30  C   UNL     1       6.580  26.538  56.387  1.00  0.00     0.155 C 
BRANCH  30  31
HETATM   31  C   UNL     1       7.446  25.696  55.433  1.00  0.00     0.254 C 
BRANCH  31  32
HETATM   32  N   UNL     1       6.798  24.361  55.071  1.00  0.00    -0.066 N 
HETATM   33  H   UNL     1       5.839  24.405  55.457  1.00  0.00     0.280 HD
HETATM   34  C   UNL     1       7.464  23.136  55.728  1.00  0.00     0.262 C 
HETATM   35  C   UNL     1       8.803  22.762  55.045  1.00  0.00     0.260 C 
HETATM   36  N   UNL     1       8.627  22.624  53.545  1.00  0.00    -0.072 N 
HETATM   37  H   UNL     1       8.114  21.754  53.324  1.00  0.00     0.277 HD
HETATM   38  H   UNL     1       9.560  22.472  53.123  1.00  0.00     0.277 HD
HETATM   39  C   UNL     1       7.977  23.810  52.878  1.00  0.00     0.260 C 
HETATM   40  C   UNL     1       6.635  24.172  53.561  1.00  0.00     0.262 C 
ENDBRANCH  31  32
ENDBRANCH  30  31
ENDBRANCH   3  30
TORSDOF 10
ENDMDL
MODEL 6
REMARK VINA RESULT:      -7.9      2.451      3.530
REMARK  10 active torsions:
REMARK  status: ('A' for Active; 'I' for Inactive)
REMARK    1  A    between atoms: C_2  and  O_3 
REMARK    2  A    between atoms: O_3  and  C_4 
REMARK    3  A    between atoms: C_7  and  C_8 
REMARK    4  A    between atoms: C_8  and  C_9 
REMARK    5  A    between atoms: C_10  and  C_11 
REMARK    6  A    between atoms: C_13  and  N_14 
REMARK    7  A    between atoms: N_20  and  C_21 
REMARK    8  A    between atoms: C_21  and  C_22 
REMARK    9  A    between atoms: C_22  and  N_23 
REMARK   10  A    between atoms: C_34  and  O_35 
ROOT
HETATM    1  C   UNL     1       5.035  28.973  53.607  1.00  0.00     0.059 C 
HETATM    2  C   UNL     1       5.818  29.696  54.648  1.00  0.00     0.161 C 
HETATM    3  N   UNL     1       4.760  30.399  55.354  1.00  0.00    -0.332 N 
HETATM    4  C   UNL     1       3.571  30.343  54.641  1.00  0.00     0.278 C 
HETATM    5  O   UNL     1       2.661  31.147  54.772  1.00  0.00    -0.265 OA
HETATM    6  C   UNL     1       3.733  29.293  53.609  1.00  0.00     0.146 C 
ENDROOT
BRANCH   1   7
HETATM    7  C   UNL     1       5.610  28.168  52.514  1.00  0.00     0.193 C 
HETATM    8  O   UNL     1       5.959  28.681  51.462  1.00  0.00    -0.287 OA
BRANCH   7   9
HETATM    9  C   UNL     1       5.942  26.774  52.858  1.00  0.00     0.015 A 
HETATM   10  C   UNL     1       4.952  25.866  53.233  1.00  0.00     0.018 A 
HETATM   11  C   UNL     1       5.324  24.625  53.762  1.00  0.00     0.038 A 
HETATM   12  C   UNL     1       6.676  24.302  53.903  1.00  0.00     0.069 A 
HETATM   13  C   UNL     1       7.655  25.187  53.441  1.00  0.00     0.038 A 
HETATM   14  C   UNL     1       7.294  26.431  52.928  1.00  0.00     0.018 A 
BRANCH  12  15
HETATM   15  O   UNL     1       7.161  23.138  54.425  1.00  0.00    -0.347 OA
BRANCH  15  16
HETATM   16  C   UNL     1       8.334  22.568  53.829  1.00  0.00     0.120 C 
HETATM   17  C   UNL     1       7.964  21.307  53.049  1.00  0.00     0.040 C 
HETATM   18  C   UNL     1       9.278  22.214  54.975  1.00  0.00     0.040 C 
ENDBRANCH  15  16
ENDBRANCH  12  15
ENDBRANCH   7   9
ENDBRANCH   1   7
BRANCH   2  19
HETATM   19  C   UNL     1       6.678  28.886  55.589  1.00  0.00    -0.028 A 
HETATM   20  C   UNL     1       7.937  29.397  55.953  1.00  0.00     0.045 A 
HETATM   21  C   UNL     1       8.747  28.712  56.871  1.00  0.00     0.103 A 
HETATM   22  C   UNL     1       8.333  27.499  57.419  1.00  0.00     0.036 A 
HETATM   23  C   UNL     1       7.087  26.983  57.055  1.00  0.00     0.003 A 
HETATM   24  C   UNL     1       6.261  27.674  56.158  1.00  0.00     0.010 A 
BRANCH  21  25
HETATM   25  N   UNL     1      10.021  29.316  57.277  1.00  0.00    -0.116 N 
HETATM   26  O   UNL     1      10.008  29.999  58.316  1.00  0.00    -0.532 OA
HETATM   27  O   UNL     1      11.014  29.097  56.579  1.00  0.00    -0.532 OA
ENDBRANCH  21  25
ENDBRANCH   2  19
BRANCH   6  28
HETATM   28  O   UNL     1       2.760  28.916  52.733  1.00  0.00    -0.355 OA
HETATM   29  H   UNL     1       2.802  29.517  51.953  1.00  0.00     0.218 HD
ENDBRANCH   6  28
BRANCH   3  30
HETATM   30  C   UNL     1       4.995  31.442  56.335  1.00  0.00     0.155 C 
BRANCH  30  31
HETATM   31  C   UNL     1       4.588  31.000  57.752  1.00  0.00     0.254 C 
BRANCH  31  32
HETATM   32  N   UNL     1       3.472  31.859  58.341  1.00  0.00    -0.066 N 
HETATM   33  H   UNL     1       2.590  31.444  57.994  1.00  0.00     0.280 HD
HETATM   34  C   UNL     1       3.473  33.321  57.851  1.00  0.00     0.262 C 
HETATM   35  C   UNL     1       4.584  34.163  58.525  1.00  0.00     0.260 C 
HETATM   36  N   UNL     1       4.524  34.030  60.034  1.00  0.00    -0.072 N 
HETATM   37  H   UNL     1       3.714  34.552  60.408  1.00  0.00     0.277 HD
HETATM   38  H   UNL     1       5.340  34.527  60.435  1.00  0.00     0.277 HD
HETATM   39  C   UNL     1       4.522  32.609  60.540  1.00  0.00     0.260 C 
HETATM   40  C   UNL     1       3.402  31.777  59.868  1.00  0.00     0.262 C 
ENDBRANCH  31  32
ENDBRANCH  30  31
ENDBRANCH   3  30
TORSDOF 10
ENDMDL
MODEL 7
REMARK VINA RESULT:      -7.8      3.212      4.873
REMARK  10 active torsions:
REMARK  status: ('A' for Active; 'I' for Inactive)
REMARK    1  A    between atoms: C_2  and  O_3 
REMARK    2  A    between atoms: O_3  and  C_4 
REMARK    3  A    between atoms: C_7  and  C_8 
REMARK    4  A    between atoms: C_8  and  C_9 
REMARK    5  A    between atoms: C_10  and  C_11 
REMARK    6  A    between atoms: C_13  and  N_14 
REMARK    7  A    between atoms: N_20  and  C_21 
REMARK    8  A    between atoms: C_21  and  C_22 
REMARK    9  A    between atoms: C_22  and  N_23 
REMARK   10  A    between atoms: C_34  and  O_35 
ROOT
HETATM    1  C   UNL     1       5.956  28.712  56.018  1.00  0.00     0.059 C 
HETATM    2  C   UNL     1       6.563  30.051  56.260  1.00  0.00     0.161 C 
HETATM    3  N   UNL     1       5.588  30.639  57.164  1.00  0.00    -0.332 N 
HETATM    4  C   UNL     1       4.429  29.878  57.201  1.00  0.00     0.278 C 
HETATM    5  O   UNL     1       3.338  30.315  57.534  1.00  0.00    -0.265 OA
HETATM    6  C   UNL     1       4.749  28.570  56.584  1.00  0.00     0.146 C 
ENDROOT
BRANCH   1   7
HETATM    7  C   UNL     1       6.467  27.704  55.072  1.00  0.00     0.193 C 
HETATM    8  O   UNL     1       6.716  27.990  53.910  1.00  0.00    -0.287 OA
BRANCH   7   9
HETATM    9  C   UNL     1       6.868  26.418  55.669  1.00  0.00     0.015 A 
HETATM   10  C   UNL     1       7.844  26.354  56.662  1.00  0.00     0.018 A 
HETATM   11  C   UNL     1       8.353  25.109  57.045  1.00  0.00     0.038 A 
HETATM   12  C   UNL     1       7.877  23.942  56.441  1.00  0.00     0.069 A 
HETATM   13  C   UNL     1       6.836  24.016  55.510  1.00  0.00     0.038 A 
HETATM   14  C   UNL     1       6.334  25.253  55.111  1.00  0.00     0.018 A 
BRANCH  12  15
HETATM   15  O   UNL     1       8.310  22.677  56.712  1.00  0.00    -0.347 OA
BRANCH  15  16
HETATM   16  C   UNL     1       8.194  21.688  55.679  1.00  0.00     0.120 C 
HETATM   17  C   UNL     1       8.102  20.295  56.301  1.00  0.00     0.040 C 
HETATM   18  C   UNL     1       9.456  21.796  54.828  1.00  0.00     0.040 C 
ENDBRANCH  15  16
ENDBRANCH  12  15
ENDBRANCH   7   9
ENDBRANCH   1   7
BRANCH   2  19
HETATM   19  C   UNL     1       7.961  30.111  56.826  1.00  0.00    -0.028 A 
HETATM   20  C   UNL     1       8.131  30.575  58.143  1.00  0.00     0.045 A 
HETATM   21  C   UNL     1       9.402  30.593  58.736  1.00  0.00     0.103 A 
HETATM   22  C   UNL     1      10.526  30.177  58.023  1.00  0.00     0.036 A 
HETATM   23  C   UNL     1      10.365  29.723  56.712  1.00  0.00     0.003 A 
HETATM   24  C   UNL     1       9.094  29.678  56.122  1.00  0.00     0.010 A 
BRANCH  21  25
HETATM   25  N   UNL     1       9.524  31.017  60.135  1.00  0.00    -0.116 N 
HETATM   26  O   UNL     1       9.924  32.177  60.333  1.00  0.00    -0.532 OA
HETATM   27  O   UNL     1       9.209  30.211  61.015  1.00  0.00    -0.532 OA
ENDBRANCH  21  25
ENDBRANCH   2  19
BRANCH   6  28
HETATM   28  O   UNL     1       3.870  27.535  56.471  1.00  0.00    -0.355 OA
HETATM   29  H   UNL     1       3.641  27.432  55.518  1.00  0.00     0.218 HD
ENDBRANCH   6  28
BRANCH   3  30
HETATM   30  C   UNL     1       5.575  32.040  57.541  1.00  0.00     0.155 C 
BRANCH  30  31
HETATM   31  C   UNL     1       5.541  32.222  59.070  1.00  0.00     0.254 C 
BRANCH  31  32
HETATM   32  N   UNL     1       4.133  32.480  59.602  1.00  0.00    -0.066 N 
HETATM   33  H   UNL     1       3.558  31.691  59.257  1.00  0.00     0.280 HD
HETATM   34  C   UNL     1       3.472  33.759  59.051  1.00  0.00     0.262 C 
HETATM   35  C   UNL     1       4.040  35.041  59.709  1.00  0.00     0.260 C 
HETATM   36  N   UNL     1       3.996  34.939  61.221  1.00  0.00    -0.072 N 
HETATM   37  H   UNL     1       3.023  35.034  61.558  1.00  0.00     0.277 HD
HETATM   38  H   UNL     1       4.472  35.770  61.615  1.00  0.00     0.277 HD
HETATM   39  C   UNL     1       4.636  33.696  61.786  1.00  0.00     0.260 C 
HETATM   40  C   UNL     1       4.056  32.418  61.130  1.00  0.00     0.262 C 
ENDBRANCH  31  32
ENDBRANCH  30  31
ENDBRANCH   3  30
TORSDOF 10
ENDMDL
MODEL 8
REMARK VINA RESULT:      -7.8      2.367      4.794
REMARK  10 active torsions:
REMARK  status: ('A' for Active; 'I' for Inactive)
REMARK    1  A    between atoms: C_2  and  O_3 
REMARK    2  A    between atoms: O_3  and  C_4 
REMARK    3  A    between atoms: C_7  and  C_8 
REMARK    4  A    between atoms: C_8  and  C_9 
REMARK    5  A    between atoms: C_10  and  C_11 
REMARK    6  A    between atoms: C_13  and  N_14 
REMARK    7  A    between atoms: N_20  and  C_21 
REMARK    8  A    between atoms: C_21  and  C_22 
REMARK    9  A    between atoms: C_22  and  N_23 
REMARK   10  A    between atoms: C_34  and  O_35 
ROOT
HETATM    1  C   UNL     1       7.642  28.816  55.427  1.00  0.00     0.059 C 
HETATM    2  C   UNL     1       6.947  29.096  56.715  1.00  0.00     0.161 C 
HETATM    3  N   UNL     1       7.992  29.789  57.450  1.00  0.00    -0.332 N 
HETATM    4  C   UNL     1       9.215  29.660  56.807  1.00  0.00     0.278 C 
HETATM    5  O   UNL     1      10.294  29.779  57.366  1.00  0.00    -0.265 OA
HETATM    6  C   UNL     1       8.935  29.170  55.437  1.00  0.00     0.146 C 
ENDROOT
BRANCH   1   7
HETATM    7  C   UNL     1       7.088  28.020  54.316  1.00  0.00     0.193 C 
HETATM    8  O   UNL     1       6.595  28.556  53.334  1.00  0.00    -0.287 OA
BRANCH   7   9
HETATM    9  C   UNL     1       7.373  26.576  54.365  1.00  0.00     0.015 A 
HETATM   10  C   UNL     1       7.718  25.868  53.214  1.00  0.00     0.018 A 
HETATM   11  C   UNL     1       7.765  24.470  53.257  1.00  0.00     0.038 A 
HETATM   12  C   UNL     1       7.476  23.796  54.446  1.00  0.00     0.069 A 
HETATM   13  C   UNL     1       7.218  24.524  55.612  1.00  0.00     0.038 A 
HETATM   14  C   UNL     1       7.154  25.915  55.576  1.00  0.00     0.018 A 
BRANCH  12  15
HETATM   15  O   UNL     1       7.466  22.441  54.606  1.00  0.00    -0.347 OA
BRANCH  15  16
HETATM   16  C   UNL     1       8.623  21.704  54.190  1.00  0.00     0.120 C 
HETATM   17  C   UNL     1       8.256  20.761  53.044  1.00  0.00     0.040 C 
HETATM   18  C   UNL     1       9.085  20.897  55.401  1.00  0.00     0.040 C 
ENDBRANCH  15  16
ENDBRANCH  12  15
ENDBRANCH   7   9
ENDBRANCH   1   7
BRANCH   2  19
HETATM   19  C   UNL     1       5.665  29.892  56.678  1.00  0.00    -0.028 A 
HETATM   20  C   UNL     1       5.714  31.219  56.215  1.00  0.00     0.045 A 
HETATM   21  C   UNL     1       4.541  31.981  56.104  1.00  0.00     0.103 A 
HETATM   22  C   UNL     1       3.308  31.447  56.476  1.00  0.00     0.036 A 
HETATM   23  C   UNL     1       3.254  30.132  56.943  1.00  0.00     0.003 A 
HETATM   24  C   UNL     1       4.418  29.356  57.033  1.00  0.00     0.010 A 
BRANCH  21  25
HETATM   25  N   UNL     1       4.629  33.336  55.550  1.00  0.00    -0.116 N 
HETATM   26  O   UNL     1       5.272  34.169  56.212  1.00  0.00    -0.532 OA
HETATM   27  O   UNL     1       4.078  33.557  54.468  1.00  0.00    -0.532 OA
ENDBRANCH  21  25
ENDBRANCH   2  19
BRANCH   6  28
HETATM   28  O   UNL     1       9.886  28.955  54.485  1.00  0.00    -0.355 OA
HETATM   29  H   UNL     1       9.811  29.673  53.813  1.00  0.00     0.218 HD
ENDBRANCH   6  28
BRANCH   3  30
HETATM   30  C   UNL     1       7.922  30.092  58.867  1.00  0.00     0.155 C 
BRANCH  30  31
HETATM   31  C   UNL     1       7.357  31.501  59.125  1.00  0.00     0.254 C 
BRANCH  31  32
HETATM   32  N   UNL     1       8.194  32.299  60.122  1.00  0.00    -0.066 N 
HETATM   33  H   UNL     1       8.493  33.150  59.615  1.00  0.00     0.280 HD
HETATM   34  C   UNL     1       9.491  31.594  60.567  1.00  0.00     0.262 C 
HETATM   35  C   UNL     1       9.219  30.457  61.584  1.00  0.00     0.260 C 
HETATM   36  N   UNL     1       8.373  30.954  62.739  1.00  0.00    -0.072 N 
HETATM   37  H   UNL     1       8.936  31.559  63.361  1.00  0.00     0.277 HD
HETATM   38  H   UNL     1       8.136  30.144  63.339  1.00  0.00     0.277 HD
HETATM   39  C   UNL     1       7.098  31.648  62.331  1.00  0.00     0.260 C 
HETATM   40  C   UNL     1       7.379  32.789  61.322  1.00  0.00     0.262 C 
ENDBRANCH  31  32
ENDBRANCH  30  31
ENDBRANCH   3  30
TORSDOF 10
ENDMDL
MODEL 9
REMARK VINA RESULT:      -7.7      5.632     10.085
REMARK  10 active torsions:
REMARK  status: ('A' for Active; 'I' for Inactive)
REMARK    1  A    between atoms: C_2  and  O_3 
REMARK    2  A    between atoms: O_3  and  C_4 
REMARK    3  A    between atoms: C_7  and  C_8 
REMARK    4  A    between atoms: C_8  and  C_9 
REMARK    5  A    between atoms: C_10  and  C_11 
REMARK    6  A    between atoms: C_13  and  N_14 
REMARK    7  A    between atoms: N_20  and  C_21 
REMARK    8  A    between atoms: C_21  and  C_22 
REMARK    9  A    between atoms: C_22  and  N_23 
REMARK   10  A    between atoms: C_34  and  O_35 
ROOT
HETATM    1  C   UNL     1       3.728  34.513  59.032  1.00  0.00     0.059 C 
HETATM    2  C   UNL     1       3.874  33.047  59.257  1.00  0.00     0.161 C 
HETATM    3  N   UNL     1       4.490  32.634  58.007  1.00  0.00    -0.332 N 
HETATM    4  C   UNL     1       4.430  33.654  57.067  1.00  0.00     0.278 C 
HETATM    5  O   UNL     1       4.492  33.472  55.862  1.00  0.00    -0.265 OA
HETATM    6  C   UNL     1       4.081  34.895  57.797  1.00  0.00     0.146 C 
ENDROOT
BRANCH   1   7
HETATM    7  C   UNL     1       3.049  35.451  59.945  1.00  0.00     0.193 C 
HETATM    8  O   UNL     1       1.942  35.899  59.688  1.00  0.00    -0.287 OA
BRANCH   7   9
HETATM    9  C   UNL     1       3.682  35.623  61.264  1.00  0.00     0.015 A 
HETATM   10  C   UNL     1       5.039  35.918  61.382  1.00  0.00     0.018 A 
HETATM   11  C   UNL     1       5.648  35.856  62.640  1.00  0.00     0.038 A 
HETATM   12  C   UNL     1       4.895  35.510  63.766  1.00  0.00     0.069 A 
HETATM   13  C   UNL     1       3.518  35.304  63.644  1.00  0.00     0.038 A 
HETATM   14  C   UNL     1       2.906  35.348  62.393  1.00  0.00     0.018 A 
BRANCH  12  15
HETATM   15  O   UNL     1       5.379  35.394  65.036  1.00  0.00    -0.347 OA
BRANCH  15  16
HETATM   16  C   UNL     1       5.461  34.082  65.610  1.00  0.00     0.120 C 
HETATM   17  C   UNL     1       4.828  34.081  67.001  1.00  0.00     0.040 C 
HETATM   18  C   UNL     1       6.946  33.744  65.713  1.00  0.00     0.040 C 
ENDBRANCH  15  16
ENDBRANCH  12  15
ENDBRANCH   7   9
ENDBRANCH   1   7
BRANCH   2  19
HETATM   19  C   UNL     1       4.667  32.583  60.454  1.00  0.00    -0.028 A 
HETATM   20  C   UNL     1       6.071  32.640  60.390  1.00  0.00     0.045 A 
HETATM   21  C   UNL     1       6.852  32.278  61.498  1.00  0.00     0.103 A 
HETATM   22  C   UNL     1       6.253  31.827  62.674  1.00  0.00     0.036 A 
HETATM   23  C   UNL     1       4.860  31.760  62.741  1.00  0.00     0.003 A 
HETATM   24  C   UNL     1       4.072  32.145  61.647  1.00  0.00     0.010 A 
BRANCH  21  25
HETATM   25  N   UNL     1       8.310  32.420  61.412  1.00  0.00    -0.116 N 
HETATM   26  O   UNL     1       8.965  32.054  62.403  1.00  0.00    -0.532 OA
HETATM   27  O   UNL     1       8.787  32.874  60.369  1.00  0.00    -0.532 OA
ENDBRANCH  21  25
ENDBRANCH   2  19
BRANCH   6  28
HETATM   28  O   UNL     1       3.967  36.123  57.218  1.00  0.00    -0.355 OA
HETATM   29  H   UNL     1       4.207  36.802  57.892  1.00  0.00     0.218 HD
ENDBRANCH   6  28
BRANCH   3  30
HETATM   30  C   UNL     1       4.647  31.251  57.599  1.00  0.00     0.155 C 
BRANCH  30  31
HETATM   31  C   UNL     1       6.120  30.895  57.329  1.00  0.00     0.254 C 
BRANCH  31  32
HETATM   32  N   UNL     1       6.600  29.701  58.151  1.00  0.00    -0.066 N 
HETATM   33  H   UNL     1       5.943  29.631  58.948  1.00  0.00     0.280 HD
HETATM   34  C   UNL     1       8.000  29.880  58.771  1.00  0.00     0.262 C 
HETATM   35  C   UNL     1       9.129  29.713  57.723  1.00  0.00     0.260 C 
HETATM   36  N   UNL     1       8.967  28.415  56.955  1.00  0.00    -0.072 N 
HETATM   37  H   UNL     1       9.219  27.611  57.554  1.00  0.00     0.277 HD
HETATM   38  H   UNL     1       9.681  28.393  56.205  1.00  0.00     0.277 HD
HETATM   39  C   UNL     1       7.606  28.216  56.338  1.00  0.00     0.260 C 
HETATM   40  C   UNL     1       6.483  28.375  57.394  1.00  0.00     0.262 C 
ENDBRANCH  31  32
ENDBRANCH  30  31
ENDBRANCH   3  30
TORSDOF 10
ENDMDL
MODEL 10
REMARK VINA RESULT:      -7.6      7.959     11.758
REMARK  10 active torsions:
REMARK  status: ('A' for Active; 'I' for Inactive)
REMARK    1  A    between atoms: C_2  and  O_3 
REMARK    2  A    between atoms: O_3  and  C_4 
REMARK    3  A    between atoms: C_7  and  C_8 
REMARK    4  A    between atoms: C_8  and  C_9 
REMARK    5  A    between atoms: C_10  and  C_11 
REMARK    6  A    between atoms: C_13  and  N_14 
REMARK    7  A    between atoms: N_20  and  C_21 
REMARK    8  A    between atoms: C_21  and  C_22 
REMARK    9  A    between atoms: C_22  and  N_23 
REMARK   10  A    between atoms: C_34  and  O_35 
ROOT
HETATM    1  C   UNL     1       3.492  34.721  63.406  1.00  0.00     0.059 C 
HETATM    2  C   UNL     1       4.129  35.541  62.337  1.00  0.00     0.161 C 
HETATM    3  N   UNL     1       2.976  35.870  61.515  1.00  0.00    -0.332 N 
HETATM    4  C   UNL     1       1.879  35.100  61.874  1.00  0.00     0.278 C 
HETATM    5  O   UNL     1       0.936  34.871  61.133  1.00  0.00    -0.265 OA
HETATM    6  C   UNL     1       2.190  34.489  63.187  1.00  0.00     0.146 C 
ENDROOT
BRANCH   1   7
HETATM    7  C   UNL     1       4.213  34.013  64.479  1.00  0.00     0.193 C 
HETATM    8  O   UNL     1       3.681  33.776  65.554  1.00  0.00    -0.287 OA
BRANCH   7   9
HETATM    9  C   UNL     1       5.505  33.421  64.093  1.00  0.00     0.015 A 
HETATM   10  C   UNL     1       6.678  33.735  64.779  1.00  0.00     0.018 A 
HETATM   11  C   UNL     1       7.910  33.331  64.252  1.00  0.00     0.038 A 
HETATM   12  C   UNL     1       7.957  32.613  63.054  1.00  0.00     0.069 A 
HETATM   13  C   UNL     1       6.768  32.230  62.426  1.00  0.00     0.038 A 
HETATM   14  C   UNL     1       5.538  32.641  62.935  1.00  0.00     0.018 A 
BRANCH  12  15
HETATM   15  O   UNL     1       9.093  32.186  62.432  1.00  0.00    -0.347 OA
BRANCH  15  16
HETATM   16  C   UNL     1       8.972  31.167  61.430  1.00  0.00     0.120 C 
HETATM   17  C   UNL     1       9.679  29.893  61.893  1.00  0.00     0.040 C 
HETATM   18  C   UNL     1       9.646  31.708  60.173  1.00  0.00     0.040 C 
ENDBRANCH  15  16
ENDBRANCH  12  15
ENDBRANCH   7   9
ENDBRANCH   1   7
BRANCH   2  19
HETATM   19  C   UNL     1       4.897  36.775  62.745  1.00  0.00    -0.028 A 
HETATM   20  C   UNL     1       5.687  37.422  61.777  1.00  0.00     0.045 A 
HETATM   21  C   UNL     1       6.372  38.606  62.088  1.00  0.00     0.103 A 
HETATM   22  C   UNL     1       6.305  39.149  63.371  1.00  0.00     0.036 A 
HETATM   23  C   UNL     1       5.529  38.507  64.338  1.00  0.00     0.003 A 
HETATM   24  C   UNL     1       4.821  37.338  64.027  1.00  0.00     0.010 A 
BRANCH  21  25
HETATM   25  N   UNL     1       7.126  39.286  61.030  1.00  0.00    -0.116 N 
HETATM   26  O   UNL     1       8.049  40.034  61.396  1.00  0.00    -0.532 OA
HETATM   27  O   UNL     1       6.811  39.062  59.858  1.00  0.00    -0.532 OA
ENDBRANCH  21  25
ENDBRANCH   2  19
BRANCH   6  28
HETATM   28  O   UNL     1       1.336  33.691  63.888  1.00  0.00    -0.355 OA
HETATM   29  H   UNL     1       1.478  33.862  64.849  1.00  0.00     0.218 HD
ENDBRANCH   6  28
BRANCH   3  30
HETATM   30  C   UNL     1       3.065  36.475  60.200  1.00  0.00     0.155 C 
BRANCH  30  31
HETATM   31  C   UNL     1       3.962  35.658  59.252  1.00  0.00     0.254 C 
BRANCH  31  32
HETATM   32  N   UNL     1       3.309  34.355  58.797  1.00  0.00    -0.066 N 
HETATM   33  H   UNL     1       2.321  34.420  59.101  1.00  0.00     0.280 HD
HETATM   34  C   UNL     1       3.878  33.092  59.474  1.00  0.00     0.262 C 
HETATM   35  C   UNL     1       5.259  32.693  58.898  1.00  0.00     0.260 C 
HETATM   36  N   UNL     1       5.209  32.599  57.385  1.00  0.00    -0.072 N 
HETATM   37  H   UNL     1       4.692  31.752  57.095  1.00  0.00     0.277 HD
HETATM   38  H   UNL     1       6.170  32.427  57.040  1.00  0.00     0.277 HD
HETATM   39  C   UNL     1       4.656  33.823  56.699  1.00  0.00     0.260 C 
HETATM   40  C   UNL     1       3.271  34.210  57.273  1.00  0.00     0.262 C 
ENDBRANCH  31  32
ENDBRANCH  30  31
ENDBRANCH   3  30
TORSDOF 10
ENDMDL
