MODEL 1
REMARK VINA RESULT:      -9.5      0.000      0.000
REMARK  9 active torsions:
REMARK  status: ('A' for Active; 'I' for Inactive)
REMARK    1  A    between atoms: C_5  and  N_6 
REMARK       I    between atoms: N_6  and  C_7 
REMARK    2  A    between atoms: C_7  and  C_8 
REMARK    3  A    between atoms: C_8  and  C_9 
REMARK    4  A    between atoms: C_9  and  C_10 
REMARK       I    between atoms: C_10  and  N_11 
REMARK    5  A    between atoms: N_11  and  C_12 
REMARK    6  A    between atoms: N_11  and  C_29 
REMARK    7  A    between atoms: C_12  and  C_13 
REMARK       I    between atoms: C_13  and  N_14 
REMARK    8  A    between atoms: N_14  and  C_15 
REMARK    9  A    between atoms: C_29  and  C_30 
ROOT
HETATM    1  C   UNL     1       8.983  28.595  55.419  1.00  0.00     0.221 C 
HETATM    2  N   UNL     1       7.724  28.001  55.263  1.00  0.00    -0.328 N 
HETATM    3  O   UNL     1       9.554  29.130  54.459  1.00  0.00    -0.273 OA
ENDROOT
BRANCH   2   4
HETATM    4  C   UNL     1       6.944  27.159  56.282  1.00  0.00     0.119 C 
HETATM    5  C   UNL     1       5.528  26.709  55.806  1.00  0.00     0.069 C 
HETATM    6  C   UNL     1       4.614  27.872  55.509  1.00  0.00     0.237 C 
HETATM    7  N   UNL     1       4.355  28.598  56.801  1.00  0.00    -0.075 N 
HETATM    8  H   UNL     1       3.892  27.933  57.441  1.00  0.00     0.279 HD
HETATM    9  C   UNL     1       3.370  29.723  56.602  1.00  0.00     0.269 C 
HETATM   10  C   UNL     1       5.619  29.063  57.471  1.00  0.00     0.237 C 
HETATM   11  C   UNL     1       6.632  27.919  57.619  1.00  0.00     0.069 C 
BRANCH   4  12
HETATM   12  C   UNL     1       7.694  25.860  56.738  1.00  0.00     0.246 C 
HETATM   13  N   UNL     1       7.835  24.836  55.830  1.00  0.00    -0.354 N 
HETATM   14  H   UNL     1       7.449  24.935  54.895  1.00  0.00     0.162 HD
HETATM   15  O   UNL     1       8.298  25.855  57.811  1.00  0.00    -0.271 OA
BRANCH  13  16
HETATM   16  C   UNL     1       8.791  23.740  56.059  1.00  0.00     0.084 C 
HETATM   17  C   UNL     1       8.260  22.619  56.975  1.00  0.00     0.025 C 
HETATM   18  C   UNL     1       7.317  21.634  56.288  1.00  0.00     0.002 C 
HETATM   19  C   UNL     1       7.884  21.098  54.981  1.00  0.00     0.000 C 
HETATM   20  C   UNL     1       8.300  22.236  54.058  1.00  0.00     0.002 C 
HETATM   21  C   UNL     1       9.312  23.155  54.738  1.00  0.00     0.025 C 
ENDBRANCH  13  16
ENDBRANCH   4  12
ENDBRANCH   2   4
BRANCH   2  22
HETATM   22  C   UNL     1       7.168  28.242  53.906  1.00  0.00     0.192 C 
BRANCH  22  23
HETATM   23  C   UNL     1       7.161  27.026  53.048  1.00  0.00     0.070 A 
HETATM   24  O   UNL     1       6.011  26.757  52.368  1.00  0.00    -0.325 OA
HETATM   25  C   UNL     1       6.187  25.550  51.764  1.00  0.00     0.142 A 
HETATM   26  C   UNL     1       7.446  25.061  52.018  1.00  0.00     0.027 A 
HETATM   27  C   UNL     1       8.075  26.010  52.853  1.00  0.00     0.036 A 
ENDBRANCH  22  23
ENDBRANCH   2  22
BRANCH   1  28
HETATM   28  C   UNL     1       9.686  28.732  56.748  1.00  0.00     0.112 C 
BRANCH  28  29
HETATM   29  C   UNL     1      10.473  30.023  56.786  1.00  0.00     0.112 C 
BRANCH  29  30
HETATM   30  C   UNL     1      10.007  30.929  57.908  1.00  0.00     0.223 C 
HETATM   31  N   UNL     1       8.964  30.384  58.629  1.00  0.00    -0.310 N 
HETATM   32  H   UNL     1       8.540  29.515  58.332  1.00  0.00     0.170 HD
HETATM   33  O   UNL     1      10.563  32.004  58.090  1.00  0.00    -0.273 OA
BRANCH  31  34
HETATM   34  C   UNL     1       8.382  30.984  59.729  1.00  0.00     0.160 A 
HETATM   35  N   UNL     1       7.199  31.599  59.757  1.00  0.00    -0.110 NA
HETATM   36  O   UNL     1       7.022  32.043  61.051  1.00  0.00    -0.216 OA
HETATM   37  C   UNL     1       8.104  31.701  61.795  1.00  0.00     0.078 A 
HETATM   38  C   UNL     1       8.082  32.099  63.213  1.00  0.00     0.079 C 
HETATM   39  C   UNL     1       8.997  31.025  61.003  1.00  0.00     0.087 A 
ENDBRANCH  31  34
ENDBRANCH  29  30
ENDBRANCH  28  29
ENDBRANCH   1  28
TORSDOF 9
ENDMDL
MODEL 2
REMARK VINA RESULT:      -8.8      1.672      3.223
REMARK  9 active torsions:
REMARK  status: ('A' for Active; 'I' for Inactive)
REMARK    1  A    between atoms: C_5  and  N_6 
REMARK       I    between atoms: N_6  and  C_7 
REMARK    2  A    between atoms: C_7  and  C_8 
REMARK    3  A    between atoms: C_8  and  C_9 
REMARK    4  A    between atoms: C_9  and  C_10 
REMARK       I    between atoms: C_10  and  N_11 
REMARK    5  A    between atoms: N_11  and  C_12 
REMARK    6  A    between atoms: N_11  and  C_29 
REMARK    7  A    between atoms: C_12  and  C_13 
REMARK       I    between atoms: C_13  and  N_14 
REMARK    8  A    between atoms: N_14  and  C_15 
REMARK    9  A    between atoms: C_29  and  C_30 
ROOT
HETATM    1  C   UNL     1       7.138  28.803  55.930  1.00  0.00     0.221 C 
HETATM    2  N   UNL     1       6.350  27.669  55.698  1.00  0.00    -0.328 N 
HETATM    3  O   UNL     1       6.674  29.785  56.525  1.00  0.00    -0.273 OA
ENDROOT
BRANCH   2   4
HETATM    4  C   UNL     1       6.694  26.438  54.849  1.00  0.00     0.119 C 
HETATM    5  C   UNL     1       7.492  26.749  53.544  1.00  0.00     0.069 C 
HETATM    6  C   UNL     1       6.740  27.653  52.601  1.00  0.00     0.237 C 
HETATM    7  N   UNL     1       5.524  26.909  52.119  1.00  0.00    -0.075 N 
HETATM    8  H   UNL     1       5.855  26.068  51.621  1.00  0.00     0.279 HD
HETATM    9  C   UNL     1       4.767  27.716  51.093  1.00  0.00     0.269 C 
HETATM   10  C   UNL     1       4.639  26.449  53.245  1.00  0.00     0.237 C 
HETATM   11  C   UNL     1       5.434  25.676  54.306  1.00  0.00     0.069 C 
BRANCH   4  12
HETATM   12  C   UNL     1       7.510  25.343  55.619  1.00  0.00     0.246 C 
HETATM   13  N   UNL     1       7.776  24.156  54.977  1.00  0.00    -0.354 N 
HETATM   14  H   UNL     1       7.436  24.008  54.031  1.00  0.00     0.162 HD
HETATM   15  O   UNL     1       8.053  25.632  56.687  1.00  0.00    -0.271 OA
BRANCH  13  16
HETATM   16  C   UNL     1       8.796  23.224  55.488  1.00  0.00     0.084 C 
HETATM   17  C   UNL     1       8.262  22.203  56.512  1.00  0.00     0.025 C 
HETATM   18  C   UNL     1       7.511  21.023  55.898  1.00  0.00     0.002 C 
HETATM   19  C   UNL     1       8.288  20.363  54.767  1.00  0.00     0.000 C 
HETATM   20  C   UNL     1       8.708  21.387  53.720  1.00  0.00     0.002 C 
HETATM   21  C   UNL     1       9.533  22.509  54.347  1.00  0.00     0.025 C 
ENDBRANCH  13  16
ENDBRANCH   4  12
ENDBRANCH   2   4
BRANCH   2  22
HETATM   22  C   UNL     1       5.028  27.773  56.368  1.00  0.00     0.192 C 
BRANCH  22  23
HETATM   23  C   UNL     1       4.214  28.923  55.891  1.00  0.00     0.070 A 
HETATM   24  O   UNL     1       4.193  29.149  54.547  1.00  0.00    -0.325 OA
HETATM   25  C   UNL     1       3.507  30.309  54.355  1.00  0.00     0.142 A 
HETATM   26  C   UNL     1       3.056  30.808  55.554  1.00  0.00     0.027 A 
HETATM   27  C   UNL     1       3.518  29.918  56.548  1.00  0.00     0.036 A 
ENDBRANCH  22  23
ENDBRANCH   2  22
BRANCH   1  28
HETATM   28  C   UNL     1       8.606  28.888  55.589  1.00  0.00     0.112 C 
BRANCH  28  29
HETATM   29  C   UNL     1       9.440  28.532  56.800  1.00  0.00     0.112 C 
BRANCH  29  30
HETATM   30  C   UNL     1       9.716  29.744  57.666  1.00  0.00     0.223 C 
HETATM   31  N   UNL     1       8.713  29.978  58.584  1.00  0.00    -0.310 N 
HETATM   32  H   UNL     1       7.868  29.422  58.567  1.00  0.00     0.170 HD
HETATM   33  O   UNL     1      10.751  30.379  57.507  1.00  0.00    -0.273 OA
BRANCH  31  34
HETATM   34  C   UNL     1       8.738  30.993  59.520  1.00  0.00     0.160 A 
HETATM   35  N   UNL     1       9.029  32.274  59.286  1.00  0.00    -0.110 NA
HETATM   36  O   UNL     1       8.930  32.923  60.500  1.00  0.00    -0.216 OA
HETATM   37  C   UNL     1       8.590  32.029  61.461  1.00  0.00     0.078 A 
HETATM   38  C   UNL     1       8.439  32.555  62.828  1.00  0.00     0.079 C 
HETATM   39  C   UNL     1       8.454  30.788  60.891  1.00  0.00     0.087 A 
ENDBRANCH  31  34
ENDBRANCH  29  30
ENDBRANCH  28  29
ENDBRANCH   1  28
TORSDOF 9
ENDMDL
MODEL 3
REMARK VINA RESULT:      -8.7      2.194      4.545
REMARK  9 active torsions:
REMARK  status: ('A' for Active; 'I' for Inactive)
REMARK    1  A    between atoms: C_5  and  N_6 
REMARK       I    between atoms: N_6  and  C_7 
REMARK    2  A    between atoms: C_7  and  C_8 
REMARK    3  A    between atoms: C_8  and  C_9 
REMARK    4  A    between atoms: C_9  and  C_10 
REMARK       I    between atoms: C_10  and  N_11 
REMARK    5  A    between atoms: N_11  and  C_12 
REMARK    6  A    between atoms: N_11  and  C_29 
REMARK    7  A    between atoms: C_12  and  C_13 
REMARK       I    between atoms: C_13  and  N_14 
REMARK    8  A    between atoms: N_14  and  C_15 
REMARK    9  A    between atoms: C_29  and  C_30 
ROOT
HETATM    1  C   UNL     1       8.145  28.197  56.760  1.00  0.00     0.221 C 
HETATM    2  N   UNL     1       6.905  27.864  56.200  1.00  0.00    -0.328 N 
HETATM    3  O   UNL     1       8.667  27.472  57.617  1.00  0.00    -0.273 OA
ENDROOT
BRANCH   2   4
HETATM    4  C   UNL     1       6.036  28.709  55.259  1.00  0.00     0.119 C 
HETATM    5  C   UNL     1       6.096  30.246  55.522  1.00  0.00     0.069 C 
HETATM    6  C   UNL     1       5.621  30.621  56.904  1.00  0.00     0.237 C 
HETATM    7  N   UNL     1       4.156  30.289  56.994  1.00  0.00    -0.075 N 
HETATM    8  H   UNL     1       3.667  30.854  56.282  1.00  0.00     0.279 HD
HETATM    9  C   UNL     1       3.583  30.725  58.320  1.00  0.00     0.269 C 
HETATM   10  C   UNL     1       3.867  28.842  56.699  1.00  0.00     0.237 C 
HETATM   11  C   UNL     1       4.501  28.401  55.373  1.00  0.00     0.069 C 
BRANCH   4  12
HETATM   12  C   UNL     1       6.363  28.506  53.739  1.00  0.00     0.246 C 
HETATM   13  N   UNL     1       5.421  28.888  52.813  1.00  0.00    -0.354 N 
HETATM   14  H   UNL     1       4.538  29.283  53.126  1.00  0.00     0.162 HD
HETATM   15  O   UNL     1       7.507  28.195  53.403  1.00  0.00    -0.271 OA
BRANCH  13  16
HETATM   16  C   UNL     1       5.769  29.039  51.389  1.00  0.00     0.084 C 
HETATM   17  C   UNL     1       5.237  27.909  50.486  1.00  0.00     0.025 C 
HETATM   18  C   UNL     1       3.758  28.031  50.124  1.00  0.00     0.002 C 
HETATM   19  C   UNL     1       3.398  29.414  49.600  1.00  0.00     0.000 C 
HETATM   20  C   UNL     1       3.845  30.501  50.569  1.00  0.00     0.002 C 
HETATM   21  C   UNL     1       5.345  30.410  50.844  1.00  0.00     0.025 C 
ENDBRANCH  13  16
ENDBRANCH   4  12
ENDBRANCH   2   4
BRANCH   2  22
HETATM   22  C   UNL     1       6.440  26.527  56.652  1.00  0.00     0.192 C 
BRANCH  22  23
HETATM   23  C   UNL     1       6.697  25.448  55.661  1.00  0.00     0.070 A 
HETATM   24  O   UNL     1       7.903  24.817  55.733  1.00  0.00    -0.325 OA
HETATM   25  C   UNL     1       7.969  23.974  54.666  1.00  0.00     0.142 A 
HETATM   26  C   UNL     1       6.807  24.029  53.934  1.00  0.00     0.027 A 
HETATM   27  C   UNL     1       5.986  24.986  54.571  1.00  0.00     0.036 A 
ENDBRANCH  22  23
ENDBRANCH   2  22
BRANCH   1  28
HETATM   28  C   UNL     1       8.981  29.369  56.308  1.00  0.00     0.112 C 
BRANCH  28  29
HETATM   29  C   UNL     1      10.090  29.628  57.304  1.00  0.00     0.112 C 
BRANCH  29  30
HETATM   30  C   UNL     1       9.725  30.735  58.273  1.00  0.00     0.223 C 
HETATM   31  N   UNL     1       8.714  30.368  59.137  1.00  0.00    -0.310 N 
HETATM   32  H   UNL     1       8.245  29.479  59.023  1.00  0.00     0.170 HD
HETATM   33  O   UNL     1      10.325  31.801  58.230  1.00  0.00    -0.273 OA
BRANCH  31  34
HETATM   34  C   UNL     1       8.223  31.175  60.145  1.00  0.00     0.160 A 
HETATM   35  N   UNL     1       7.201  32.026  60.045  1.00  0.00    -0.110 NA
HETATM   36  O   UNL     1       7.061  32.613  61.286  1.00  0.00    -0.216 OA
HETATM   37  C   UNL     1       8.004  32.119  62.126  1.00  0.00     0.078 A 
HETATM   38  C   UNL     1       7.999  32.639  63.503  1.00  0.00     0.079 C 
HETATM   39  C   UNL     1       8.768  31.200  61.451  1.00  0.00     0.087 A 
ENDBRANCH  31  34
ENDBRANCH  29  30
ENDBRANCH  28  29
ENDBRANCH   1  28
TORSDOF 9
ENDMDL
MODEL 4
REMARK VINA RESULT:      -8.6      1.721      5.023
REMARK  9 active torsions:
REMARK  status: ('A' for Active; 'I' for Inactive)
REMARK    1  A    between atoms: C_5  and  N_6 
REMARK       I    between atoms: N_6  and  C_7 
REMARK    2  A    between atoms: C_7  and  C_8 
REMARK    3  A    between atoms: C_8  and  C_9 
REMARK    4  A    between atoms: C_9  and  C_10 
REMARK       I    between atoms: C_10  and  N_11 
REMARK    5  A    between atoms: N_11  and  C_12 
REMARK    6  A    between atoms: N_11  and  C_29 
REMARK    7  A    between atoms: C_12  and  C_13 
REMARK       I    between atoms: C_13  and  N_14 
REMARK    8  A    between atoms: N_14  and  C_15 
REMARK    9  A    between atoms: C_29  and  C_30 
ROOT
HETATM    1  C   UNL     1       8.342  28.463  54.835  1.00  0.00     0.221 C 
HETATM    2  N   UNL     1       7.298  27.534  54.752  1.00  0.00    -0.328 N 
HETATM    3  O   UNL     1       9.176  28.562  53.924  1.00  0.00    -0.273 OA
ENDROOT
BRANCH   2   4
HETATM    4  C   UNL     1       6.280  27.158  55.837  1.00  0.00     0.119 C 
HETATM    5  C   UNL     1       6.875  27.034  57.274  1.00  0.00     0.069 C 
HETATM    6  C   UNL     1       7.937  25.968  57.377  1.00  0.00     0.237 C 
HETATM    7  N   UNL     1       7.279  24.636  57.135  1.00  0.00    -0.075 N 
HETATM    8  H   UNL     1       6.568  24.506  57.872  1.00  0.00     0.279 HD
HETATM    9  C   UNL     1       8.263  23.507  57.315  1.00  0.00     0.269 C 
HETATM   10  C   UNL     1       6.573  24.568  55.808  1.00  0.00     0.237 C 
HETATM   11  C   UNL     1       5.616  25.753  55.618  1.00  0.00     0.069 C 
BRANCH   4  12
HETATM   12  C   UNL     1       5.069  28.149  55.941  1.00  0.00     0.246 C 
HETATM   13  N   UNL     1       5.251  29.333  56.618  1.00  0.00    -0.354 N 
HETATM   14  H   UNL     1       6.153  29.537  57.041  1.00  0.00     0.162 HD
HETATM   15  O   UNL     1       4.059  27.944  55.266  1.00  0.00    -0.271 OA
BRANCH  13  16
HETATM   16  C   UNL     1       4.294  30.444  56.484  1.00  0.00     0.084 C 
HETATM   17  C   UNL     1       3.231  30.500  57.600  1.00  0.00     0.025 C 
HETATM   18  C   UNL     1       3.725  31.102  58.914  1.00  0.00     0.002 C 
HETATM   19  C   UNL     1       4.433  32.435  58.715  1.00  0.00     0.000 C 
HETATM   20  C   UNL     1       5.546  32.315  57.683  1.00  0.00     0.002 C 
HETATM   21  C   UNL     1       5.009  31.796  56.351  1.00  0.00     0.025 C 
ENDBRANCH  13  16
ENDBRANCH   4  12
ENDBRANCH   2   4
BRANCH   2  22
HETATM   22  C   UNL     1       7.270  26.856  53.430  1.00  0.00     0.192 C 
BRANCH  22  23
HETATM   23  C   UNL     1       6.216  27.382  52.521  1.00  0.00     0.070 A 
HETATM   24  O   UNL     1       5.635  26.492  51.668  1.00  0.00    -0.325 OA
HETATM   25  C   UNL     1       4.809  27.208  50.857  1.00  0.00     0.142 A 
HETATM   26  C   UNL     1       4.826  28.538  51.202  1.00  0.00     0.027 A 
HETATM   27  C   UNL     1       5.739  28.655  52.274  1.00  0.00     0.036 A 
ENDBRANCH  22  23
ENDBRANCH   2  22
BRANCH   1  28
HETATM   28  C   UNL     1       8.480  29.472  55.949  1.00  0.00     0.112 C 
BRANCH  28  29
HETATM   29  C   UNL     1       9.908  29.499  56.450  1.00  0.00     0.112 C 
BRANCH  29  30
HETATM   30  C   UNL     1      10.081  30.477  57.594  1.00  0.00     0.223 C 
HETATM   31  N   UNL     1       8.947  30.588  58.371  1.00  0.00    -0.310 N 
HETATM   32  H   UNL     1       8.096  30.113  58.100  1.00  0.00     0.170 HD
HETATM   33  O   UNL     1      11.152  31.051  57.743  1.00  0.00    -0.273 OA
BRANCH  31  34
HETATM   34  C   UNL     1       8.853  31.378  59.501  1.00  0.00     0.160 A 
HETATM   35  N   UNL     1       9.148  32.676  59.580  1.00  0.00    -0.110 NA
HETATM   36  O   UNL     1       8.907  33.050  60.886  1.00  0.00    -0.216 OA
HETATM   37  C   UNL     1       8.476  31.973  61.590  1.00  0.00     0.078 A 
HETATM   38  C   UNL     1       8.168  32.195  63.013  1.00  0.00     0.079 C 
HETATM   39  C   UNL     1       8.423  30.886  60.756  1.00  0.00     0.087 A 
ENDBRANCH  31  34
ENDBRANCH  29  30
ENDBRANCH  28  29
ENDBRANCH   1  28
TORSDOF 9
ENDMDL
MODEL 5
REMARK VINA RESULT:      -8.3      2.008      3.511
REMARK  9 active torsions:
REMARK  status: ('A' for Active; 'I' for Inactive)
REMARK    1  A    between atoms: C_5  and  N_6 
REMARK       I    between atoms: N_6  and  C_7 
REMARK    2  A    between atoms: C_7  and  C_8 
REMARK    3  A    between atoms: C_8  and  C_9 
REMARK    4  A    between atoms: C_9  and  C_10 
REMARK       I    between atoms: C_10  and  N_11 
REMARK    5  A    between atoms: N_11  and  C_12 
REMARK    6  A    between atoms: N_11  and  C_29 
REMARK    7  A    between atoms: C_12  and  C_13 
REMARK       I    between atoms: C_13  and  N_14 
REMARK    8  A    between atoms: N_14  and  C_15 
REMARK    9  A    between atoms: C_29  and  C_30 
ROOT
HETATM    1  C   UNL     1       5.142  29.963  56.158  1.00  0.00     0.221 C 
HETATM    2  N   UNL     1       6.079  29.070  55.623  1.00  0.00    -0.328 N 
HETATM    3  O   UNL     1       4.603  30.818  55.442  1.00  0.00    -0.273 OA
ENDROOT
BRANCH   2   4
HETATM    4  C   UNL     1       6.960  28.064  56.376  1.00  0.00     0.119 C 
HETATM    5  C   UNL     1       7.192  28.399  57.882  1.00  0.00     0.069 C 
HETATM    6  C   UNL     1       7.883  29.724  58.086  1.00  0.00     0.237 C 
HETATM    7  N   UNL     1       9.272  29.613  57.517  1.00  0.00    -0.075 N 
HETATM    8  H   UNL     1       9.760  28.869  58.040  1.00  0.00     0.279 HD
HETATM    9  C   UNL     1      10.062  30.873  57.769  1.00  0.00     0.269 C 
HETATM   10  C   UNL     1       9.275  29.222  56.064  1.00  0.00     0.237 C 
HETATM   11  C   UNL     1       8.424  27.969  55.817  1.00  0.00     0.069 C 
BRANCH   4  12
HETATM   12  C   UNL     1       6.427  26.591  56.325  1.00  0.00     0.246 C 
HETATM   13  N   UNL     1       7.095  25.682  55.537  1.00  0.00    -0.354 N 
HETATM   14  H   UNL     1       7.906  25.980  55.003  1.00  0.00     0.162 HD
HETATM   15  O   UNL     1       5.557  26.234  57.122  1.00  0.00    -0.271 OA
BRANCH  13  16
HETATM   16  C   UNL     1       6.870  24.234  55.685  1.00  0.00     0.084 C 
HETATM   17  C   UNL     1       6.818  23.464  54.350  1.00  0.00     0.025 C 
HETATM   18  C   UNL     1       8.184  23.175  53.732  1.00  0.00     0.002 C 
HETATM   19  C   UNL     1       9.155  22.553  54.727  1.00  0.00     0.000 C 
HETATM   20  C   UNL     1       9.261  23.397  55.990  1.00  0.00     0.002 C 
HETATM   21  C   UNL     1       7.891  23.595  56.637  1.00  0.00     0.025 C 
ENDBRANCH  13  16
ENDBRANCH   4  12
ENDBRANCH   2   4
BRANCH   2  22
HETATM   22  C   UNL     1       6.187  29.207  54.147  1.00  0.00     0.192 C 
BRANCH  22  23
HETATM   23  C   UNL     1       5.795  27.974  53.412  1.00  0.00     0.070 A 
HETATM   24  O   UNL     1       6.794  27.273  52.805  1.00  0.00    -0.325 OA
HETATM   25  C   UNL     1       6.197  26.276  52.096  1.00  0.00     0.142 A 
HETATM   26  C   UNL     1       4.834  26.307  52.270  1.00  0.00     0.027 A 
HETATM   27  C   UNL     1       4.571  27.408  53.115  1.00  0.00     0.036 A 
ENDBRANCH  22  23
ENDBRANCH   2  22
BRANCH   1  28
HETATM   28  C   UNL     1       4.637  29.898  57.579  1.00  0.00     0.112 C 
BRANCH  28  29
HETATM   29  C   UNL     1       4.048  31.232  57.981  1.00  0.00     0.112 C 
BRANCH  29  30
HETATM   30  C   UNL     1       5.020  32.046  58.809  1.00  0.00     0.223 C 
HETATM   31  N   UNL     1       4.727  32.009  60.157  1.00  0.00    -0.310 N 
HETATM   32  H   UNL     1       3.888  31.548  60.482  1.00  0.00     0.170 HD
HETATM   33  O   UNL     1       5.945  32.630  58.258  1.00  0.00    -0.273 OA
BRANCH  31  34
HETATM   34  C   UNL     1       5.481  32.630  61.134  1.00  0.00     0.160 A 
HETATM   35  N   UNL     1       5.467  33.930  61.431  1.00  0.00    -0.110 NA
HETATM   36  O   UNL     1       6.367  34.103  62.463  1.00  0.00    -0.216 OA
HETATM   37  C   UNL     1       6.927  32.907  62.775  1.00  0.00     0.078 A 
HETATM   38  C   UNL     1       7.918  32.907  63.865  1.00  0.00     0.079 C 
HETATM   39  C   UNL     1       6.397  31.938  61.961  1.00  0.00     0.087 A 
ENDBRANCH  31  34
ENDBRANCH  29  30
ENDBRANCH  28  29
ENDBRANCH   1  28
TORSDOF 9
ENDMDL
MODEL 6
REMARK VINA RESULT:      -8.2      3.568      8.160
REMARK  9 active torsions:
REMARK  status: ('A' for Active; 'I' for Inactive)
REMARK    1  A    between atoms: C_5  and  N_6 
REMARK       I    between atoms: N_6  and  C_7 
REMARK    2  A    between atoms: C_7  and  C_8 
REMARK    3  A    between atoms: C_8  and  C_9 
REMARK    4  A    between atoms: C_9  and  C_10 
REMARK       I    between atoms: C_10  and  N_11 
REMARK    5  A    between atoms: N_11  and  C_12 
REMARK    6  A    between atoms: N_11  and  C_29 
REMARK    7  A    between atoms: C_12  and  C_13 
REMARK       I    between atoms: C_13  and  N_14 
REMARK    8  A    between atoms: N_14  and  C_15 
REMARK    9  A    between atoms: C_29  and  C_30 
ROOT
HETATM    1  C   UNL     1       4.854  28.548  53.599  1.00  0.00     0.221 C 
HETATM    2  N   UNL     1       5.164  28.009  54.854  1.00  0.00    -0.328 N 
HETATM    3  O   UNL     1       3.815  29.201  53.431  1.00  0.00    -0.273 OA
ENDROOT
BRANCH   2   4
HETATM    4  C   UNL     1       6.307  27.049  55.212  1.00  0.00     0.119 C 
HETATM    5  C   UNL     1       6.565  26.886  56.742  1.00  0.00     0.069 C 
HETATM    6  C   UNL     1       6.946  28.183  57.412  1.00  0.00     0.237 C 
HETATM    7  N   UNL     1       8.277  28.615  56.859  1.00  0.00    -0.075 N 
HETATM    8  H   UNL     1       8.961  27.877  57.091  1.00  0.00     0.279 HD
HETATM    9  C   UNL     1       8.772  29.860  57.551  1.00  0.00     0.269 C 
HETATM   10  C   UNL     1       8.264  28.765  55.362  1.00  0.00     0.237 C 
HETATM   11  C   UNL     1       7.708  27.509  54.675  1.00  0.00     0.069 C 
BRANCH   4  12
HETATM   12  C   UNL     1       6.125  25.602  54.636  1.00  0.00     0.246 C 
HETATM   13  N   UNL     1       7.206  24.752  54.653  1.00  0.00    -0.354 N 
HETATM   14  H   UNL     1       8.094  25.075  55.028  1.00  0.00     0.162 HD
HETATM   15  O   UNL     1       4.993  25.198  54.361  1.00  0.00    -0.271 OA
BRANCH  13  16
HETATM   16  C   UNL     1       7.040  23.303  54.445  1.00  0.00     0.084 C 
HETATM   17  C   UNL     1       7.871  22.735  53.277  1.00  0.00     0.025 C 
HETATM   18  C   UNL     1       9.346  22.507  53.600  1.00  0.00     0.002 C 
HETATM   19  C   UNL     1       9.545  21.725  54.892  1.00  0.00     0.000 C 
HETATM   20  C   UNL     1       8.796  22.376  56.047  1.00  0.00     0.002 C 
HETATM   21  C   UNL     1       7.307  22.510  55.732  1.00  0.00     0.025 C 
ENDBRANCH  13  16
ENDBRANCH   4  12
ENDBRANCH   2   4
BRANCH   2  22
HETATM   22  C   UNL     1       4.200  28.450  55.895  1.00  0.00     0.192 C 
BRANCH  22  23
HETATM   23  C   UNL     1       4.333  29.889  56.249  1.00  0.00     0.070 A 
HETATM   24  O   UNL     1       3.271  30.473  56.873  1.00  0.00    -0.325 OA
HETATM   25  C   UNL     1       3.560  31.798  56.980  1.00  0.00     0.142 A 
HETATM   26  C   UNL     1       4.807  32.065  56.467  1.00  0.00     0.027 A 
HETATM   27  C   UNL     1       5.306  30.834  55.988  1.00  0.00     0.036 A 
ENDBRANCH  22  23
ENDBRANCH   2  22
BRANCH   1  28
HETATM   28  C   UNL     1       5.776  28.482  52.406  1.00  0.00     0.112 C 
BRANCH  28  29
HETATM   29  C   UNL     1       5.485  27.239  51.595  1.00  0.00     0.112 C 
BRANCH  29  30
HETATM   30  C   UNL     1       4.681  27.558  50.351  1.00  0.00     0.223 C 
HETATM   31  N   UNL     1       4.273  26.424  49.680  1.00  0.00    -0.310 N 
HETATM   32  H   UNL     1       4.588  25.511  49.984  1.00  0.00     0.170 HD
HETATM   33  O   UNL     1       4.454  28.725  50.058  1.00  0.00    -0.273 OA
BRANCH  31  34
HETATM   34  C   UNL     1       3.491  26.433  48.541  1.00  0.00     0.160 A 
HETATM   35  N   UNL     1       3.762  25.808  47.395  1.00  0.00    -0.110 NA
HETATM   36  O   UNL     1       2.715  26.090  46.541  1.00  0.00    -0.216 OA
HETATM   37  C   UNL     1       1.822  26.891  47.175  1.00  0.00     0.078 A 
HETATM   38  C   UNL     1       0.633  27.292  46.404  1.00  0.00     0.079 C 
HETATM   39  C   UNL     1       2.267  27.138  48.449  1.00  0.00     0.087 A 
ENDBRANCH  31  34
ENDBRANCH  29  30
ENDBRANCH  28  29
ENDBRANCH   1  28
TORSDOF 9
ENDMDL
MODEL 7
REMARK VINA RESULT:      -8.1      2.043      5.593
REMARK  9 active torsions:
REMARK  status: ('A' for Active; 'I' for Inactive)
REMARK    1  A    between atoms: C_5  and  N_6 
REMARK       I    between atoms: N_6  and  C_7 
REMARK    2  A    between atoms: C_7  and  C_8 
REMARK    3  A    between atoms: C_8  and  C_9 
REMARK    4  A    between atoms: C_9  and  C_10 
REMARK       I    between atoms: C_10  and  N_11 
REMARK    5  A    between atoms: N_11  and  C_12 
REMARK    6  A    between atoms: N_11  and  C_29 
REMARK    7  A    between atoms: C_12  and  C_13 
REMARK       I    between atoms: C_13  and  N_14 
REMARK    8  A    between atoms: N_14  and  C_15 
REMARK    9  A    between atoms: C_29  and  C_30 
ROOT
HETATM    1  C   UNL     1       8.332  27.924  56.652  1.00  0.00     0.221 C 
HETATM    2  N   UNL     1       7.005  27.668  56.285  1.00  0.00    -0.328 N 
HETATM    3  O   UNL     1       8.923  27.182  57.448  1.00  0.00    -0.273 OA
ENDROOT
BRANCH   2   4
HETATM    4  C   UNL     1       6.068  28.552  55.451  1.00  0.00     0.119 C 
HETATM    5  C   UNL     1       4.651  27.948  55.203  1.00  0.00     0.069 C 
HETATM    6  C   UNL     1       4.697  26.642  54.449  1.00  0.00     0.237 C 
HETATM    7  N   UNL     1       5.224  26.924  53.068  1.00  0.00    -0.075 N 
HETATM    8  H   UNL     1       4.565  27.576  52.615  1.00  0.00     0.279 HD
HETATM    9  C   UNL     1       5.210  25.677  52.219  1.00  0.00     0.269 C 
HETATM   10  C   UNL     1       6.576  27.584  53.084  1.00  0.00     0.237 C 
HETATM   11  C   UNL     1       6.587  28.820  53.994  1.00  0.00     0.069 C 
BRANCH   4  12
HETATM   12  C   UNL     1       5.842  29.982  56.054  1.00  0.00     0.246 C 
HETATM   13  N   UNL     1       5.254  30.939  55.260  1.00  0.00    -0.354 N 
HETATM   14  H   UNL     1       4.987  30.708  54.307  1.00  0.00     0.162 HD
HETATM   15  O   UNL     1       6.013  30.164  57.260  1.00  0.00    -0.271 OA
BRANCH  13  16
HETATM   16  C   UNL     1       4.712  32.181  55.837  1.00  0.00     0.084 C 
HETATM   17  C   UNL     1       4.749  33.390  54.881  1.00  0.00     0.025 C 
HETATM   18  C   UNL     1       3.636  33.405  53.836  1.00  0.00     0.002 C 
HETATM   19  C   UNL     1       2.259  33.189  54.447  1.00  0.00     0.000 C 
HETATM   20  C   UNL     1       2.230  31.927  55.300  1.00  0.00     0.002 C 
HETATM   21  C   UNL     1       3.295  31.977  56.394  1.00  0.00     0.025 C 
ENDBRANCH  13  16
ENDBRANCH   4  12
ENDBRANCH   2   4
BRANCH   2  22
HETATM   22  C   UNL     1       6.521  26.377  56.841  1.00  0.00     0.192 C 
BRANCH  22  23
HETATM   23  C   UNL     1       7.225  25.193  56.278  1.00  0.00     0.070 A 
HETATM   24  O   UNL     1       7.603  24.223  57.157  1.00  0.00    -0.325 OA
HETATM   25  C   UNL     1       8.332  23.316  56.451  1.00  0.00     0.142 A 
HETATM   26  C   UNL     1       8.393  23.672  55.125  1.00  0.00     0.027 A 
HETATM   27  C   UNL     1       7.684  24.888  55.011  1.00  0.00     0.036 A 
ENDBRANCH  22  23
ENDBRANCH   2  22
BRANCH   1  28
HETATM   28  C   UNL     1       9.172  29.024  56.048  1.00  0.00     0.112 C 
BRANCH  28  29
HETATM   29  C   UNL     1      10.350  29.328  56.946  1.00  0.00     0.112 C 
BRANCH  29  30
HETATM   30  C   UNL     1      10.057  30.483  57.881  1.00  0.00     0.223 C 
HETATM   31  N   UNL     1       8.999  30.223  58.728  1.00  0.00    -0.310 N 
HETATM   32  H   UNL     1       8.460  29.373  58.622  1.00  0.00     0.170 HD
HETATM   33  O   UNL     1      10.745  31.495  57.830  1.00  0.00    -0.273 OA
BRANCH  31  34
HETATM   34  C   UNL     1       8.555  31.091  59.706  1.00  0.00     0.160 A 
HETATM   35  N   UNL     1       7.850  32.205  59.508  1.00  0.00    -0.110 NA
HETATM   36  O   UNL     1       7.626  32.751  60.756  1.00  0.00    -0.216 OA
HETATM   37  C   UNL     1       8.206  31.967  61.699  1.00  0.00     0.078 A 
HETATM   38  C   UNL     1       8.064  32.404  63.098  1.00  0.00     0.079 C 
HETATM   39  C   UNL     1       8.808  30.898  61.085  1.00  0.00     0.087 A 
ENDBRANCH  31  34
ENDBRANCH  29  30
ENDBRANCH  28  29
ENDBRANCH   1  28
TORSDOF 9
ENDMDL
MODEL 8
REMARK VINA RESULT:      -7.9      6.027     12.163
REMARK  9 active torsions:
REMARK  status: ('A' for Active; 'I' for Inactive)
REMARK    1  A    between atoms: C_5  and  N_6 
REMARK       I    between atoms: N_6  and  C_7 
REMARK    2  A    between atoms: C_7  and  C_8 
REMARK    3  A    between atoms: C_8  and  C_9 
REMARK    4  A    between atoms: C_9  and  C_10 
REMARK       I    between atoms: C_10  and  N_11 
REMARK    5  A    between atoms: N_11  and  C_12 
REMARK    6  A    between atoms: N_11  and  C_29 
REMARK    7  A    between atoms: C_12  and  C_13 
REMARK       I    between atoms: C_13  and  N_14 
REMARK    8  A    between atoms: N_14  and  C_15 
REMARK    9  A    between atoms: C_29  and  C_30 
ROOT
HETATM    1  C   UNL     1       3.564  33.421  62.794  1.00  0.00     0.221 C 
HETATM    2  N   UNL     1       4.748  33.652  63.505  1.00  0.00    -0.328 N 
HETATM    3  O   UNL     1       3.347  32.321  62.267  1.00  0.00    -0.273 OA
ENDROOT
BRANCH   2   4
HETATM    4  C   UNL     1       5.260  34.979  64.081  1.00  0.00     0.119 C 
HETATM    5  C   UNL     1       6.489  34.846  65.033  1.00  0.00     0.069 C 
HETATM    6  C   UNL     1       6.196  34.002  66.249  1.00  0.00     0.237 C 
HETATM    7  N   UNL     1       5.167  34.725  67.076  1.00  0.00    -0.075 N 
HETATM    8  H   UNL     1       5.577  35.629  67.357  1.00  0.00     0.279 HD
HETATM    9  C   UNL     1       4.890  33.986  68.361  1.00  0.00     0.269 C 
HETATM   10  C   UNL     1       3.906  35.019  66.308  1.00  0.00     0.237 C 
HETATM   11  C   UNL     1       4.209  35.723  64.979  1.00  0.00     0.069 C 
BRANCH   4  12
HETATM   12  C   UNL     1       5.656  36.033  62.989  1.00  0.00     0.246 C 
HETATM   13  N   UNL     1       5.700  37.360  63.349  1.00  0.00    -0.354 N 
HETATM   14  H   UNL     1       5.469  37.631  64.301  1.00  0.00     0.162 HD
HETATM   15  O   UNL     1       6.099  35.646  61.907  1.00  0.00    -0.271 OA
BRANCH  13  16
HETATM   16  C   UNL     1       6.369  38.359  62.499  1.00  0.00     0.084 C 
HETATM   17  C   UNL     1       5.477  38.935  61.381  1.00  0.00     0.025 C 
HETATM   18  C   UNL     1       4.494  40.008  61.845  1.00  0.00     0.002 C 
HETATM   19  C   UNL     1       5.164  41.095  62.674  1.00  0.00     0.000 C 
HETATM   20  C   UNL     1       5.949  40.494  63.833  1.00  0.00     0.002 C 
HETATM   21  C   UNL     1       6.987  39.491  63.333  1.00  0.00     0.025 C 
ENDBRANCH  13  16
ENDBRANCH   4  12
ENDBRANCH   2   4
BRANCH   2  22
HETATM   22  C   UNL     1       5.556  32.412  63.643  1.00  0.00     0.192 C 
BRANCH  22  23
HETATM   23  C   UNL     1       6.768  32.400  62.780  1.00  0.00     0.070 A 
HETATM   24  O   UNL     1       6.573  32.556  61.439  1.00  0.00    -0.325 OA
HETATM   25  C   UNL     1       7.785  32.384  60.845  1.00  0.00     0.142 A 
HETATM   26  C   UNL     1       8.759  32.158  61.788  1.00  0.00     0.027 A 
HETATM   27  C   UNL     1       8.103  32.161  63.039  1.00  0.00     0.036 A 
ENDBRANCH  22  23
ENDBRANCH   2  22
BRANCH   1  28
HETATM   28  C   UNL     1       2.433  34.416  62.702  1.00  0.00     0.112 C 
BRANCH  28  29
HETATM   29  C   UNL     1       2.661  35.351  61.534  1.00  0.00     0.112 C 
BRANCH  29  30
HETATM   30  C   UNL     1       2.837  34.592  60.235  1.00  0.00     0.223 C 
HETATM   31  N   UNL     1       4.164  34.428  59.895  1.00  0.00    -0.310 N 
HETATM   32  H   UNL     1       4.889  34.871  60.444  1.00  0.00     0.170 HD
HETATM   33  O   UNL     1       1.852  34.192  59.628  1.00  0.00    -0.273 OA
BRANCH  31  34
HETATM   34  C   UNL     1       4.601  33.735  58.782  1.00  0.00     0.160 A 
HETATM   35  N   UNL     1       5.021  34.272  57.636  1.00  0.00    -0.110 NA
HETATM   36  O   UNL     1       5.359  33.216  56.813  1.00  0.00    -0.216 OA
HETATM   37  C   UNL     1       5.133  32.049  57.465  1.00  0.00     0.078 A 
HETATM   38  C   UNL     1       5.443  30.811  56.730  1.00  0.00     0.079 C 
HETATM   39  C   UNL     1       4.652  32.323  58.721  1.00  0.00     0.087 A 
ENDBRANCH  31  34
ENDBRANCH  29  30
ENDBRANCH  28  29
ENDBRANCH   1  28
TORSDOF 9
ENDMDL
MODEL 9
REMARK VINA RESULT:      -7.8      5.398     12.207
REMARK  9 active torsions:
REMARK  status: ('A' for Active; 'I' for Inactive)
REMARK    1  A    between atoms: C_5  and  N_6 
REMARK       I    between atoms: N_6  and  C_7 
REMARK    2  A    between atoms: C_7  and  C_8 
REMARK    3  A    between atoms: C_8  and  C_9 
REMARK    4  A    between atoms: C_9  and  C_10 
REMARK       I    between atoms: C_10  and  N_11 
REMARK    5  A    between atoms: N_11  and  C_12 
REMARK    6  A    between atoms: N_11  and  C_29 
REMARK    7  A    between atoms: C_12  and  C_13 
REMARK       I    between atoms: C_13  and  N_14 
REMARK    8  A    between atoms: N_14  and  C_15 
REMARK    9  A    between atoms: C_29  and  C_30 
ROOT
HETATM    1  C   UNL     1       5.018  32.880  62.869  1.00  0.00     0.221 C 
HETATM    2  N   UNL     1       4.268  34.047  63.059  1.00  0.00    -0.328 N 
HETATM    3  O   UNL     1       4.978  31.961  63.699  1.00  0.00    -0.273 OA
ENDROOT
BRANCH   2   4
HETATM    4  C   UNL     1       4.312  35.342  62.237  1.00  0.00     0.119 C 
HETATM    5  C   UNL     1       3.064  36.264  62.406  1.00  0.00     0.069 C 
HETATM    6  C   UNL     1       1.782  35.595  61.977  1.00  0.00     0.237 C 
HETATM    7  N   UNL     1       1.862  35.352  60.494  1.00  0.00    -0.075 N 
HETATM    8  H   UNL     1       1.957  36.272  60.035  1.00  0.00     0.279 HD
HETATM    9  C   UNL     1       0.572  34.769  59.971  1.00  0.00     0.269 C 
HETATM   10  C   UNL     1       3.057  34.526  60.103  1.00  0.00     0.237 C 
HETATM   11  C   UNL     1       4.354  35.102  60.686  1.00  0.00     0.069 C 
BRANCH   4  12
HETATM   12  C   UNL     1       5.567  36.236  62.528  1.00  0.00     0.246 C 
HETATM   13  N   UNL     1       5.642  37.470  61.925  1.00  0.00    -0.354 N 
HETATM   14  H   UNL     1       4.897  37.774  61.304  1.00  0.00     0.162 HD
HETATM   15  O   UNL     1       6.350  35.908  63.421  1.00  0.00    -0.271 OA
BRANCH  13  16
HETATM   16  C   UNL     1       6.598  38.489  62.391  1.00  0.00     0.084 C 
HETATM   17  C   UNL     1       7.356  39.208  61.257  1.00  0.00     0.025 C 
HETATM   18  C   UNL     1       6.555  40.302  60.554  1.00  0.00     0.002 C 
HETATM   19  C   UNL     1       5.910  41.273  61.532  1.00  0.00     0.000 C 
HETATM   20  C   UNL     1       5.083  40.533  62.575  1.00  0.00     0.002 C 
HETATM   21  C   UNL     1       5.932  39.509  63.325  1.00  0.00     0.025 C 
ENDBRANCH  13  16
ENDBRANCH   4  12
ENDBRANCH   2   4
BRANCH   2  22
HETATM   22  C   UNL     1       3.372  33.938  64.240  1.00  0.00     0.192 C 
BRANCH  22  23
HETATM   23  C   UNL     1       3.942  34.550  65.470  1.00  0.00     0.070 A 
HETATM   24  O   UNL     1       4.519  33.705  66.371  1.00  0.00    -0.325 OA
HETATM   25  C   UNL     1       4.847  34.456  67.458  1.00  0.00     0.142 A 
HETATM   26  C   UNL     1       4.523  35.776  67.250  1.00  0.00     0.027 A 
HETATM   27  C   UNL     1       3.931  35.838  65.969  1.00  0.00     0.036 A 
ENDBRANCH  22  23
ENDBRANCH   2  22
BRANCH   1  28
HETATM   28  C   UNL     1       5.828  32.597  61.628  1.00  0.00     0.112 C 
BRANCH  28  29
HETATM   29  C   UNL     1       7.287  32.905  61.880  1.00  0.00     0.112 C 
BRANCH  29  30
HETATM   30  C   UNL     1       8.197  31.900  61.203  1.00  0.00     0.223 C 
HETATM   31  N   UNL     1       7.743  31.535  59.953  1.00  0.00    -0.310 N 
HETATM   32  H   UNL     1       6.847  31.865  59.621  1.00  0.00     0.170 HD
HETATM   33  O   UNL     1       9.212  31.520  61.774  1.00  0.00    -0.273 OA
BRANCH  31  34
HETATM   34  C   UNL     1       8.408  30.667  59.108  1.00  0.00     0.160 A 
HETATM   35  N   UNL     1       8.046  29.416  58.822  1.00  0.00    -0.110 NA
HETATM   36  O   UNL     1       8.991  28.930  57.941  1.00  0.00    -0.216 OA
HETATM   37  C   UNL     1       9.922  29.888  57.708  1.00  0.00     0.078 A 
HETATM   38  C   UNL     1      11.013  29.537  56.782  1.00  0.00     0.079 C 
HETATM   39  C   UNL     1       9.597  31.012  58.424  1.00  0.00     0.087 A 
ENDBRANCH  31  34
ENDBRANCH  29  30
ENDBRANCH  28  29
ENDBRANCH   1  28
TORSDOF 9
ENDMDL
MODEL 10
REMARK VINA RESULT:      -7.7      4.656     11.540
REMARK  9 active torsions:
REMARK  status: ('A' for Active; 'I' for Inactive)
REMARK    1  A    between atoms: C_5  and  N_6 
REMARK       I    between atoms: N_6  and  C_7 
REMARK    2  A    between atoms: C_7  and  C_8 
REMARK    3  A    between atoms: C_8  and  C_9 
REMARK    4  A    between atoms: C_9  and  C_10 
REMARK       I    between atoms: C_10  and  N_11 
REMARK    5  A    between atoms: N_11  and  C_12 
REMARK    6  A    between atoms: N_11  and  C_29 
REMARK    7  A    between atoms: C_12  and  C_13 
REMARK       I    between atoms: C_13  and  N_14 
REMARK    8  A    between atoms: N_14  and  C_15 
REMARK    9  A    between atoms: C_29  and  C_30 
ROOT
HETATM    1  C   UNL     1       6.755  33.213  62.734  1.00  0.00     0.221 C 
HETATM    2  N   UNL     1       5.393  33.483  62.920  1.00  0.00    -0.328 N 
HETATM    3  O   UNL     1       7.425  32.689  63.634  1.00  0.00    -0.273 OA
ENDROOT
BRANCH   2   4
HETATM    4  C   UNL     1       4.450  34.264  61.994  1.00  0.00     0.119 C 
HETATM    5  C   UNL     1       3.012  33.671  61.879  1.00  0.00     0.069 C 
HETATM    6  C   UNL     1       3.001  32.269  61.322  1.00  0.00     0.237 C 
HETATM    7  N   UNL     1       3.488  32.333  59.899  1.00  0.00    -0.075 N 
HETATM    8  H   UNL     1       2.830  32.931  59.376  1.00  0.00     0.279 HD
HETATM    9  C   UNL     1       3.416  30.977  59.241  1.00  0.00     0.269 C 
HETATM   10  C   UNL     1       4.855  32.950  59.779  1.00  0.00     0.237 C 
HETATM   11  C   UNL     1       4.926  34.303  60.499  1.00  0.00     0.069 C 
BRANCH   4  12
HETATM   12  C   UNL     1       4.279  35.771  62.389  1.00  0.00     0.246 C 
HETATM   13  N   UNL     1       5.246  36.664  61.990  1.00  0.00    -0.354 N 
HETATM   14  H   UNL     1       6.049  36.334  61.461  1.00  0.00     0.162 HD
HETATM   15  O   UNL     1       3.211  36.153  62.870  1.00  0.00    -0.271 OA
BRANCH  13  16
HETATM   16  C   UNL     1       5.006  38.117  62.028  1.00  0.00     0.084 C 
HETATM   17  C   UNL     1       5.355  38.780  63.375  1.00  0.00     0.025 C 
HETATM   18  C   UNL     1       6.846  39.035  63.587  1.00  0.00     0.002 C 
HETATM   19  C   UNL     1       7.491  39.743  62.404  1.00  0.00     0.000 C 
HETATM   20  C   UNL     1       7.214  39.001  61.104  1.00  0.00     0.002 C 
HETATM   21  C   UNL     1       5.713  38.839  60.872  1.00  0.00     0.025 C 
ENDBRANCH  13  16
ENDBRANCH   4  12
ENDBRANCH   2   4
BRANCH   2  22
HETATM   22  C   UNL     1       4.896  32.935  64.209  1.00  0.00     0.192 C 
BRANCH  22  23
HETATM   23  C   UNL     1       4.608  33.986  65.222  1.00  0.00     0.070 A 
HETATM   24  O   UNL     1       3.301  34.178  65.559  1.00  0.00    -0.325 OA
HETATM   25  C   UNL     1       3.265  35.256  66.389  1.00  0.00     0.142 A 
HETATM   26  C   UNL     1       4.533  35.734  66.617  1.00  0.00     0.027 A 
HETATM   27  C   UNL     1       5.403  34.919  65.859  1.00  0.00     0.036 A 
ENDBRANCH  22  23
ENDBRANCH   2  22
BRANCH   1  28
HETATM   28  C   UNL     1       7.481  33.425  61.428  1.00  0.00     0.112 C 
BRANCH  28  29
HETATM   29  C   UNL     1       8.606  32.422  61.292  1.00  0.00     0.112 C 
BRANCH  29  30
HETATM   30  C   UNL     1       8.644  31.808  59.908  1.00  0.00     0.223 C 
HETATM   31  N   UNL     1       7.832  30.697  59.800  1.00  0.00    -0.310 N 
HETATM   32  H   UNL     1       7.363  30.329  60.617  1.00  0.00     0.170 HD
HETATM   33  O   UNL     1       9.337  32.317  59.037  1.00  0.00    -0.273 OA
BRANCH  31  34
HETATM   34  C   UNL     1       7.651  29.976  58.635  1.00  0.00     0.160 A 
HETATM   35  N   UNL     1       8.350  28.906  58.256  1.00  0.00    -0.110 NA
HETATM   36  O   UNL     1       7.831  28.514  57.039  1.00  0.00    -0.216 OA
HETATM   37  C   UNL     1       6.828  29.357  56.686  1.00  0.00     0.078 A 
HETATM   38  C   UNL     1       6.156  29.083  55.405  1.00  0.00     0.079 C 
HETATM   39  C   UNL     1       6.672  30.303  57.668  1.00  0.00     0.087 A 
ENDBRANCH  31  34
ENDBRANCH  29  30
ENDBRANCH  28  29
ENDBRANCH   1  28
TORSDOF 9
ENDMDL
