MODEL 1
REMARK VINA RESULT:      -8.4      0.000      0.000
REMARK  5 active torsions:
REMARK  status: ('A' for Active; 'I' for Inactive)
REMARK    1  A    between atoms: C_8  and  C_9 
REMARK    2  A    between atoms: N_10  and  N_11 
REMARK       I    between atoms: N_11  and  C_12 
REMARK    3  A    between atoms: C_12  and  C_13 
REMARK    4  A    between atoms: C_13  and  N_14 
REMARK    5  A    between atoms: N_14  and  C_15 
ROOT
HETATM    1  N   UNL     1       6.442  25.234  57.250  1.00  0.00    -0.246 N 
HETATM    2  C   UNL     1       7.753  25.613  57.571  1.00  0.00     0.250 C 
HETATM    3  O   UNL     1       8.072  26.663  58.126  1.00  0.00    -0.270 OA
HETATM    4  H   UNL     1       6.330  24.737  56.373  1.00  0.00     0.192 HD
ENDROOT
BRANCH   1   5
HETATM    5  N   UNL     1       5.384  26.056  57.547  1.00  0.00    -0.184 NA
HETATM    6  C   UNL     1       4.921  26.834  56.609  1.00  0.00     0.152 C 
BRANCH   6   7
HETATM    7  C   UNL     1       5.543  27.118  55.326  1.00  0.00     0.011 A 
HETATM    8  C   UNL     1       5.457  26.412  54.079  1.00  0.00     0.004 A 
HETATM    9  C   UNL     1       4.816  25.229  53.649  1.00  0.00     0.014 A 
HETATM   10  C   UNL     1       6.213  27.124  53.145  1.00  0.00     0.043 A 
HETATM   11  C   UNL     1       4.914  24.829  52.311  1.00  0.00     0.001 A 
HETATM   12  C   UNL     1       5.652  25.581  51.401  1.00  0.00     0.002 A 
HETATM   13  C   UNL     1       6.322  26.740  51.803  1.00  0.00     0.030 A 
HETATM   14  N   UNL     1       6.773  28.192  53.805  1.00  0.00    -0.364 N 
HETATM   15  H   UNL     1       7.370  28.883  53.373  1.00  0.00     0.165 HD
HETATM   16  C   UNL     1       6.413  28.174  55.125  1.00  0.00     0.102 A 
ENDBRANCH   6   7
ENDBRANCH   1   5
BRANCH   2  17
HETATM   17  C   UNL     1       8.768  24.547  57.132  1.00  0.00     0.197 C 
BRANCH  17  18
HETATM   18  N   UNL     1       8.111  23.274  56.817  1.00  0.00    -0.283 NA
HETATM   19  H   UNL     1       8.392  22.529  57.460  1.00  0.00     0.128 HD
BRANCH  18  20
HETATM   20  C   UNL     1       8.105  22.858  55.475  1.00  0.00     0.030 A 
HETATM   21  C   UNL     1       7.939  21.500  55.136  1.00  0.00     0.055 A 
HETATM   22 CL   UNL     1       7.837  20.287  56.367  1.00  0.00    -0.082 Cl
HETATM   23  C   UNL     1       7.886  21.086  53.801  1.00  0.00     0.026 A 
HETATM   24  C   UNL     1       7.973  22.026  52.776  1.00  0.00     0.002 A 
HETATM   25  C   UNL     1       8.105  23.376  53.089  1.00  0.00     0.002 A 
HETATM   26  C   UNL     1       8.162  23.787  54.424  1.00  0.00     0.025 A 
ENDBRANCH  18  20
ENDBRANCH  17  18
ENDBRANCH   2  17
TORSDOF 5
ENDMDL
MODEL 2
REMARK VINA RESULT:      -8.1      2.874      4.467
REMARK  5 active torsions:
REMARK  status: ('A' for Active; 'I' for Inactive)
REMARK    1  A    between atoms: C_8  and  C_9 
REMARK    2  A    between atoms: N_10  and  N_11 
REMARK       I    between atoms: N_11  and  C_12 
REMARK    3  A    between atoms: C_12  and  C_13 
REMARK    4  A    between atoms: C_13  and  N_14 
REMARK    5  A    between atoms: N_14  and  C_15 
ROOT
HETATM    1  N   UNL     1       7.032  26.316  55.229  1.00  0.00    -0.246 N 
HETATM    2  C   UNL     1       6.465  25.364  56.087  1.00  0.00     0.250 C 
HETATM    3  O   UNL     1       5.263  25.248  56.322  1.00  0.00    -0.270 OA
HETATM    4  H   UNL     1       7.923  26.701  55.526  1.00  0.00     0.192 HD
ENDROOT
BRANCH   1   5
HETATM    5  N   UNL     1       6.242  27.224  54.571  1.00  0.00    -0.184 NA
HETATM    6  C   UNL     1       6.258  28.465  54.973  1.00  0.00     0.152 C 
BRANCH   6   7
HETATM    7  C   UNL     1       6.843  28.977  56.201  1.00  0.00     0.011 A 
HETATM    8  C   UNL     1       8.196  29.356  56.494  1.00  0.00     0.004 A 
HETATM    9  C   UNL     1       9.410  29.342  55.773  1.00  0.00     0.014 A 
HETATM   10  C   UNL     1       8.221  29.821  57.811  1.00  0.00     0.043 A 
HETATM   11  C   UNL     1      10.580  29.828  56.368  1.00  0.00     0.001 A 
HETATM   12  C   UNL     1      10.561  30.313  57.673  1.00  0.00     0.002 A 
HETATM   13  C   UNL     1       9.381  30.311  58.422  1.00  0.00     0.030 A 
HETATM   14  N   UNL     1       6.948  29.689  58.313  1.00  0.00    -0.364 N 
HETATM   15  H   UNL     1       6.671  29.952  59.248  1.00  0.00     0.165 HD
HETATM   16  C   UNL     1       6.122  29.143  57.369  1.00  0.00     0.102 A 
ENDBRANCH   6   7
ENDBRANCH   1   5
BRANCH   2  17
HETATM   17  C   UNL     1       7.540  24.468  56.720  1.00  0.00     0.197 C 
BRANCH  17  18
HETATM   18  N   UNL     1       8.538  24.043  55.732  1.00  0.00    -0.283 NA
HETATM   19  H   UNL     1       8.832  24.816  55.129  1.00  0.00     0.128 HD
BRANCH  18  20
HETATM   20  C   UNL     1       8.283  22.863  55.014  1.00  0.00     0.030 A 
HETATM   21  C   UNL     1       8.141  22.881  53.612  1.00  0.00     0.055 A 
HETATM   22 CL   UNL     1       8.175  24.375  52.740  1.00  0.00    -0.082 Cl
HETATM   23  C   UNL     1       7.934  21.703  52.887  1.00  0.00     0.026 A 
HETATM   24  C   UNL     1       7.891  20.477  53.549  1.00  0.00     0.002 A 
HETATM   25  C   UNL     1       8.062  20.432  54.930  1.00  0.00     0.002 A 
HETATM   26  C   UNL     1       8.264  21.612  55.652  1.00  0.00     0.025 A 
ENDBRANCH  18  20
ENDBRANCH  17  18
ENDBRANCH   2  17
TORSDOF 5
ENDMDL
MODEL 3
REMARK VINA RESULT:      -7.9      2.884      4.676
REMARK  5 active torsions:
REMARK  status: ('A' for Active; 'I' for Inactive)
REMARK    1  A    between atoms: C_8  and  C_9 
REMARK    2  A    between atoms: N_10  and  N_11 
REMARK       I    between atoms: N_11  and  C_12 
REMARK    3  A    between atoms: C_12  and  C_13 
REMARK    4  A    between atoms: C_13  and  N_14 
REMARK    5  A    between atoms: N_14  and  C_15 
ROOT
HETATM    1  N   UNL     1       3.794  27.480  53.329  1.00  0.00    -0.246 N 
HETATM    2  C   UNL     1       4.666  26.862  52.422  1.00  0.00     0.250 C 
HETATM    3  O   UNL     1       5.205  27.417  51.465  1.00  0.00    -0.270 OA
HETATM    4  H   UNL     1       3.022  26.908  53.655  1.00  0.00     0.192 HD
ENDROOT
BRANCH   1   5
HETATM    5  N   UNL     1       3.468  28.806  53.194  1.00  0.00    -0.184 NA
HETATM    6  C   UNL     1       3.912  29.646  54.088  1.00  0.00     0.152 C 
BRANCH   6   7
HETATM    7  C   UNL     1       4.526  29.319  55.363  1.00  0.00     0.011 A 
HETATM    8  C   UNL     1       5.832  28.798  55.655  1.00  0.00     0.004 A 
HETATM    9  C   UNL     1       6.935  28.388  54.875  1.00  0.00     0.014 A 
HETATM   10  C   UNL     1       5.940  28.700  57.044  1.00  0.00     0.043 A 
HETATM   11  C   UNL     1       8.106  27.945  55.501  1.00  0.00     0.001 A 
HETATM   12  C   UNL     1       8.189  27.891  56.889  1.00  0.00     0.002 A 
HETATM   13  C   UNL     1       7.103  28.261  57.688  1.00  0.00     0.030 A 
HETATM   14  N   UNL     1       4.737  29.102  57.574  1.00  0.00    -0.364 N 
HETATM   15  H   UNL     1       4.529  29.138  58.562  1.00  0.00     0.165 HD
HETATM   16  C   UNL     1       3.866  29.435  56.573  1.00  0.00     0.102 A 
ENDBRANCH   6   7
ENDBRANCH   1   5
BRANCH   2  17
HETATM   17  C   UNL     1       4.871  25.378  52.762  1.00  0.00     0.197 C 
BRANCH  17  18
HETATM   18  N   UNL     1       4.863  25.151  54.211  1.00  0.00    -0.283 NA
HETATM   19  H   UNL     1       4.383  25.903  54.713  1.00  0.00     0.128 HD
BRANCH  18  20
HETATM   20  C   UNL     1       6.073  24.781  54.820  1.00  0.00     0.030 A 
HETATM   21  C   UNL     1       6.208  24.768  56.223  1.00  0.00     0.055 A 
HETATM   22 CL   UNL     1       4.915  25.307  57.240  1.00  0.00    -0.082 Cl
HETATM   23  C   UNL     1       7.395  24.355  56.836  1.00  0.00     0.026 A 
HETATM   24  C   UNL     1       8.466  23.922  56.056  1.00  0.00     0.002 A 
HETATM   25  C   UNL     1       8.344  23.895  54.670  1.00  0.00     0.002 A 
HETATM   26  C   UNL     1       7.157  24.313  54.060  1.00  0.00     0.025 A 
ENDBRANCH  18  20
ENDBRANCH  17  18
ENDBRANCH   2  17
TORSDOF 5
ENDMDL
MODEL 4
REMARK VINA RESULT:      -7.8      2.611      4.432
REMARK  5 active torsions:
REMARK  status: ('A' for Active; 'I' for Inactive)
REMARK    1  A    between atoms: C_8  and  C_9 
REMARK    2  A    between atoms: N_10  and  N_11 
REMARK       I    between atoms: N_11  and  C_12 
REMARK    3  A    between atoms: C_12  and  C_13 
REMARK    4  A    between atoms: C_13  and  N_14 
REMARK    5  A    between atoms: N_14  and  C_15 
ROOT
HETATM    1  N   UNL     1       3.762  27.139  53.403  1.00  0.00    -0.246 N 
HETATM    2  C   UNL     1       4.795  26.439  52.764  1.00  0.00     0.250 C 
HETATM    3  O   UNL     1       5.605  26.931  51.979  1.00  0.00    -0.270 OA
HETATM    4  H   UNL     1       2.892  26.630  53.519  1.00  0.00     0.192 HD
ENDROOT
BRANCH   1   5
HETATM    5  N   UNL     1       3.581  28.480  53.176  1.00  0.00    -0.184 NA
HETATM    6  C   UNL     1       4.111  29.327  54.014  1.00  0.00     0.152 C 
BRANCH   6   7
HETATM    7  C   UNL     1       4.687  29.024  55.313  1.00  0.00     0.011 A 
HETATM    8  C   UNL     1       6.037  28.692  55.673  1.00  0.00     0.004 A 
HETATM    9  C   UNL     1       7.238  28.501  54.955  1.00  0.00     0.014 A 
HETATM   10  C   UNL     1       6.071  28.532  57.060  1.00  0.00     0.043 A 
HETATM   11  C   UNL     1       8.422  28.207  55.642  1.00  0.00     0.001 A 
HETATM   12  C   UNL     1       8.424  28.086  57.028  1.00  0.00     0.002 A 
HETATM   13  C   UNL     1       7.245  28.238  57.764  1.00  0.00     0.030 A 
HETATM   14  N   UNL     1       4.788  28.714  57.521  1.00  0.00    -0.364 N 
HETATM   15  H   UNL     1       4.516  28.659  58.492  1.00  0.00     0.165 HD
HETATM   16  C   UNL     1       3.942  28.967  56.477  1.00  0.00     0.102 A 
ENDBRANCH   6   7
ENDBRANCH   1   5
BRANCH   2  17
HETATM   17  C   UNL     1       4.796  24.955  53.158  1.00  0.00     0.197 C 
BRANCH  17  18
HETATM   18  N   UNL     1       6.143  24.379  53.089  1.00  0.00    -0.283 NA
HETATM   19  H   UNL     1       6.204  23.630  52.394  1.00  0.00     0.128 HD
BRANCH  18  20
HETATM   20  C   UNL     1       6.773  24.046  54.300  1.00  0.00     0.030 A 
HETATM   21  C   UNL     1       7.654  22.950  54.384  1.00  0.00     0.055 A 
HETATM   22 CL   UNL     1       7.910  21.915  53.020  1.00  0.00    -0.082 Cl
HETATM   23  C   UNL     1       8.320  22.642  55.575  1.00  0.00     0.026 A 
HETATM   24  C   UNL     1       8.137  23.442  56.701  1.00  0.00     0.002 A 
HETATM   25  C   UNL     1       7.297  24.549  56.632  1.00  0.00     0.002 A 
HETATM   26  C   UNL     1       6.629  24.851  55.441  1.00  0.00     0.025 A 
ENDBRANCH  18  20
ENDBRANCH  17  18
ENDBRANCH   2  17
TORSDOF 5
ENDMDL
MODEL 5
REMARK VINA RESULT:      -7.8      3.780      6.669
REMARK  5 active torsions:
REMARK  status: ('A' for Active; 'I' for Inactive)
REMARK    1  A    between atoms: C_8  and  C_9 
REMARK    2  A    between atoms: N_10  and  N_11 
REMARK       I    between atoms: N_11  and  C_12 
REMARK    3  A    between atoms: C_12  and  C_13 
REMARK    4  A    between atoms: C_13  and  N_14 
REMARK    5  A    between atoms: N_14  and  C_15 
ROOT
HETATM    1  N   UNL     1       7.198  27.388  54.192  1.00  0.00    -0.246 N 
HETATM    2  C   UNL     1       7.102  28.430  55.125  1.00  0.00     0.250 C 
HETATM    3  O   UNL     1       6.050  28.915  55.540  1.00  0.00    -0.270 OA
HETATM    4  H   UNL     1       7.964  27.459  53.531  1.00  0.00     0.192 HD
ENDROOT
BRANCH   1   5
HETATM    5  N   UNL     1       6.068  26.823  53.654  1.00  0.00    -0.184 NA
HETATM    6  C   UNL     1       5.673  25.670  54.117  1.00  0.00     0.152 C 
BRANCH   6   7
HETATM    7  C   UNL     1       6.419  24.777  54.987  1.00  0.00     0.011 A 
HETATM    8  C   UNL     1       7.249  23.650  54.666  1.00  0.00     0.004 A 
HETATM    9  C   UNL     1       7.605  22.988  53.470  1.00  0.00     0.014 A 
HETATM   10  C   UNL     1       7.767  23.159  55.866  1.00  0.00     0.043 A 
HETATM   11  C   UNL     1       8.491  21.905  53.511  1.00  0.00     0.001 A 
HETATM   12  C   UNL     1       9.012  21.462  54.723  1.00  0.00     0.002 A 
HETATM   13  C   UNL     1       8.654  22.078  55.926  1.00  0.00     0.030 A 
HETATM   14  N   UNL     1       7.241  23.926  56.879  1.00  0.00    -0.364 N 
HETATM   15  H   UNL     1       7.447  23.798  57.860  1.00  0.00     0.165 HD
HETATM   16  C   UNL     1       6.397  24.872  56.367  1.00  0.00     0.102 A 
ENDBRANCH   6   7
ENDBRANCH   1   5
BRANCH   2  17
HETATM   17  C   UNL     1       8.489  28.910  55.575  1.00  0.00     0.197 C 
BRANCH  17  18
HETATM   18  N   UNL     1       8.724  28.627  56.995  1.00  0.00    -0.283 NA
HETATM   19  H   UNL     1       8.132  27.865  57.335  1.00  0.00     0.128 HD
BRANCH  18  20
HETATM   20  C   UNL     1       8.764  29.718  57.879  1.00  0.00     0.030 A 
HETATM   21  C   UNL     1       9.948  30.460  58.066  1.00  0.00     0.055 A 
HETATM   22 CL   UNL     1      11.419  29.988  57.286  1.00  0.00    -0.082 Cl
HETATM   23  C   UNL     1       9.981  31.575  58.910  1.00  0.00     0.026 A 
HETATM   24  C   UNL     1       8.822  31.986  59.566  1.00  0.00     0.002 A 
HETATM   25  C   UNL     1       7.635  31.288  59.371  1.00  0.00     0.002 A 
HETATM   26  C   UNL     1       7.606  30.170  58.530  1.00  0.00     0.025 A 
ENDBRANCH  18  20
ENDBRANCH  17  18
ENDBRANCH   2  17
TORSDOF 5
ENDMDL
MODEL 6
REMARK VINA RESULT:      -7.7      2.729      4.271
REMARK  5 active torsions:
REMARK  status: ('A' for Active; 'I' for Inactive)
REMARK    1  A    between atoms: C_8  and  C_9 
REMARK    2  A    between atoms: N_10  and  N_11 
REMARK       I    between atoms: N_11  and  C_12 
REMARK    3  A    between atoms: C_12  and  C_13 
REMARK    4  A    between atoms: C_13  and  N_14 
REMARK    5  A    between atoms: N_14  and  C_15 
ROOT
HETATM    1  N   UNL     1       5.845  26.788  55.600  1.00  0.00    -0.246 N 
HETATM    2  C   UNL     1       6.821  25.949  55.046  1.00  0.00     0.250 C 
HETATM    3  O   UNL     1       7.305  26.069  53.921  1.00  0.00    -0.270 OA
HETATM    4  H   UNL     1       5.151  26.331  56.183  1.00  0.00     0.192 HD
ENDROOT
BRANCH   1   5
HETATM    5  N   UNL     1       5.340  27.844  54.882  1.00  0.00    -0.184 NA
HETATM    6  C   UNL     1       5.748  29.046  55.180  1.00  0.00     0.152 C 
BRANCH   6   7
HETATM    7  C   UNL     1       6.509  29.443  56.353  1.00  0.00     0.011 A 
HETATM    8  C   UNL     1       7.928  29.569  56.537  1.00  0.00     0.004 A 
HETATM    9  C   UNL     1       9.060  29.333  55.726  1.00  0.00     0.014 A 
HETATM   10  C   UNL     1       8.139  30.023  57.841  1.00  0.00     0.043 A 
HETATM   11  C   UNL     1      10.341  29.598  56.223  1.00  0.00     0.001 A 
HETATM   12  C   UNL     1      10.512  30.079  57.518  1.00  0.00     0.002 A 
HETATM   13  C   UNL     1       9.413  30.294  58.355  1.00  0.00     0.030 A 
HETATM   14  N   UNL     1       6.906  30.126  58.440  1.00  0.00    -0.364 N 
HETATM   15  H   UNL     1       6.754  30.437  59.389  1.00  0.00     0.165 HD
HETATM   16  C   UNL     1       5.923  29.740  57.570  1.00  0.00     0.102 A 
ENDBRANCH   6   7
ENDBRANCH   1   5
BRANCH   2  17
HETATM   17  C   UNL     1       7.222  24.834  56.023  1.00  0.00     0.197 C 
BRANCH  17  18
HETATM   18  N   UNL     1       8.448  24.153  55.591  1.00  0.00    -0.283 NA
HETATM   19  H   UNL     1       9.092  24.791  55.115  1.00  0.00     0.128 HD
BRANCH  18  20
HETATM   20  C   UNL     1       8.312  22.925  54.924  1.00  0.00     0.030 A 
HETATM   21  C   UNL     1       8.176  21.719  55.641  1.00  0.00     0.055 A 
HETATM   22 CL   UNL     1       8.273  21.703  57.370  1.00  0.00    -0.082 Cl
HETATM   23  C   UNL     1       7.992  20.498  54.983  1.00  0.00     0.026 A 
HETATM   24  C   UNL     1       7.916  20.462  53.592  1.00  0.00     0.002 A 
HETATM   25  C   UNL     1       8.016  21.645  52.865  1.00  0.00     0.002 A 
HETATM   26  C   UNL     1       8.203  22.863  53.526  1.00  0.00     0.025 A 
ENDBRANCH  18  20
ENDBRANCH  17  18
ENDBRANCH   2  17
TORSDOF 5
ENDMDL
MODEL 7
REMARK VINA RESULT:      -7.6      3.764      6.575
REMARK  5 active torsions:
REMARK  status: ('A' for Active; 'I' for Inactive)
REMARK    1  A    between atoms: C_8  and  C_9 
REMARK    2  A    between atoms: N_10  and  N_11 
REMARK       I    between atoms: N_11  and  C_12 
REMARK    3  A    between atoms: C_12  and  C_13 
REMARK    4  A    between atoms: C_13  and  N_14 
REMARK    5  A    between atoms: N_14  and  C_15 
ROOT
HETATM    1  N   UNL     1       7.001  26.398  55.454  1.00  0.00    -0.246 N 
HETATM    2  C   UNL     1       6.242  27.010  56.462  1.00  0.00     0.250 C 
HETATM    3  O   UNL     1       5.028  27.200  56.418  1.00  0.00    -0.270 OA
HETATM    4  H   UNL     1       7.927  26.784  55.305  1.00  0.00     0.192 HD
ENDROOT
BRANCH   1   5
HETATM    5  N   UNL     1       6.405  25.957  54.299  1.00  0.00    -0.184 NA
HETATM    6  C   UNL     1       6.362  24.672  54.076  1.00  0.00     0.152 C 
BRANCH   6   7
HETATM    7  C   UNL     1       7.084  23.638  54.797  1.00  0.00     0.011 A 
HETATM    8  C   UNL     1       7.650  22.404  54.326  1.00  0.00     0.004 A 
HETATM    9  C   UNL     1       7.687  21.740  53.081  1.00  0.00     0.014 A 
HETATM   10  C   UNL     1       8.273  21.791  55.415  1.00  0.00     0.043 A 
HETATM   11  C   UNL     1       8.375  20.527  52.958  1.00  0.00     0.001 A 
HETATM   12  C   UNL     1       9.011  19.960  54.058  1.00  0.00     0.002 A 
HETATM   13  C   UNL     1       8.965  20.578  55.311  1.00  0.00     0.030 A 
HETATM   14  N   UNL     1       8.058  22.592  56.511  1.00  0.00    -0.364 N 
HETATM   15  H   UNL     1       8.400  22.395  57.441  1.00  0.00     0.165 HD
HETATM   16  C   UNL     1       7.309  23.682  56.161  1.00  0.00     0.102 A 
ENDBRANCH   6   7
ENDBRANCH   1   5
BRANCH   2  17
HETATM   17  C   UNL     1       7.122  27.432  57.648  1.00  0.00     0.197 C 
BRANCH  17  18
HETATM   18  N   UNL     1       7.184  28.891  57.781  1.00  0.00    -0.283 NA
HETATM   19  H   UNL     1       6.473  29.358  57.211  1.00  0.00     0.128 HD
BRANCH  18  20
HETATM   20  C   UNL     1       8.445  29.502  57.681  1.00  0.00     0.030 A 
HETATM   21  C   UNL     1       8.744  30.675  58.403  1.00  0.00     0.055 A 
HETATM   22 CL   UNL     1       7.533  31.456  59.362  1.00  0.00    -0.082 Cl
HETATM   23  C   UNL     1      10.013  31.261  58.344  1.00  0.00     0.026 A 
HETATM   24  C   UNL     1      11.017  30.672  57.578  1.00  0.00     0.002 A 
HETATM   25  C   UNL     1      10.753  29.496  56.881  1.00  0.00     0.002 A 
HETATM   26  C   UNL     1       9.482  28.915  56.940  1.00  0.00     0.025 A 
ENDBRANCH  18  20
ENDBRANCH  17  18
ENDBRANCH   2  17
TORSDOF 5
ENDMDL
MODEL 8
REMARK VINA RESULT:      -7.5      2.736      4.333
REMARK  5 active torsions:
REMARK  status: ('A' for Active; 'I' for Inactive)
REMARK    1  A    between atoms: C_8  and  C_9 
REMARK    2  A    between atoms: N_10  and  N_11 
REMARK       I    between atoms: N_11  and  C_12 
REMARK    3  A    between atoms: C_12  and  C_13 
REMARK    4  A    between atoms: C_13  and  N_14 
REMARK    5  A    between atoms: N_14  and  C_15 
ROOT
HETATM    1  N   UNL     1       5.856  26.057  55.292  1.00  0.00    -0.246 N 
HETATM    2  C   UNL     1       5.531  25.615  54.002  1.00  0.00     0.250 C 
HETATM    3  O   UNL     1       4.616  26.060  53.309  1.00  0.00    -0.270 OA
HETATM    4  H   UNL     1       6.159  25.338  55.940  1.00  0.00     0.192 HD
ENDROOT
BRANCH   1   5
HETATM    5  N   UNL     1       5.135  27.059  55.891  1.00  0.00    -0.184 NA
HETATM    6  C   UNL     1       5.662  28.251  55.949  1.00  0.00     0.152 C 
BRANCH   6   7
HETATM    7  C   UNL     1       7.040  28.610  55.661  1.00  0.00     0.011 A 
HETATM    8  C   UNL     1       8.044  29.187  56.511  1.00  0.00     0.004 A 
HETATM    9  C   UNL     1       8.073  29.638  57.849  1.00  0.00     0.014 A 
HETATM   10  C   UNL     1       9.215  29.296  55.757  1.00  0.00     0.043 A 
HETATM   11  C   UNL     1       9.264  30.132  58.392  1.00  0.00     0.001 A 
HETATM   12  C   UNL     1      10.421  30.197  57.620  1.00  0.00     0.002 A 
HETATM   13  C   UNL     1      10.415  29.787  56.284  1.00  0.00     0.030 A 
HETATM   14  N   UNL     1       8.925  28.847  54.490  1.00  0.00    -0.364 N 
HETATM   15  H   UNL     1       9.590  28.808  53.731  1.00  0.00     0.165 HD
HETATM   16  C   UNL     1       7.612  28.473  54.409  1.00  0.00     0.102 A 
ENDBRANCH   6   7
ENDBRANCH   1   5
BRANCH   2  17
HETATM   17  C   UNL     1       6.461  24.481  53.545  1.00  0.00     0.197 C 
BRANCH  17  18
HETATM   18  N   UNL     1       7.117  23.831  54.685  1.00  0.00    -0.283 NA
HETATM   19  H   UNL     1       7.736  24.473  55.188  1.00  0.00     0.128 HD
BRANCH  18  20
HETATM   20  C   UNL     1       7.704  22.573  54.469  1.00  0.00     0.030 A 
HETATM   21  C   UNL     1       8.244  21.829  55.537  1.00  0.00     0.055 A 
HETATM   22 CL   UNL     1       8.292  22.487  57.137  1.00  0.00    -0.082 Cl
HETATM   23  C   UNL     1       8.787  20.556  55.335  1.00  0.00     0.026 A 
HETATM   24  C   UNL     1       8.778  19.989  54.061  1.00  0.00     0.002 A 
HETATM   25  C   UNL     1       8.220  20.693  52.998  1.00  0.00     0.002 A 
HETATM   26  C   UNL     1       7.682  21.967  53.202  1.00  0.00     0.025 A 
ENDBRANCH  18  20
ENDBRANCH  17  18
ENDBRANCH   2  17
TORSDOF 5
ENDMDL
MODEL 9
REMARK VINA RESULT:      -7.3      3.708      5.128
REMARK  5 active torsions:
REMARK  status: ('A' for Active; 'I' for Inactive)
REMARK    1  A    between atoms: C_8  and  C_9 
REMARK    2  A    between atoms: N_10  and  N_11 
REMARK       I    between atoms: N_11  and  C_12 
REMARK    3  A    between atoms: C_12  and  C_13 
REMARK    4  A    between atoms: C_13  and  N_14 
REMARK    5  A    between atoms: N_14  and  C_15 
ROOT
HETATM    1  N   UNL     1       5.192  28.449  57.556  1.00  0.00    -0.246 N 
HETATM    2  C   UNL     1       5.083  27.610  56.438  1.00  0.00     0.250 C 
HETATM    3  O   UNL     1       4.532  27.907  55.380  1.00  0.00    -0.270 OA
HETATM    4  H   UNL     1       5.110  27.993  58.458  1.00  0.00     0.192 HD
ENDROOT
BRANCH   1   5
HETATM    5  N   UNL     1       4.660  29.714  57.536  1.00  0.00    -0.184 NA
HETATM    6  C   UNL     1       5.467  30.728  57.684  1.00  0.00     0.152 C 
BRANCH   6   7
HETATM    7  C   UNL     1       6.856  30.682  58.107  1.00  0.00     0.011 A 
HETATM    8  C   UNL     1       8.022  30.215  57.411  1.00  0.00     0.004 A 
HETATM    9  C   UNL     1       8.254  29.620  56.151  1.00  0.00     0.014 A 
HETATM   10  C   UNL     1       9.120  30.428  58.247  1.00  0.00     0.043 A 
HETATM   11  C   UNL     1       9.560  29.307  55.758  1.00  0.00     0.001 A 
HETATM   12  C   UNL     1      10.634  29.563  56.606  1.00  0.00     0.002 A 
HETATM   13  C   UNL     1      10.433  30.122  57.871  1.00  0.00     0.030 A 
HETATM   14  N   UNL     1       8.639  30.961  59.420  1.00  0.00    -0.364 N 
HETATM   15  H   UNL     1       9.214  31.220  60.209  1.00  0.00     0.165 HD
HETATM   16  C   UNL     1       7.277  31.078  59.364  1.00  0.00     0.102 A 
ENDBRANCH   6   7
ENDBRANCH   1   5
BRANCH   2  17
HETATM   17  C   UNL     1       5.738  26.245  56.696  1.00  0.00     0.197 C 
BRANCH  17  18
HETATM   18  N   UNL     1       7.085  26.176  56.119  1.00  0.00    -0.283 NA
HETATM   19  H   UNL     1       7.492  27.105  55.987  1.00  0.00     0.128 HD
BRANCH  18  20
HETATM   20  C   UNL     1       7.277  25.338  55.008  1.00  0.00     0.030 A 
HETATM   21  C   UNL     1       7.450  25.872  53.715  1.00  0.00     0.055 A 
HETATM   22 CL   UNL     1       7.331  27.577  53.441  1.00  0.00    -0.082 Cl
HETATM   23  C   UNL     1       7.687  25.045  52.612  1.00  0.00     0.026 A 
HETATM   24  C   UNL     1       7.782  23.666  52.785  1.00  0.00     0.002 A 
HETATM   25  C   UNL     1       7.647  23.119  54.057  1.00  0.00     0.002 A 
HETATM   26  C   UNL     1       7.405  23.948  55.157  1.00  0.00     0.025 A 
ENDBRANCH  18  20
ENDBRANCH  17  18
ENDBRANCH   2  17
TORSDOF 5
ENDMDL
MODEL 10
REMARK VINA RESULT:      -7.2      3.370      4.349
REMARK  5 active torsions:
REMARK  status: ('A' for Active; 'I' for Inactive)
REMARK    1  A    between atoms: C_8  and  C_9 
REMARK    2  A    between atoms: N_10  and  N_11 
REMARK       I    between atoms: N_11  and  C_12 
REMARK    3  A    between atoms: C_12  and  C_13 
REMARK    4  A    between atoms: C_13  and  N_14 
REMARK    5  A    between atoms: N_14  and  C_15 
ROOT
HETATM    1  N   UNL     1       4.284  26.612  53.153  1.00  0.00    -0.246 N 
HETATM    2  C   UNL     1       5.348  26.101  53.909  1.00  0.00     0.250 C 
HETATM    3  O   UNL     1       5.935  26.705  54.806  1.00  0.00    -0.270 OA
HETATM    4  H   UNL     1       4.272  26.346  52.174  1.00  0.00     0.192 HD
ENDROOT
BRANCH   1   5
HETATM    5  N   UNL     1       3.814  27.882  53.375  1.00  0.00    -0.184 NA
HETATM    6  C   UNL     1       3.611  28.657  52.346  1.00  0.00     0.152 C 
BRANCH   6   7
HETATM    7  C   UNL     1       4.046  28.423  50.979  1.00  0.00     0.011 A 
HETATM    8  C   UNL     1       3.281  28.315  49.769  1.00  0.00     0.004 A 
HETATM    9  C   UNL     1       1.903  28.347  49.458  1.00  0.00     0.014 A 
HETATM   10  C   UNL     1       4.185  28.127  48.721  1.00  0.00     0.043 A 
HETATM   11  C   UNL     1       1.486  28.240  48.127  1.00  0.00     0.001 A 
HETATM   12  C   UNL     1       2.418  28.086  47.104  1.00  0.00     0.002 A 
HETATM   13  C   UNL     1       3.786  28.019  47.383  1.00  0.00     0.030 A 
HETATM   14  N   UNL     1       5.442  28.078  49.273  1.00  0.00    -0.364 N 
HETATM   15  H   UNL     1       6.295  27.955  48.745  1.00  0.00     0.165 HD
HETATM   16  C   UNL     1       5.368  28.211  50.633  1.00  0.00     0.102 A 
ENDBRANCH   6   7
ENDBRANCH   1   5
BRANCH   2  17
HETATM   17  C   UNL     1       5.709  24.673  53.475  1.00  0.00     0.197 C 
BRANCH  17  18
HETATM   18  N   UNL     1       7.139  24.400  53.656  1.00  0.00    -0.283 NA
HETATM   19  H   UNL     1       7.703  24.800  52.901  1.00  0.00     0.128 HD
BRANCH  18  20
HETATM   20  C   UNL     1       7.517  23.086  53.976  1.00  0.00     0.030 A 
HETATM   21  C   UNL     1       7.603  22.659  55.317  1.00  0.00     0.055 A 
HETATM   22 CL   UNL     1       7.341  23.772  56.616  1.00  0.00    -0.082 Cl
HETATM   23  C   UNL     1       7.933  21.339  55.640  1.00  0.00     0.026 A 
HETATM   24  C   UNL     1       8.161  20.410  54.626  1.00  0.00     0.002 A 
HETATM   25  C   UNL     1       8.051  20.802  53.295  1.00  0.00     0.002 A 
HETATM   26  C   UNL     1       7.724  22.124  52.975  1.00  0.00     0.025 A 
ENDBRANCH  18  20
ENDBRANCH  17  18
ENDBRANCH   2  17
TORSDOF 5
ENDMDL
