MODEL 1
REMARK VINA RESULT:      -9.6      0.000      0.000
REMARK  7 active torsions:
REMARK  status: ('A' for Active; 'I' for Inactive)
REMARK    1  A    between atoms: C_2  and  C_3 
REMARK    2  A    between atoms: C_4  and  O_5 
REMARK    3  A    between atoms: C_7  and  O_8 
REMARK    4  A    between atoms: C_9  and  C_10 
REMARK    5  A    between atoms: C_14  and  C_15 
REMARK    6  A    between atoms: C_19  and  C_20 
REMARK    7  A    between atoms: N_22  and  C_23 
ROOT
HETATM    1  C   UNL     1       5.716  25.450  54.142  1.00  0.00     0.103 A 
HETATM    2  N   UNL     1       4.564  25.088  53.542  1.00  0.00    -0.173 NA
HETATM    3  N   UNL     1       4.024  26.236  53.118  1.00  0.00    -0.272 N 
HETATM    4  H   UNL     1       3.146  26.193  52.608  1.00  0.00     0.189 HD
HETATM    5  C   UNL     1       4.735  27.342  53.464  1.00  0.00     0.147 A 
HETATM    6  C   UNL     1       5.838  26.877  54.149  1.00  0.00     0.042 A 
ENDROOT
BRANCH   1   7
HETATM    7  C   UNL     1       6.599  24.417  54.692  1.00  0.00     0.029 A 
HETATM    8  C   UNL     1       6.786  24.227  56.066  1.00  0.00     0.081 A 
HETATM    9  C   UNL     1       7.610  23.202  56.535  1.00  0.00     0.074 A 
HETATM   10  C   UNL     1       8.282  22.377  55.633  1.00  0.00     0.074 A 
HETATM   11  C   UNL     1       8.167  22.572  54.253  1.00  0.00    -0.024 A 
HETATM   12  C   UNL     1       7.307  23.590  53.800  1.00  0.00     0.026 A 
BRANCH   8  13
HETATM   13  O   UNL     1       6.178  25.056  56.969  1.00  0.00    -0.360 OA
HETATM   14  H   UNL     1       5.814  24.521  57.694  1.00  0.00     0.217 HD
ENDBRANCH   8  13
BRANCH  10  15
HETATM   15  O   UNL     1       9.050  21.394  56.188  1.00  0.00    -0.360 OA
HETATM   16  H   UNL     1       9.916  21.374  55.751  1.00  0.00     0.217 HD
ENDBRANCH  10  15
BRANCH  11  17
HETATM   17  C   UNL     1       8.911  21.750  53.230  1.00  0.00     0.037 C 
HETATM   18  C   UNL     1       8.167  20.473  52.872  1.00  0.00     0.010 C 
ENDBRANCH  11  17
ENDBRANCH   1   7
BRANCH   6  19
HETATM   19  C   UNL     1       6.889  27.681  54.755  1.00  0.00     0.016 A 
HETATM   20  C   UNL     1       6.957  28.160  56.041  1.00  0.00     0.132 A 
HETATM   21  N   UNL     1       8.117  28.902  56.135  1.00  0.00    -0.245 N 
HETATM   22  N   UNL     1       8.817  28.870  54.968  1.00  0.00    -0.179 NA
HETATM   23  C   UNL     1       8.067  28.136  54.144  1.00  0.00     0.153 A 
BRANCH  21  24
HETATM   24  C   UNL     1       8.589  29.647  57.253  1.00  0.00     0.058 A 
HETATM   25  C   UNL     1       7.878  29.677  58.462  1.00  0.00     0.031 A 
HETATM   26  C   UNL     1       8.358  30.429  59.539  1.00  0.00     0.002 A 
HETATM   27  C   UNL     1       9.542  31.153  59.418  1.00  0.00     0.000 A 
HETATM   28  C   UNL     1      10.254  31.128  58.221  1.00  0.00     0.002 A 
HETATM   29  C   UNL     1       9.783  30.377  57.142  1.00  0.00     0.031 A 
ENDBRANCH  21  24
ENDBRANCH   6  19
BRANCH   5  30
HETATM   30  C   UNL     1       4.245  28.676  53.111  1.00  0.00     0.435 C 
HETATM   31  F   UNL     1       4.076  29.448  54.217  1.00  0.00    -0.165 F 
HETATM   32  F   UNL     1       5.099  29.343  52.298  1.00  0.00    -0.165 F 
HETATM   33  F   UNL     1       3.044  28.631  52.484  1.00  0.00    -0.165 F 
ENDBRANCH   5  30
TORSDOF 7
ENDMDL
MODEL 2
REMARK VINA RESULT:      -9.6      4.046      7.078
REMARK  7 active torsions:
REMARK  status: ('A' for Active; 'I' for Inactive)
REMARK    1  A    between atoms: C_2  and  C_3 
REMARK    2  A    between atoms: C_4  and  O_5 
REMARK    3  A    between atoms: C_7  and  O_8 
REMARK    4  A    between atoms: C_9  and  C_10 
REMARK    5  A    between atoms: C_14  and  C_15 
REMARK    6  A    between atoms: C_19  and  C_20 
REMARK    7  A    between atoms: N_22  and  C_23 
ROOT
HETATM    1  C   UNL     1       4.841  28.037  52.699  1.00  0.00     0.103 A 
HETATM    2  N   UNL     1       4.051  28.967  53.272  1.00  0.00    -0.173 NA
HETATM    3  N   UNL     1       4.212  28.789  54.588  1.00  0.00    -0.272 N 
HETATM    4  H   UNL     1       3.717  29.412  55.220  1.00  0.00     0.189 HD
HETATM    5  C   UNL     1       5.022  27.745  54.909  1.00  0.00     0.147 A 
HETATM    6  C   UNL     1       5.440  27.214  53.707  1.00  0.00     0.042 A 
ENDROOT
BRANCH   1   7
HETATM    7  C   UNL     1       4.942  27.977  51.238  1.00  0.00     0.029 A 
HETATM    8  C   UNL     1       5.553  28.978  50.475  1.00  0.00     0.081 A 
HETATM    9  C   UNL     1       5.656  28.852  49.088  1.00  0.00     0.074 A 
HETATM   10  C   UNL     1       5.117  27.736  48.447  1.00  0.00     0.074 A 
HETATM   11  C   UNL     1       4.449  26.742  49.167  1.00  0.00    -0.024 A 
HETATM   12  C   UNL     1       4.384  26.873  50.567  1.00  0.00     0.026 A 
BRANCH   8  13
HETATM   13  O   UNL     1       6.041  30.107  51.076  1.00  0.00    -0.360 OA
HETATM   14  H   UNL     1       6.937  29.927  51.406  1.00  0.00     0.217 HD
ENDBRANCH   8  13
BRANCH  10  15
HETATM   15  O   UNL     1       5.283  27.695  47.092  1.00  0.00    -0.360 OA
HETATM   16  H   UNL     1       5.032  28.550  46.709  1.00  0.00     0.217 HD
ENDBRANCH  10  15
BRANCH  11  17
HETATM   17  C   UNL     1       3.799  25.541  48.525  1.00  0.00     0.037 C 
HETATM   18  C   UNL     1       2.502  25.904  47.819  1.00  0.00     0.010 C 
ENDBRANCH  11  17
ENDBRANCH   1   7
BRANCH   6  19
HETATM   19  C   UNL     1       6.300  26.055  53.519  1.00  0.00     0.016 A 
HETATM   20  C   UNL     1       6.189  24.813  54.095  1.00  0.00     0.132 A 
HETATM   21  N   UNL     1       7.257  24.062  53.647  1.00  0.00    -0.245 N 
HETATM   22  N   UNL     1       8.016  24.766  52.763  1.00  0.00    -0.179 NA
HETATM   23  C   UNL     1       7.434  25.965  52.698  1.00  0.00     0.153 A 
BRANCH  21  24
HETATM   24  C   UNL     1       7.605  22.732  54.016  1.00  0.00     0.058 A 
HETATM   25  C   UNL     1       7.531  22.302  55.348  1.00  0.00     0.031 A 
HETATM   26  C   UNL     1       7.893  20.993  55.684  1.00  0.00     0.002 A 
HETATM   27  C   UNL     1       8.331  20.111  54.698  1.00  0.00     0.000 A 
HETATM   28  C   UNL     1       8.405  20.530  53.372  1.00  0.00     0.002 A 
HETATM   29  C   UNL     1       8.042  21.834  53.029  1.00  0.00     0.031 A 
ENDBRANCH  21  24
ENDBRANCH   6  19
BRANCH   5  30
HETATM   30  C   UNL     1       5.256  27.395  56.311  1.00  0.00     0.435 C 
HETATM   31  F   UNL     1       4.832  28.383  57.144  1.00  0.00    -0.165 F 
HETATM   32  F   UNL     1       4.600  26.268  56.680  1.00  0.00    -0.165 F 
HETATM   33  F   UNL     1       6.570  27.203  56.580  1.00  0.00    -0.165 F 
ENDBRANCH   5  30
TORSDOF 7
ENDMDL
MODEL 3
REMARK VINA RESULT:      -9.5      2.728      6.357
REMARK  7 active torsions:
REMARK  status: ('A' for Active; 'I' for Inactive)
REMARK    1  A    between atoms: C_2  and  C_3 
REMARK    2  A    between atoms: C_4  and  O_5 
REMARK    3  A    between atoms: C_7  and  O_8 
REMARK    4  A    between atoms: C_9  and  C_10 
REMARK    5  A    between atoms: C_14  and  C_15 
REMARK    6  A    between atoms: C_19  and  C_20 
REMARK    7  A    between atoms: N_22  and  C_23 
ROOT
HETATM    1  C   UNL     1       5.525  28.124  53.673  1.00  0.00     0.103 A 
HETATM    2  N   UNL     1       4.753  29.112  53.176  1.00  0.00    -0.173 NA
HETATM    3  N   UNL     1       4.382  28.679  51.966  1.00  0.00    -0.272 N 
HETATM    4  H   UNL     1       3.764  29.269  51.415  1.00  0.00     0.189 HD
HETATM    5  C   UNL     1       4.923  27.481  51.618  1.00  0.00     0.147 A 
HETATM    6  C   UNL     1       5.690  27.091  52.695  1.00  0.00     0.042 A 
ENDROOT
BRANCH   1   7
HETATM    7  C   UNL     1       6.074  28.250  55.027  1.00  0.00     0.029 A 
HETATM    8  C   UNL     1       5.278  28.224  56.177  1.00  0.00     0.081 A 
HETATM    9  C   UNL     1       5.858  28.309  57.445  1.00  0.00     0.074 A 
HETATM   10  C   UNL     1       7.239  28.456  57.572  1.00  0.00     0.074 A 
HETATM   11  C   UNL     1       8.063  28.543  56.446  1.00  0.00    -0.024 A 
HETATM   12  C   UNL     1       7.462  28.423  55.179  1.00  0.00     0.026 A 
BRANCH   8  13
HETATM   13  O   UNL     1       3.916  28.134  56.076  1.00  0.00    -0.360 OA
HETATM   14  H   UNL     1       3.542  29.029  56.021  1.00  0.00     0.217 HD
ENDBRANCH   8  13
BRANCH  10  15
HETATM   15  O   UNL     1       7.713  28.513  58.852  1.00  0.00    -0.360 OA
HETATM   16  H   UNL     1       8.677  28.616  58.836  1.00  0.00     0.217 HD
ENDBRANCH  10  15
BRANCH  11  17
HETATM   17  C   UNL     1       9.554  28.757  56.519  1.00  0.00     0.037 C 
HETATM   18  C   UNL     1       9.909  30.193  56.872  1.00  0.00     0.010 C 
ENDBRANCH  11  17
ENDBRANCH   1   7
BRANCH   6  19
HETATM   19  C   UNL     1       6.499  25.886  52.797  1.00  0.00     0.016 A 
HETATM   20  C   UNL     1       6.290  24.788  53.596  1.00  0.00     0.132 A 
HETATM   21  N   UNL     1       7.342  23.922  53.377  1.00  0.00    -0.245 N 
HETATM   22  N   UNL     1       8.188  24.406  52.427  1.00  0.00    -0.179 NA
HETATM   23  C   UNL     1       7.673  25.590  52.089  1.00  0.00     0.153 A 
BRANCH  21  24
HETATM   24  C   UNL     1       7.598  22.678  54.021  1.00  0.00     0.058 A 
HETATM   25  C   UNL     1       7.528  22.552  55.416  1.00  0.00     0.031 A 
HETATM   26  C   UNL     1       7.799  21.322  56.024  1.00  0.00     0.002 A 
HETATM   27  C   UNL     1       8.142  20.216  55.248  1.00  0.00     0.000 A 
HETATM   28  C   UNL     1       8.212  20.333  53.862  1.00  0.00     0.002 A 
HETATM   29  C   UNL     1       7.940  21.558  53.248  1.00  0.00     0.031 A 
ENDBRANCH  21  24
ENDBRANCH   6  19
BRANCH   5  30
HETATM   30  C   UNL     1       4.646  26.900  50.302  1.00  0.00     0.435 C 
HETATM   31  F   UNL     1       5.645  27.175  49.422  1.00  0.00    -0.165 F 
HETATM   32  F   UNL     1       4.528  25.551  50.346  1.00  0.00    -0.165 F 
HETATM   33  F   UNL     1       3.506  27.387  49.756  1.00  0.00    -0.165 F 
ENDBRANCH   5  30
TORSDOF 7
ENDMDL
MODEL 4
REMARK VINA RESULT:      -9.3      3.578      7.008
REMARK  7 active torsions:
REMARK  status: ('A' for Active; 'I' for Inactive)
REMARK    1  A    between atoms: C_2  and  C_3 
REMARK    2  A    between atoms: C_4  and  O_5 
REMARK    3  A    between atoms: C_7  and  O_8 
REMARK    4  A    between atoms: C_9  and  C_10 
REMARK    5  A    between atoms: C_14  and  C_15 
REMARK    6  A    between atoms: C_19  and  C_20 
REMARK    7  A    between atoms: N_22  and  C_23 
ROOT
HETATM    1  C   UNL     1       7.775  25.179  55.931  1.00  0.00     0.103 A 
HETATM    2  N   UNL     1       8.533  24.330  56.654  1.00  0.00    -0.173 NA
HETATM    3  N   UNL     1       8.756  23.293  55.841  1.00  0.00    -0.272 N 
HETATM    4  H   UNL     1       9.338  22.532  56.183  1.00  0.00     0.189 HD
HETATM    5  C   UNL     1       8.129  23.389  54.638  1.00  0.00     0.147 A 
HETATM    6  C   UNL     1       7.463  24.596  54.661  1.00  0.00     0.042 A 
ENDROOT
BRANCH   1   7
HETATM    7  C   UNL     1       7.377  26.465  56.512  1.00  0.00     0.029 A 
HETATM    8  C   UNL     1       6.044  26.808  56.762  1.00  0.00     0.081 A 
HETATM    9  C   UNL     1       5.724  28.032  57.352  1.00  0.00     0.074 A 
HETATM   10  C   UNL     1       6.734  28.941  57.668  1.00  0.00     0.074 A 
HETATM   11  C   UNL     1       8.074  28.659  57.381  1.00  0.00    -0.024 A 
HETATM   12  C   UNL     1       8.378  27.407  56.815  1.00  0.00     0.026 A 
BRANCH   8  13
HETATM   13  O   UNL     1       5.032  25.955  56.414  1.00  0.00    -0.360 OA
HETATM   14  H   UNL     1       4.371  26.443  55.896  1.00  0.00     0.217 HD
ENDBRANCH   8  13
BRANCH  10  15
HETATM   15  O   UNL     1       6.324  30.102  58.257  1.00  0.00    -0.360 OA
HETATM   16  H   UNL     1       6.987  30.390  58.903  1.00  0.00     0.217 HD
ENDBRANCH  10  15
BRANCH  11  17
HETATM   17  C   UNL     1       9.204  29.623  57.647  1.00  0.00     0.037 C 
HETATM   18  C   UNL     1      10.195  29.673  56.495  1.00  0.00     0.010 C 
ENDBRANCH  11  17
ENDBRANCH   1   7
BRANCH   6  19
HETATM   19  C   UNL     1       6.616  25.143  53.611  1.00  0.00     0.016 A 
HETATM   20  C   UNL     1       6.838  26.254  52.834  1.00  0.00     0.132 A 
HETATM   21  N   UNL     1       5.740  26.397  52.010  1.00  0.00    -0.245 N 
HETATM   22  N   UNL     1       4.848  25.386  52.199  1.00  0.00    -0.179 NA
HETATM   23  C   UNL     1       5.384  24.640  53.168  1.00  0.00     0.153 A 
BRANCH  21  24
HETATM   24  C   UNL     1       5.481  27.437  51.073  1.00  0.00     0.058 A 
HETATM   25  C   UNL     1       5.647  28.787  51.417  1.00  0.00     0.031 A 
HETATM   26  C   UNL     1       5.372  29.788  50.481  1.00  0.00     0.002 A 
HETATM   27  C   UNL     1       4.929  29.452  49.203  1.00  0.00     0.000 A 
HETATM   28  C   UNL     1       4.764  28.114  48.852  1.00  0.00     0.002 A 
HETATM   29  C   UNL     1       5.040  27.109  49.782  1.00  0.00     0.031 A 
ENDBRANCH  21  24
ENDBRANCH   6  19
BRANCH   5  30
HETATM   30  C   UNL     1       8.240  22.306  53.658  1.00  0.00     0.435 C 
HETATM   31  F   UNL     1       9.494  21.783  53.640  1.00  0.00    -0.165 F 
HETATM   32  F   UNL     1       7.395  21.281  53.923  1.00  0.00    -0.165 F 
HETATM   33  F   UNL     1       7.979  22.728  52.397  1.00  0.00    -0.165 F 
ENDBRANCH   5  30
TORSDOF 7
ENDMDL
MODEL 5
REMARK VINA RESULT:      -8.9      2.532      5.421
REMARK  7 active torsions:
REMARK  status: ('A' for Active; 'I' for Inactive)
REMARK    1  A    between atoms: C_2  and  C_3 
REMARK    2  A    between atoms: C_4  and  O_5 
REMARK    3  A    between atoms: C_7  and  O_8 
REMARK    4  A    between atoms: C_9  and  C_10 
REMARK    5  A    between atoms: C_14  and  C_15 
REMARK    6  A    between atoms: C_19  and  C_20 
REMARK    7  A    between atoms: N_22  and  C_23 
ROOT
HETATM    1  C   UNL     1       7.505  26.729  56.685  1.00  0.00     0.103 A 
HETATM    2  N   UNL     1       8.026  27.174  57.846  1.00  0.00    -0.173 NA
HETATM    3  N   UNL     1       7.476  28.380  58.028  1.00  0.00    -0.272 N 
HETATM    4  H   UNL     1       7.716  28.894  58.871  1.00  0.00     0.189 HD
HETATM    5  C   UNL     1       6.665  28.776  57.011  1.00  0.00     0.147 A 
HETATM    6  C   UNL     1       6.670  27.737  56.104  1.00  0.00     0.042 A 
ENDROOT
BRANCH   1   7
HETATM    7  C   UNL     1       7.864  25.394  56.198  1.00  0.00     0.029 A 
HETATM    8  C   UNL     1       8.375  24.391  57.029  1.00  0.00     0.081 A 
HETATM    9  C   UNL     1       8.665  23.124  56.519  1.00  0.00     0.074 A 
HETATM   10  C   UNL     1       8.478  22.858  55.163  1.00  0.00     0.074 A 
HETATM   11  C   UNL     1       8.024  23.850  54.288  1.00  0.00    -0.024 A 
HETATM   12  C   UNL     1       7.708  25.110  54.828  1.00  0.00     0.026 A 
BRANCH   8  13
HETATM   13  O   UNL     1       8.616  24.644  58.352  1.00  0.00    -0.360 OA
HETATM   14  H   UNL     1       7.774  24.835  58.797  1.00  0.00     0.217 HD
ENDBRANCH   8  13
BRANCH  10  15
HETATM   15  O   UNL     1       8.773  21.586  54.763  1.00  0.00    -0.360 OA
HETATM   16  H   UNL     1       7.951  21.101  54.593  1.00  0.00     0.217 HD
ENDBRANCH  10  15
BRANCH  11  17
HETATM   17  C   UNL     1       7.855  23.639  52.804  1.00  0.00     0.037 C 
HETATM   18  C   UNL     1       7.729  24.954  52.050  1.00  0.00     0.010 C 
ENDBRANCH  11  17
ENDBRANCH   1   7
BRANCH   6  19
HETATM   19  C   UNL     1       5.974  27.693  54.827  1.00  0.00     0.016 A 
HETATM   20  C   UNL     1       6.422  28.124  53.601  1.00  0.00     0.132 A 
HETATM   21  N   UNL     1       5.398  27.915  52.700  1.00  0.00    -0.245 N 
HETATM   22  N   UNL     1       4.331  27.317  53.298  1.00  0.00    -0.179 NA
HETATM   23  C   UNL     1       4.687  27.193  54.578  1.00  0.00     0.153 A 
BRANCH  21  24
HETATM   24  C   UNL     1       5.366  28.260  51.319  1.00  0.00     0.058 A 
HETATM   25  C   UNL     1       5.594  29.576  50.891  1.00  0.00     0.031 A 
HETATM   26  C   UNL     1       5.542  29.889  49.528  1.00  0.00     0.002 A 
HETATM   27  C   UNL     1       5.262  28.897  48.590  1.00  0.00     0.000 A 
HETATM   28  C   UNL     1       5.037  27.588  49.007  1.00  0.00     0.002 A 
HETATM   29  C   UNL     1       5.090  27.267  50.366  1.00  0.00     0.031 A 
ENDBRANCH  21  24
ENDBRANCH   6  19
BRANCH   5  30
HETATM   30  C   UNL     1       6.028  30.094  57.045  1.00  0.00     0.435 C 
HETATM   31  F   UNL     1       4.696  29.992  57.295  1.00  0.00    -0.165 F 
HETATM   32  F   UNL     1       6.544  30.894  58.008  1.00  0.00    -0.165 F 
HETATM   33  F   UNL     1       6.149  30.752  55.866  1.00  0.00    -0.165 F 
ENDBRANCH   5  30
TORSDOF 7
ENDMDL
MODEL 6
REMARK VINA RESULT:      -8.7      3.285      7.315
REMARK  7 active torsions:
REMARK  status: ('A' for Active; 'I' for Inactive)
REMARK    1  A    between atoms: C_2  and  C_3 
REMARK    2  A    between atoms: C_4  and  O_5 
REMARK    3  A    between atoms: C_7  and  O_8 
REMARK    4  A    between atoms: C_9  and  C_10 
REMARK    5  A    between atoms: C_14  and  C_15 
REMARK    6  A    between atoms: C_19  and  C_20 
REMARK    7  A    between atoms: N_22  and  C_23 
ROOT
HETATM    1  C   UNL     1       7.195  27.053  57.138  1.00  0.00     0.103 A 
HETATM    2  N   UNL     1       7.452  26.097  58.053  1.00  0.00    -0.173 NA
HETATM    3  N   UNL     1       7.493  24.957  57.354  1.00  0.00    -0.272 N 
HETATM    4  H   UNL     1       7.701  24.097  57.853  1.00  0.00     0.189 HD
HETATM    5  C   UNL     1       7.213  25.110  56.032  1.00  0.00     0.147 A 
HETATM    6  C   UNL     1       6.994  26.459  55.851  1.00  0.00     0.042 A 
ENDROOT
BRANCH   1   7
HETATM    7  C   UNL     1       7.126  28.456  57.559  1.00  0.00     0.029 A 
HETATM    8  C   UNL     1       5.929  29.177  57.615  1.00  0.00     0.081 A 
HETATM    9  C   UNL     1       5.916  30.500  58.061  1.00  0.00     0.074 A 
HETATM   10  C   UNL     1       7.108  31.126  58.424  1.00  0.00     0.074 A 
HETATM   11  C   UNL     1       8.333  30.458  58.329  1.00  0.00    -0.024 A 
HETATM   12  C   UNL     1       8.320  29.115  57.907  1.00  0.00     0.026 A 
BRANCH   8  13
HETATM   13  O   UNL     1       4.754  28.601  57.214  1.00  0.00    -0.360 OA
HETATM   14  H   UNL     1       4.331  29.172  56.551  1.00  0.00     0.217 HD
ENDBRANCH   8  13
BRANCH  10  15
HETATM   15  O   UNL     1       6.991  32.414  58.863  1.00  0.00    -0.360 OA
HETATM   16  H   UNL     1       7.874  32.797  58.981  1.00  0.00     0.217 HD
ENDBRANCH  10  15
BRANCH  11  17
HETATM   17  C   UNL     1       9.660  31.098  58.654  1.00  0.00     0.037 C 
HETATM   18  C   UNL     1      10.714  30.795  57.601  1.00  0.00     0.010 C 
ENDBRANCH  11  17
ENDBRANCH   1   7
BRANCH   6  19
HETATM   19  C   UNL     1       6.628  27.122  54.608  1.00  0.00     0.016 A 
HETATM   20  C   UNL     1       5.400  27.152  53.992  1.00  0.00     0.132 A 
HETATM   21  N   UNL     1       5.553  27.866  52.821  1.00  0.00    -0.245 N 
HETATM   22  N   UNL     1       6.824  28.338  52.694  1.00  0.00    -0.179 NA
HETATM   23  C   UNL     1       7.462  27.880  53.773  1.00  0.00     0.153 A 
BRANCH  21  24
HETATM   24  C   UNL     1       4.576  28.113  51.815  1.00  0.00     0.058 A 
HETATM   25  C   UNL     1       3.415  28.850  52.092  1.00  0.00     0.031 A 
HETATM   26  C   UNL     1       2.465  29.065  51.088  1.00  0.00     0.002 A 
HETATM   27  C   UNL     1       2.664  28.548  49.810  1.00  0.00     0.000 A 
HETATM   28  C   UNL     1       3.816  27.818  49.526  1.00  0.00     0.002 A 
HETATM   29  C   UNL     1       4.770  27.601  50.523  1.00  0.00     0.031 A 
ENDBRANCH  21  24
ENDBRANCH   6  19
BRANCH   5  30
HETATM   30  C   UNL     1       7.173  23.944  55.147  1.00  0.00     0.435 C 
HETATM   31  F   UNL     1       7.050  22.790  55.855  1.00  0.00    -0.165 F 
HETATM   32  F   UNL     1       6.127  23.984  54.286  1.00  0.00    -0.165 F 
HETATM   33  F   UNL     1       8.301  23.824  54.405  1.00  0.00    -0.165 F 
ENDBRANCH   5  30
TORSDOF 7
ENDMDL
MODEL 7
REMARK VINA RESULT:      -8.7      3.802      7.228
REMARK  7 active torsions:
REMARK  status: ('A' for Active; 'I' for Inactive)
REMARK    1  A    between atoms: C_2  and  C_3 
REMARK    2  A    between atoms: C_4  and  O_5 
REMARK    3  A    between atoms: C_7  and  O_8 
REMARK    4  A    between atoms: C_9  and  C_10 
REMARK    5  A    between atoms: C_14  and  C_15 
REMARK    6  A    between atoms: C_19  and  C_20 
REMARK    7  A    between atoms: N_22  and  C_23 
ROOT
HETATM    1  C   UNL     1       7.832  24.931  55.618  1.00  0.00     0.103 A 
HETATM    2  N   UNL     1       8.707  24.143  56.275  1.00  0.00    -0.173 NA
HETATM    3  N   UNL     1       8.927  23.114  55.450  1.00  0.00    -0.272 N 
HETATM    4  H   UNL     1       9.587  22.398  55.742  1.00  0.00     0.189 HD
HETATM    5  C   UNL     1       8.191  23.155  54.307  1.00  0.00     0.147 A 
HETATM    6  C   UNL     1       7.448  24.315  54.384  1.00  0.00     0.042 A 
ENDROOT
BRANCH   1   7
HETATM    7  C   UNL     1       7.401  26.194  56.225  1.00  0.00     0.029 A 
HETATM    8  C   UNL     1       7.603  26.498  57.576  1.00  0.00     0.081 A 
HETATM    9  C   UNL     1       7.206  27.732  58.094  1.00  0.00     0.074 A 
HETATM   10  C   UNL     1       6.571  28.663  57.272  1.00  0.00     0.074 A 
HETATM   11  C   UNL     1       6.300  28.375  55.931  1.00  0.00    -0.024 A 
HETATM   12  C   UNL     1       6.736  27.138  55.421  1.00  0.00     0.026 A 
BRANCH   8  13
HETATM   13  O   UNL     1       8.176  25.580  58.415  1.00  0.00    -0.360 OA
HETATM   14  H   UNL     1       7.706  24.734  58.327  1.00  0.00     0.217 HD
ENDBRANCH   8  13
BRANCH  10  15
HETATM   15  O   UNL     1       6.237  29.847  57.865  1.00  0.00    -0.360 OA
HETATM   16  H   UNL     1       6.050  30.510  57.182  1.00  0.00     0.217 HD
ENDBRANCH  10  15
BRANCH  11  17
HETATM   17  C   UNL     1       5.569  29.318  55.007  1.00  0.00     0.037 C 
HETATM   18  C   UNL     1       4.585  28.587  54.106  1.00  0.00     0.010 C 
ENDBRANCH  11  17
ENDBRANCH   1   7
BRANCH   6  19
HETATM   19  C   UNL     1       6.477  24.792  53.411  1.00  0.00     0.016 A 
HETATM   20  C   UNL     1       6.705  25.534  52.277  1.00  0.00     0.132 A 
HETATM   21  N   UNL     1       5.475  25.779  51.700  1.00  0.00    -0.245 N 
HETATM   22  N   UNL     1       4.475  25.175  52.399  1.00  0.00    -0.179 NA
HETATM   23  C   UNL     1       5.089  24.588  53.428  1.00  0.00     0.153 A 
BRANCH  21  24
HETATM   24  C   UNL     1       5.193  26.559  50.543  1.00  0.00     0.058 A 
HETATM   25  C   UNL     1       4.587  25.993  49.412  1.00  0.00     0.031 A 
HETATM   26  C   UNL     1       4.335  26.780  48.284  1.00  0.00     0.002 A 
HETATM   27  C   UNL     1       4.687  28.128  48.275  1.00  0.00     0.000 A 
HETATM   28  C   UNL     1       5.288  28.698  49.395  1.00  0.00     0.002 A 
HETATM   29  C   UNL     1       5.539  27.919  50.527  1.00  0.00     0.031 A 
ENDBRANCH  21  24
ENDBRANCH   6  19
BRANCH   5  30
HETATM   30  C   UNL     1       8.287  22.072  53.327  1.00  0.00     0.435 C 
HETATM   31  F   UNL     1       8.041  22.521  52.068  1.00  0.00    -0.165 F 
HETATM   32  F   UNL     1       9.516  21.503  53.303  1.00  0.00    -0.165 F 
HETATM   33  F   UNL     1       7.390  21.083  53.566  1.00  0.00    -0.165 F 
ENDBRANCH   5  30
TORSDOF 7
ENDMDL
MODEL 8
REMARK VINA RESULT:      -8.4      4.529      8.392
REMARK  7 active torsions:
REMARK  status: ('A' for Active; 'I' for Inactive)
REMARK    1  A    between atoms: C_2  and  C_3 
REMARK    2  A    between atoms: C_4  and  O_5 
REMARK    3  A    between atoms: C_7  and  O_8 
REMARK    4  A    between atoms: C_9  and  C_10 
REMARK    5  A    between atoms: C_14  and  C_15 
REMARK    6  A    between atoms: C_19  and  C_20 
REMARK    7  A    between atoms: N_22  and  C_23 
ROOT
HETATM    1  C   UNL     1       6.001  31.864  58.771  1.00  0.00     0.103 A 
HETATM    2  N   UNL     1       5.781  32.767  59.747  1.00  0.00    -0.173 NA
HETATM    3  N   UNL     1       6.843  32.666  60.553  1.00  0.00    -0.272 N 
HETATM    4  H   UNL     1       6.895  33.285  61.358  1.00  0.00     0.189 HD
HETATM    5  C   UNL     1       7.723  31.695  60.188  1.00  0.00     0.147 A 
HETATM    6  C   UNL     1       7.204  31.134  59.040  1.00  0.00     0.042 A 
ENDROOT
BRANCH   1   7
HETATM    7  C   UNL     1       5.039  31.739  57.672  1.00  0.00     0.029 A 
HETATM    8  C   UNL     1       3.956  30.852  57.705  1.00  0.00     0.081 A 
HETATM    9  C   UNL     1       3.047  30.801  56.647  1.00  0.00     0.074 A 
HETATM   10  C   UNL     1       3.231  31.614  55.528  1.00  0.00     0.074 A 
HETATM   11  C   UNL     1       4.332  32.471  55.432  1.00  0.00    -0.024 A 
HETATM   12  C   UNL     1       5.219  32.530  56.523  1.00  0.00     0.026 A 
BRANCH   8  13
HETATM   13  O   UNL     1       3.784  30.008  58.768  1.00  0.00    -0.360 OA
HETATM   14  H   UNL     1       3.000  30.287  59.270  1.00  0.00     0.217 HD
ENDBRANCH   8  13
BRANCH  10  15
HETATM   15  O   UNL     1       2.281  31.504  54.554  1.00  0.00    -0.360 OA
HETATM   16  H   UNL     1       1.458  31.918  54.856  1.00  0.00     0.217 HD
ENDBRANCH  10  15
BRANCH  11  17
HETATM   17  C   UNL     1       4.615  33.332  54.225  1.00  0.00     0.037 C 
HETATM   18  C   UNL     1       5.290  34.641  54.604  1.00  0.00     0.010 C 
ENDBRANCH  11  17
ENDBRANCH   1   7
BRANCH   6  19
HETATM   19  C   UNL     1       7.767  30.028  58.281  1.00  0.00     0.016 A 
HETATM   20  C   UNL     1       7.149  28.864  57.891  1.00  0.00     0.132 A 
HETATM   21  N   UNL     1       8.095  28.106  57.232  1.00  0.00    -0.245 N 
HETATM   22  N   UNL     1       9.281  28.768  57.142  1.00  0.00    -0.179 NA
HETATM   23  C   UNL     1       9.073  29.921  57.780  1.00  0.00     0.153 A 
BRANCH  21  24
HETATM   24  C   UNL     1       7.946  26.794  56.699  1.00  0.00     0.058 A 
HETATM   25  C   UNL     1       8.305  25.660  57.443  1.00  0.00     0.031 A 
HETATM   26  C   UNL     1       8.161  24.384  56.889  1.00  0.00     0.002 A 
HETATM   27  C   UNL     1       7.662  24.231  55.597  1.00  0.00     0.000 A 
HETATM   28  C   UNL     1       7.301  25.352  54.853  1.00  0.00     0.002 A 
HETATM   29  C   UNL     1       7.439  26.629  55.400  1.00  0.00     0.031 A 
ENDBRANCH  21  24
ENDBRANCH   6  19
BRANCH   5  30
HETATM   30  C   UNL     1       8.912  31.432  61.001  1.00  0.00     0.435 C 
HETATM   31  F   UNL     1      10.033  31.920  60.408  1.00  0.00    -0.165 F 
HETATM   32  F   UNL     1       8.839  32.007  62.226  1.00  0.00    -0.165 F 
HETATM   33  F   UNL     1       9.121  30.106  61.190  1.00  0.00    -0.165 F 
ENDBRANCH   5  30
TORSDOF 7
ENDMDL
MODEL 9
REMARK VINA RESULT:      -8.4      2.788      6.613
REMARK  7 active torsions:
REMARK  status: ('A' for Active; 'I' for Inactive)
REMARK    1  A    between atoms: C_2  and  C_3 
REMARK    2  A    between atoms: C_4  and  O_5 
REMARK    3  A    between atoms: C_7  and  O_8 
REMARK    4  A    between atoms: C_9  and  C_10 
REMARK    5  A    between atoms: C_14  and  C_15 
REMARK    6  A    between atoms: C_19  and  C_20 
REMARK    7  A    between atoms: N_22  and  C_23 
ROOT
HETATM    1  C   UNL     1       5.593  30.175  55.663  1.00  0.00     0.103 A 
HETATM    2  N   UNL     1       5.102  31.274  55.056  1.00  0.00    -0.173 NA
HETATM    3  N   UNL     1       4.360  30.805  54.047  1.00  0.00    -0.272 N 
HETATM    4  H   UNL     1       3.869  31.475  53.461  1.00  0.00     0.189 HD
HETATM    5  C   UNL     1       4.388  29.451  53.924  1.00  0.00     0.147 A 
HETATM    6  C   UNL     1       5.195  29.000  54.947  1.00  0.00     0.042 A 
ENDROOT
BRANCH   1   7
HETATM    7  C   UNL     1       6.428  30.323  56.859  1.00  0.00     0.029 A 
HETATM    8  C   UNL     1       5.953  30.867  58.058  1.00  0.00     0.081 A 
HETATM    9  C   UNL     1       6.782  30.949  59.178  1.00  0.00     0.074 A 
HETATM   10  C   UNL     1       8.106  30.518  59.101  1.00  0.00     0.074 A 
HETATM   11  C   UNL     1       8.634  30.022  57.905  1.00  0.00    -0.024 A 
HETATM   12  C   UNL     1       7.774  29.918  56.797  1.00  0.00     0.026 A 
BRANCH   8  13
HETATM   13  O   UNL     1       4.673  31.344  58.143  1.00  0.00    -0.360 OA
HETATM   14  H   UNL     1       4.210  31.161  57.308  1.00  0.00     0.217 HD
ENDBRANCH   8  13
BRANCH  10  15
HETATM   15  O   UNL     1       8.831  30.624  60.253  1.00  0.00    -0.360 OA
HETATM   16  H   UNL     1       9.385  29.834  60.360  1.00  0.00     0.217 HD
ENDBRANCH  10  15
BRANCH  11  17
HETATM   17  C   UNL     1      10.072  29.592  57.744  1.00  0.00     0.037 C 
HETATM   18  C   UNL     1      10.549  29.721  56.306  1.00  0.00     0.010 C 
ENDBRANCH  11  17
ENDBRANCH   1   7
BRANCH   6  19
HETATM   19  C   UNL     1       5.563  27.619  55.221  1.00  0.00     0.016 A 
HETATM   20  C   UNL     1       6.280  26.758  54.426  1.00  0.00     0.132 A 
HETATM   21  N   UNL     1       6.338  25.549  55.089  1.00  0.00    -0.245 N 
HETATM   22  N   UNL     1       5.727  25.624  56.303  1.00  0.00    -0.179 NA
HETATM   23  C   UNL     1       5.261  26.873  56.370  1.00  0.00     0.153 A 
BRANCH  21  24
HETATM   24  C   UNL     1       6.920  24.331  54.636  1.00  0.00     0.058 A 
HETATM   25  C   UNL     1       7.203  23.283  55.524  1.00  0.00     0.031 A 
HETATM   26  C   UNL     1       7.790  22.104  55.053  1.00  0.00     0.002 A 
HETATM   27  C   UNL     1       8.097  21.964  53.702  1.00  0.00     0.000 A 
HETATM   28  C   UNL     1       7.818  22.999  52.813  1.00  0.00     0.002 A 
HETATM   29  C   UNL     1       7.230  24.179  53.275  1.00  0.00     0.031 A 
ENDBRANCH  21  24
ENDBRANCH   6  19
BRANCH   5  30
HETATM   30  C   UNL     1       3.662  28.793  52.835  1.00  0.00     0.435 C 
HETATM   31  F   UNL     1       3.000  27.692  53.279  1.00  0.00    -0.165 F 
HETATM   32  F   UNL     1       2.734  29.602  52.269  1.00  0.00    -0.165 F 
HETATM   33  F   UNL     1       4.489  28.374  51.847  1.00  0.00    -0.165 F 
ENDBRANCH   5  30
TORSDOF 7
ENDMDL
MODEL 10
REMARK VINA RESULT:      -8.2      3.785      7.367
REMARK  7 active torsions:
REMARK  status: ('A' for Active; 'I' for Inactive)
REMARK    1  A    between atoms: C_2  and  C_3 
REMARK    2  A    between atoms: C_4  and  O_5 
REMARK    3  A    between atoms: C_7  and  O_8 
REMARK    4  A    between atoms: C_9  and  C_10 
REMARK    5  A    between atoms: C_14  and  C_15 
REMARK    6  A    between atoms: C_19  and  C_20 
REMARK    7  A    between atoms: N_22  and  C_23 
ROOT
HETATM    1  C   UNL     1       7.469  26.204  56.896  1.00  0.00     0.103 A 
HETATM    2  N   UNL     1       7.797  25.575  58.043  1.00  0.00    -0.173 NA
HETATM    3  N   UNL     1       8.177  24.349  57.664  1.00  0.00    -0.272 N 
HETATM    4  H   UNL     1       8.494  23.703  58.381  1.00  0.00     0.189 HD
HETATM    5  C   UNL     1       8.055  24.121  56.329  1.00  0.00     0.147 A 
HETATM    6  C   UNL     1       7.579  25.299  55.792  1.00  0.00     0.042 A 
ENDROOT
BRANCH   1   7
HETATM    7  C   UNL     1       7.045  27.606  56.938  1.00  0.00     0.029 A 
HETATM    8  C   UNL     1       7.895  28.649  57.325  1.00  0.00     0.081 A 
HETATM    9  C   UNL     1       7.450  29.972  57.310  1.00  0.00     0.074 A 
HETATM   10  C   UNL     1       6.136  30.262  56.940  1.00  0.00     0.074 A 
HETATM   11  C   UNL     1       5.239  29.244  56.602  1.00  0.00    -0.024 A 
HETATM   12  C   UNL     1       5.717  27.921  56.593  1.00  0.00     0.026 A 
BRANCH   8  13
HETATM   13  O   UNL     1       9.171  28.383  57.742  1.00  0.00    -0.360 OA
HETATM   14  H   UNL     1       9.768  29.064  57.390  1.00  0.00     0.217 HD
ENDBRANCH   8  13
BRANCH  10  15
HETATM   15  O   UNL     1       5.800  31.586  56.941  1.00  0.00    -0.360 OA
HETATM   16  H   UNL     1       4.835  31.675  56.928  1.00  0.00     0.217 HD
ENDBRANCH  10  15
BRANCH  11  17
HETATM   17  C   UNL     1       3.794  29.491  56.248  1.00  0.00     0.037 C 
HETATM   18  C   UNL     1       3.627  29.935  54.803  1.00  0.00     0.010 C 
ENDBRANCH  11  17
ENDBRANCH   1   7
BRANCH   6  19
HETATM   19  C   UNL     1       7.253  25.549  54.395  1.00  0.00     0.016 A 
HETATM   20  C   UNL     1       6.236  26.320  53.886  1.00  0.00     0.132 A 
HETATM   21  N   UNL     1       6.303  26.219  52.511  1.00  0.00    -0.245 N 
HETATM   22  N   UNL     1       7.360  25.453  52.124  1.00  0.00    -0.179 NA
HETATM   23  C   UNL     1       7.921  25.052  53.266  1.00  0.00     0.153 A 
BRANCH  21  24
HETATM   24  C   UNL     1       5.421  26.791  51.550  1.00  0.00     0.058 A 
HETATM   25  C   UNL     1       4.852  28.058  51.745  1.00  0.00     0.031 A 
HETATM   26  C   UNL     1       3.978  28.588  50.792  1.00  0.00     0.002 A 
HETATM   27  C   UNL     1       3.665  27.862  49.644  1.00  0.00     0.000 A 
HETATM   28  C   UNL     1       4.227  26.604  49.442  1.00  0.00     0.002 A 
HETATM   29  C   UNL     1       5.104  26.069  50.389  1.00  0.00     0.031 A 
ENDBRANCH  21  24
ENDBRANCH   6  19
BRANCH   5  30
HETATM   30  C   UNL     1       8.387  22.809  55.771  1.00  0.00     0.435 C 
HETATM   31  F   UNL     1       9.503  22.869  54.998  1.00  0.00    -0.165 F 
HETATM   32  F   UNL     1       8.628  21.884  56.730  1.00  0.00    -0.165 F 
HETATM   33  F   UNL     1       7.397  22.323  54.982  1.00  0.00    -0.165 F 
ENDBRANCH   5  30
TORSDOF 7
ENDMDL
