MODEL 1
REMARK VINA RESULT:      -8.6      0.000      0.000
REMARK  4 active torsions:
REMARK  status: ('A' for Active; 'I' for Inactive)
REMARK    1  A    between atoms: C_2  and  O_3 
REMARK    2  A    between atoms: O_3  and  C_4 
REMARK    3  A    between atoms: C_9  and  C_10 
REMARK       I    between atoms: C_10  and  N_11 
REMARK    4  A    between atoms: N_11  and  C_12 
ROOT
HETATM    1  C   UNL     1       8.700  29.350  56.771  1.00  0.00     0.276 C 
HETATM    2  N   UNL     1       7.710  28.457  56.382  1.00  0.00    -0.350 N 
HETATM    3  O   UNL     1       9.728  29.510  56.123  1.00  0.00    -0.265 OA
HETATM    4  H   UNL     1       6.876  28.578  56.956  1.00  0.00     0.163 HD
ENDROOT
BRANCH   1   5
HETATM    5  C   UNL     1       8.405  30.050  58.005  1.00  0.00     0.150 A 
HETATM    6  O   UNL     1       9.269  29.898  59.059  1.00  0.00    -0.304 OA
HETATM    7  C   UNL     1       8.743  30.574  60.113  1.00  0.00     0.087 A 
HETATM    8  C   UNL     1       7.554  31.190  59.749  1.00  0.00     0.009 A 
HETATM    9  C   UNL     1       9.299  30.638  61.387  1.00  0.00     0.041 A 
HETATM   10  C   UNL     1       6.855  31.932  60.726  1.00  0.00     0.051 A 
HETATM   11  C   UNL     1       7.344  30.867  58.373  1.00  0.00    -0.009 A 
HETATM   12  C   UNL     1       7.374  32.006  62.026  1.00  0.00     0.069 A 
HETATM   13  C   UNL     1       8.582  31.370  62.339  1.00  0.00     0.039 A 
HETATM   14  C   UNL     1       6.207  31.290  57.515  1.00  0.00     0.052 C 
BRANCH  12  15
HETATM   15  O   UNL     1       6.797  32.667  63.076  1.00  0.00    -0.351 OA
BRANCH  15  16
HETATM   16  C   UNL     1       7.633  32.984  64.189  1.00  0.00     0.171 C 
HETATM   17  C   UNL     1       6.786  33.696  65.227  1.00  0.00     0.034 C 
ENDBRANCH  15  16
ENDBRANCH  12  15
ENDBRANCH   1   5
BRANCH   2  18
HETATM   18  C   UNL     1       7.489  28.016  55.011  1.00  0.00     0.089 C 
HETATM   19  C   UNL     1       6.198  28.622  54.443  1.00  0.00     0.063 C 
HETATM   20  C   UNL     1       4.898  27.928  54.889  1.00  0.00     0.121 C 
HETATM   21  C   UNL     1       4.469  28.281  56.317  1.00  0.00     0.046 C 
HETATM   22  C   UNL     1       3.752  28.349  53.944  1.00  0.00     0.046 C 
HETATM   23  N   UNL     1       5.027  26.427  54.738  1.00  0.00    -0.059 N 
HETATM   24  H   UNL     1       4.905  26.209  53.738  1.00  0.00     0.279 HD
HETATM   25  H   UNL     1       4.221  25.975  55.193  1.00  0.00     0.279 HD
HETATM   26  C   UNL     1       6.291  25.719  55.191  1.00  0.00     0.121 C 
HETATM   27  C   UNL     1       6.280  24.344  54.488  1.00  0.00     0.046 C 
HETATM   28  C   UNL     1       6.236  25.461  56.698  1.00  0.00     0.046 C 
HETATM   29  C   UNL     1       7.510  26.511  54.711  1.00  0.00     0.063 C 
ENDBRANCH   2  18
TORSDOF 4
ENDMDL
MODEL 2
REMARK VINA RESULT:      -8.5      2.445      4.211
REMARK  4 active torsions:
REMARK  status: ('A' for Active; 'I' for Inactive)
REMARK    1  A    between atoms: C_2  and  O_3 
REMARK    2  A    between atoms: O_3  and  C_4 
REMARK    3  A    between atoms: C_9  and  C_10 
REMARK       I    between atoms: C_10  and  N_11 
REMARK    4  A    between atoms: N_11  and  C_12 
ROOT
HETATM    1  C   UNL     1       5.410  26.742  56.123  1.00  0.00     0.276 C 
HETATM    2  N   UNL     1       5.157  26.821  54.760  1.00  0.00    -0.350 N 
HETATM    3  O   UNL     1       4.985  25.824  56.816  1.00  0.00    -0.265 OA
HETATM    4  H   UNL     1       5.717  27.561  54.336  1.00  0.00     0.163 HD
ENDROOT
BRANCH   1   5
HETATM    5  C   UNL     1       6.202  27.841  56.637  1.00  0.00     0.150 A 
HETATM    6  O   UNL     1       7.569  27.730  56.594  1.00  0.00    -0.304 OA
HETATM    7  C   UNL     1       8.083  28.832  57.199  1.00  0.00     0.087 A 
HETATM    8  C   UNL     1       7.063  29.677  57.614  1.00  0.00     0.009 A 
HETATM    9  C   UNL     1       9.437  29.086  57.394  1.00  0.00     0.041 A 
HETATM   10  C   UNL     1       7.410  30.874  58.278  1.00  0.00     0.051 A 
HETATM   11  C   UNL     1       5.841  29.043  57.230  1.00  0.00    -0.009 A 
HETATM   12  C   UNL     1       8.763  31.157  58.509  1.00  0.00     0.069 A 
HETATM   13  C   UNL     1       9.754  30.273  58.064  1.00  0.00     0.039 A 
HETATM   14  C   UNL     1       4.461  29.548  57.449  1.00  0.00     0.052 C 
BRANCH  12  15
HETATM   15  O   UNL     1       9.245  32.262  59.157  1.00  0.00    -0.351 OA
BRANCH  15  16
HETATM   16  C   UNL     1       8.732  32.532  60.461  1.00  0.00     0.171 C 
HETATM   17  C   UNL     1       9.584  31.780  61.467  1.00  0.00     0.034 C 
ENDBRANCH  15  16
ENDBRANCH  12  15
ENDBRANCH   1   5
BRANCH   2  18
HETATM   18  C   UNL     1       4.852  25.678  53.909  1.00  0.00     0.089 C 
HETATM   19  C   UNL     1       6.056  24.730  53.816  1.00  0.00     0.063 C 
HETATM   20  C   UNL     1       7.164  25.173  52.844  1.00  0.00     0.121 C 
HETATM   21  C   UNL     1       8.054  26.293  53.392  1.00  0.00     0.046 C 
HETATM   22  C   UNL     1       8.076  23.967  52.536  1.00  0.00     0.046 C 
HETATM   23  N   UNL     1       6.562  25.585  51.517  1.00  0.00    -0.059 N 
HETATM   24  H   UNL     1       6.335  24.722  51.003  1.00  0.00     0.279 HD
HETATM   25  H   UNL     1       7.293  26.032  50.944  1.00  0.00     0.279 HD
HETATM   26  C   UNL     1       5.323  26.460  51.478  1.00  0.00     0.121 C 
HETATM   27  C   UNL     1       4.735  26.296  50.060  1.00  0.00     0.046 C 
HETATM   28  C   UNL     1       5.713  27.930  51.644  1.00  0.00     0.046 C 
HETATM   29  C   UNL     1       4.307  25.937  52.498  1.00  0.00     0.063 C 
ENDBRANCH   2  18
TORSDOF 4
ENDMDL
MODEL 3
REMARK VINA RESULT:      -8.4      6.681      9.306
REMARK  4 active torsions:
REMARK  status: ('A' for Active; 'I' for Inactive)
REMARK    1  A    between atoms: C_2  and  O_3 
REMARK    2  A    between atoms: O_3  and  C_4 
REMARK    3  A    between atoms: C_9  and  C_10 
REMARK       I    between atoms: C_10  and  N_11 
REMARK    4  A    between atoms: N_11  and  C_12 
ROOT
HETATM    1  C   UNL     1       5.452  28.030  51.388  1.00  0.00     0.276 C 
HETATM    2  N   UNL     1       4.329  27.729  50.628  1.00  0.00    -0.350 N 
HETATM    3  O   UNL     1       5.997  29.127  51.344  1.00  0.00    -0.265 OA
HETATM    4  H   UNL     1       3.934  26.833  50.915  1.00  0.00     0.163 HD
ENDROOT
BRANCH   1   5
HETATM    5  C   UNL     1       5.912  26.932  52.214  1.00  0.00     0.150 A 
HETATM    6  O   UNL     1       6.668  25.952  51.625  1.00  0.00    -0.304 OA
HETATM    7  C   UNL     1       6.905  25.003  52.568  1.00  0.00     0.087 A 
HETATM    8  C   UNL     1       6.332  25.368  53.777  1.00  0.00     0.009 A 
HETATM    9  C   UNL     1       7.610  23.821  52.362  1.00  0.00     0.041 A 
HETATM   10  C   UNL     1       6.465  24.492  54.876  1.00  0.00     0.051 A 
HETATM   11  C   UNL     1       5.703  26.632  53.553  1.00  0.00    -0.009 A 
HETATM   12  C   UNL     1       7.153  23.284  54.705  1.00  0.00     0.069 A 
HETATM   13  C   UNL     1       7.719  22.965  53.463  1.00  0.00     0.039 A 
HETATM   14  C   UNL     1       4.950  27.448  54.542  1.00  0.00     0.052 C 
BRANCH  12  15
HETATM   15  O   UNL     1       7.342  22.331  55.669  1.00  0.00    -0.351 OA
BRANCH  15  16
HETATM   16  C   UNL     1       8.656  21.792  55.809  1.00  0.00     0.171 C 
HETATM   17  C   UNL     1       8.526  20.314  56.131  1.00  0.00     0.034 C 
ENDBRANCH  15  16
ENDBRANCH  12  15
ENDBRANCH   1   5
BRANCH   2  18
HETATM   18  C   UNL     1       3.383  28.717  50.125  1.00  0.00     0.089 C 
HETATM   19  C   UNL     1       2.112  28.037  49.596  1.00  0.00     0.063 C 
HETATM   20  C   UNL     1       2.236  27.422  48.191  1.00  0.00     0.121 C 
HETATM   21  C   UNL     1       2.992  26.089  48.165  1.00  0.00     0.046 C 
HETATM   22  C   UNL     1       0.822  27.162  47.628  1.00  0.00     0.046 C 
HETATM   23  N   UNL     1       2.882  28.409  47.242  1.00  0.00    -0.059 N 
HETATM   24  H   UNL     1       2.160  29.094  46.975  1.00  0.00     0.279 HD
HETATM   25  H   UNL     1       3.107  27.925  46.360  1.00  0.00     0.279 HD
HETATM   26  C   UNL     1       4.101  29.201  47.677  1.00  0.00     0.121 C 
HETATM   27  C   UNL     1       4.202  30.392  46.699  1.00  0.00     0.046 C 
HETATM   28  C   UNL     1       5.366  28.358  47.501  1.00  0.00     0.046 C 
HETATM   29  C   UNL     1       3.870  29.741  49.092  1.00  0.00     0.063 C 
ENDBRANCH   2  18
TORSDOF 4
ENDMDL
MODEL 4
REMARK VINA RESULT:      -7.7      5.545     11.033
REMARK  4 active torsions:
REMARK  status: ('A' for Active; 'I' for Inactive)
REMARK    1  A    between atoms: C_2  and  O_3 
REMARK    2  A    between atoms: O_3  and  C_4 
REMARK    3  A    between atoms: C_9  and  C_10 
REMARK       I    between atoms: C_10  and  N_11 
REMARK    4  A    between atoms: N_11  and  C_12 
ROOT
HETATM    1  C   UNL     1       5.629  28.195  51.550  1.00  0.00     0.276 C 
HETATM    2  N   UNL     1       6.063  27.092  52.274  1.00  0.00    -0.350 N 
HETATM    3  O   UNL     1       6.059  29.324  51.758  1.00  0.00    -0.265 OA
HETATM    4  H   UNL     1       5.710  26.231  51.856  1.00  0.00     0.163 HD
ENDROOT
BRANCH   1   5
HETATM    5  C   UNL     1       4.626  27.883  50.552  1.00  0.00     0.150 A 
HETATM    6  O   UNL     1       4.838  26.800  49.738  1.00  0.00    -0.304 OA
HETATM    7  C   UNL     1       3.816  26.762  48.843  1.00  0.00     0.087 A 
HETATM    8  C   UNL     1       2.924  27.797  49.083  1.00  0.00     0.009 A 
HETATM    9  C   UNL     1       3.678  25.831  47.818  1.00  0.00     0.041 A 
HETATM   10  C   UNL     1       1.799  27.924  48.238  1.00  0.00     0.051 A 
HETATM   11  C   UNL     1       3.439  28.514  50.206  1.00  0.00    -0.009 A 
HETATM   12  C   UNL     1       1.634  27.016  47.183  1.00  0.00     0.069 A 
HETATM   13  C   UNL     1       2.561  25.985  46.989  1.00  0.00     0.039 A 
HETATM   14  C   UNL     1       2.845  29.712  50.855  1.00  0.00     0.052 C 
BRANCH  12  15
HETATM   15  O   UNL     1       0.610  27.029  46.275  1.00  0.00    -0.351 OA
BRANCH  15  16
HETATM   16  C   UNL     1      -0.090  28.260  46.096  1.00  0.00     0.171 C 
HETATM   17  C   UNL     1      -0.870  28.173  44.797  1.00  0.00     0.034 C 
ENDBRANCH  15  16
ENDBRANCH  12  15
ENDBRANCH   1   5
BRANCH   2  18
HETATM   18  C   UNL     1       7.353  27.000  52.945  1.00  0.00     0.089 C 
HETATM   19  C   UNL     1       7.951  25.594  52.789  1.00  0.00     0.063 C 
HETATM   20  C   UNL     1       7.369  24.528  53.735  1.00  0.00     0.121 C 
HETATM   21  C   UNL     1       5.987  24.017  53.313  1.00  0.00     0.046 C 
HETATM   22  C   UNL     1       8.320  23.313  53.770  1.00  0.00     0.046 C 
HETATM   23  N   UNL     1       7.321  25.056  55.153  1.00  0.00    -0.059 N 
HETATM   24  H   UNL     1       8.277  24.998  55.533  1.00  0.00     0.279 HD
HETATM   25  H   UNL     1       6.780  24.399  55.735  1.00  0.00     0.279 HD
HETATM   26  C   UNL     1       6.822  26.462  55.429  1.00  0.00     0.121 C 
HETATM   27  C   UNL     1       7.332  26.822  56.841  1.00  0.00     0.046 C 
HETATM   28  C   UNL     1       5.292  26.475  55.479  1.00  0.00     0.046 C 
HETATM   29  C   UNL     1       7.448  27.425  54.416  1.00  0.00     0.063 C 
ENDBRANCH   2  18
TORSDOF 4
ENDMDL
MODEL 5
REMARK VINA RESULT:      -7.7      5.792      8.854
REMARK  4 active torsions:
REMARK  status: ('A' for Active; 'I' for Inactive)
REMARK    1  A    between atoms: C_2  and  O_3 
REMARK    2  A    between atoms: O_3  and  C_4 
REMARK    3  A    between atoms: C_9  and  C_10 
REMARK       I    between atoms: C_10  and  N_11 
REMARK    4  A    between atoms: N_11  and  C_12 
ROOT
HETATM    1  C   UNL     1       4.567  28.420  53.807  1.00  0.00     0.276 C 
HETATM    2  N   UNL     1       4.646  29.097  52.596  1.00  0.00    -0.350 N 
HETATM    3  O   UNL     1       3.826  28.784  54.713  1.00  0.00    -0.265 OA
HETATM    4  H   UNL     1       5.192  28.560  51.923  1.00  0.00     0.163 HD
ENDROOT
BRANCH   1   5
HETATM    5  C   UNL     1       5.442  27.268  53.892  1.00  0.00     0.150 A 
HETATM    6  O   UNL     1       6.017  26.805  52.736  1.00  0.00    -0.304 OA
HETATM    7  C   UNL     1       6.717  25.685  53.054  1.00  0.00     0.087 A 
HETATM    8  C   UNL     1       6.627  25.428  54.415  1.00  0.00     0.009 A 
HETATM    9  C   UNL     1       7.419  24.891  52.153  1.00  0.00     0.041 A 
HETATM   10  C   UNL     1       7.285  24.289  54.928  1.00  0.00     0.051 A 
HETATM   11  C   UNL     1       5.815  26.468  54.963  1.00  0.00    -0.009 A 
HETATM   12  C   UNL     1       7.989  23.454  54.050  1.00  0.00     0.069 A 
HETATM   13  C   UNL     1       8.054  23.763  52.685  1.00  0.00     0.039 A 
HETATM   14  C   UNL     1       5.421  26.644  56.385  1.00  0.00     0.052 C 
BRANCH  12  15
HETATM   15  O   UNL     1       8.653  22.310  54.399  1.00  0.00    -0.351 OA
BRANCH  15  16
HETATM   16  C   UNL     1       7.921  21.086  54.348  1.00  0.00     0.171 C 
HETATM   17  C   UNL     1       7.727  20.594  55.771  1.00  0.00     0.034 C 
ENDBRANCH  15  16
ENDBRANCH  12  15
ENDBRANCH   1   5
BRANCH   2  18
HETATM   18  C   UNL     1       3.585  29.930  52.046  1.00  0.00     0.089 C 
HETATM   19  C   UNL     1       2.590  29.085  51.239  1.00  0.00     0.063 C 
HETATM   20  C   UNL     1       3.050  28.710  49.819  1.00  0.00     0.121 C 
HETATM   21  C   UNL     1       4.082  27.578  49.783  1.00  0.00     0.046 C 
HETATM   22  C   UNL     1       1.827  28.246  48.999  1.00  0.00     0.046 C 
HETATM   23  N   UNL     1       3.588  29.931  49.103  1.00  0.00    -0.059 N 
HETATM   24  H   UNL     1       2.777  30.484  48.790  1.00  0.00     0.279 HD
HETATM   25  H   UNL     1       4.040  29.632  48.227  1.00  0.00     0.279 HD
HETATM   26  C   UNL     1       4.521  30.888  49.821  1.00  0.00     0.121 C 
HETATM   27  C   UNL     1       4.492  32.199  49.005  1.00  0.00     0.046 C 
HETATM   28  C   UNL     1       5.955  30.355  49.776  1.00  0.00     0.046 C 
HETATM   29  C   UNL     1       3.974  31.166  51.224  1.00  0.00     0.063 C 
ENDBRANCH   2  18
TORSDOF 4
ENDMDL
MODEL 6
REMARK VINA RESULT:      -7.7      4.434      9.545
REMARK  4 active torsions:
REMARK  status: ('A' for Active; 'I' for Inactive)
REMARK    1  A    between atoms: C_2  and  O_3 
REMARK    2  A    between atoms: O_3  and  C_4 
REMARK    3  A    between atoms: C_9  and  C_10 
REMARK       I    between atoms: C_10  and  N_11 
REMARK    4  A    between atoms: N_11  and  C_12 
ROOT
HETATM    1  C   UNL     1       4.157  33.253  62.076  1.00  0.00     0.276 C 
HETATM    2  N   UNL     1       4.347  33.376  63.447  1.00  0.00    -0.350 N 
HETATM    3  O   UNL     1       3.098  33.545  61.533  1.00  0.00    -0.265 OA
HETATM    4  H   UNL     1       5.328  33.235  63.685  1.00  0.00     0.163 HD
ENDROOT
BRANCH   1   5
HETATM    5  C   UNL     1       5.314  32.741  61.369  1.00  0.00     0.150 A 
HETATM    6  O   UNL     1       6.522  32.743  62.017  1.00  0.00    -0.304 OA
HETATM    7  C   UNL     1       7.455  32.301  61.134  1.00  0.00     0.087 A 
HETATM    8  C   UNL     1       6.861  31.984  59.921  1.00  0.00     0.009 A 
HETATM    9  C   UNL     1       8.817  32.188  61.391  1.00  0.00     0.041 A 
HETATM   10  C   UNL     1       7.683  31.518  58.871  1.00  0.00     0.051 A 
HETATM   11  C   UNL     1       5.466  32.251  60.079  1.00  0.00    -0.009 A 
HETATM   12  C   UNL     1       9.063  31.406  59.086  1.00  0.00     0.069 A 
HETATM   13  C   UNL     1       9.612  31.733  60.333  1.00  0.00     0.039 A 
HETATM   14  C   UNL     1       4.397  32.073  59.062  1.00  0.00     0.052 C 
BRANCH  12  15
HETATM   15  O   UNL     1       9.981  30.992  58.159  1.00  0.00    -0.351 OA
BRANCH  15  16
HETATM   16  C   UNL     1       9.647  29.849  57.373  1.00  0.00     0.171 C 
HETATM   17  C   UNL     1      10.894  29.411  56.625  1.00  0.00     0.034 C 
ENDBRANCH  15  16
ENDBRANCH  12  15
ENDBRANCH   1   5
BRANCH   2  18
HETATM   18  C   UNL     1       3.602  34.289  64.304  1.00  0.00     0.089 C 
HETATM   19  C   UNL     1       3.745  35.737  63.816  1.00  0.00     0.063 C 
HETATM   20  C   UNL     1       5.064  36.430  64.202  1.00  0.00     0.121 C 
HETATM   21  C   UNL     1       6.262  35.996  63.352  1.00  0.00     0.046 C 
HETATM   22  C   UNL     1       4.902  37.955  64.027  1.00  0.00     0.046 C 
HETATM   23  N   UNL     1       5.359  36.213  65.671  1.00  0.00    -0.059 N 
HETATM   24  H   UNL     1       4.760  36.861  66.203  1.00  0.00     0.279 HD
HETATM   25  H   UNL     1       6.317  36.537  65.871  1.00  0.00     0.279 HD
HETATM   26  C   UNL     1       5.180  34.840  66.292  1.00  0.00     0.121 C 
HETATM   27  C   UNL     1       5.108  35.071  67.817  1.00  0.00     0.046 C 
HETATM   28  C   UNL     1       6.414  33.976  66.019  1.00  0.00     0.046 C 
HETATM   29  C   UNL     1       3.851  34.244  65.818  1.00  0.00     0.063 C 
ENDBRANCH   2  18
TORSDOF 4
ENDMDL
MODEL 7
REMARK VINA RESULT:      -7.6      5.938     10.120
REMARK  4 active torsions:
REMARK  status: ('A' for Active; 'I' for Inactive)
REMARK    1  A    between atoms: C_2  and  O_3 
REMARK    2  A    between atoms: O_3  and  C_4 
REMARK    3  A    between atoms: C_9  and  C_10 
REMARK       I    between atoms: C_10  and  N_11 
REMARK    4  A    between atoms: N_11  and  C_12 
ROOT
HETATM    1  C   UNL     1       4.988  26.969  50.435  1.00  0.00     0.276 C 
HETATM    2  N   UNL     1       5.463  27.049  51.738  1.00  0.00    -0.350 N 
HETATM    3  O   UNL     1       4.541  25.929  49.965  1.00  0.00    -0.265 OA
HETATM    4  H   UNL     1       5.646  28.020  51.991  1.00  0.00     0.163 HD
ENDROOT
BRANCH   1   5
HETATM    5  C   UNL     1       5.086  28.213  49.699  1.00  0.00     0.150 A 
HETATM    6  O   UNL     1       5.686  29.283  50.312  1.00  0.00    -0.304 OA
HETATM    7  C   UNL     1       5.584  30.342  49.467  1.00  0.00     0.087 A 
HETATM    8  C   UNL     1       4.945  29.965  48.294  1.00  0.00     0.009 A 
HETATM    9  C   UNL     1       6.039  31.630  49.731  1.00  0.00     0.041 A 
HETATM   10  C   UNL     1       4.737  30.945  47.298  1.00  0.00     0.051 A 
HETATM   11  C   UNL     1       4.639  28.576  48.436  1.00  0.00    -0.009 A 
HETATM   12  C   UNL     1       5.166  32.258  47.533  1.00  0.00     0.069 A 
HETATM   13  C   UNL     1       5.812  32.584  48.733  1.00  0.00     0.039 A 
HETATM   14  C   UNL     1       3.954  27.703  47.448  1.00  0.00     0.052 C 
BRANCH  12  15
HETATM   15  O   UNL     1       5.013  33.311  46.673  1.00  0.00    -0.351 OA
BRANCH  15  16
HETATM   16  C   UNL     1       6.145  34.154  46.462  1.00  0.00     0.171 C 
HETATM   17  C   UNL     1       7.018  33.513  45.399  1.00  0.00     0.034 C 
ENDBRANCH  15  16
ENDBRANCH  12  15
ENDBRANCH   1   5
BRANCH   2  18
HETATM   18  C   UNL     1       5.050  26.168  52.823  1.00  0.00     0.089 C 
HETATM   19  C   UNL     1       5.295  26.829  54.187  1.00  0.00     0.063 C 
HETATM   20  C   UNL     1       6.751  26.781  54.685  1.00  0.00     0.121 C 
HETATM   21  C   UNL     1       7.672  27.794  53.998  1.00  0.00     0.046 C 
HETATM   22  C   UNL     1       6.776  27.085  56.198  1.00  0.00     0.046 C 
HETATM   23  N   UNL     1       7.309  25.382  54.536  1.00  0.00    -0.059 N 
HETATM   24  H   UNL     1       6.932  24.818  55.312  1.00  0.00     0.279 HD
HETATM   25  H   UNL     1       8.324  25.407  54.715  1.00  0.00     0.279 HD
HETATM   26  C   UNL     1       7.068  24.594  53.262  1.00  0.00     0.121 C 
HETATM   27  C   UNL     1       7.346  23.117  53.619  1.00  0.00     0.046 C 
HETATM   28  C   UNL     1       8.082  25.004  52.192  1.00  0.00     0.046 C 
HETATM   29  C   UNL     1       5.598  24.736  52.855  1.00  0.00     0.063 C 
ENDBRANCH   2  18
TORSDOF 4
ENDMDL
MODEL 8
REMARK VINA RESULT:      -7.6      3.100      8.315
REMARK  4 active torsions:
REMARK  status: ('A' for Active; 'I' for Inactive)
REMARK    1  A    between atoms: C_2  and  O_3 
REMARK    2  A    between atoms: O_3  and  C_4 
REMARK    3  A    between atoms: C_9  and  C_10 
REMARK       I    between atoms: C_10  and  N_11 
REMARK    4  A    between atoms: N_11  and  C_12 
ROOT
HETATM    1  C   UNL     1       6.037  31.744  58.390  1.00  0.00     0.276 C 
HETATM    2  N   UNL     1       5.972  31.933  59.765  1.00  0.00    -0.350 N 
HETATM    3  O   UNL     1       5.771  32.637  57.593  1.00  0.00    -0.265 OA
HETATM    4  H   UNL     1       6.376  31.134  60.253  1.00  0.00     0.163 HD
ENDROOT
BRANCH   1   5
HETATM    5  C   UNL     1       6.433  30.406  58.001  1.00  0.00     0.150 A 
HETATM    6  O   UNL     1       5.469  29.562  57.512  1.00  0.00    -0.304 OA
HETATM    7  C   UNL     1       6.058  28.356  57.299  1.00  0.00     0.087 A 
HETATM    8  C   UNL     1       7.407  28.413  57.619  1.00  0.00     0.009 A 
HETATM    9  C   UNL     1       5.411  27.214  56.837  1.00  0.00     0.041 A 
HETATM   10  C   UNL     1       8.183  27.242  57.472  1.00  0.00     0.051 A 
HETATM   11  C   UNL     1       7.656  29.751  58.056  1.00  0.00    -0.009 A 
HETATM   12  C   UNL     1       7.564  26.067  57.026  1.00  0.00     0.069 A 
HETATM   13  C   UNL     1       6.199  26.065  56.710  1.00  0.00     0.039 A 
HETATM   14  C   UNL     1       8.952  30.320  58.510  1.00  0.00     0.052 C 
BRANCH  12  15
HETATM   15  O   UNL     1       8.181  24.857  56.857  1.00  0.00    -0.351 OA
BRANCH  15  16
HETATM   16  C   UNL     1       7.852  24.111  55.686  1.00  0.00     0.171 C 
HETATM   17  C   UNL     1       7.986  22.636  56.014  1.00  0.00     0.034 C 
ENDBRANCH  15  16
ENDBRANCH  12  15
ENDBRANCH   1   5
BRANCH   2  18
HETATM   18  C   UNL     1       6.101  33.225  60.427  1.00  0.00     0.089 C 
HETATM   19  C   UNL     1       7.244  33.201  61.453  1.00  0.00     0.063 C 
HETATM   20  C   UNL     1       6.902  32.531  62.796  1.00  0.00     0.121 C 
HETATM   21  C   UNL     1       6.888  31.000  62.737  1.00  0.00     0.046 C 
HETATM   22  C   UNL     1       7.957  32.943  63.846  1.00  0.00     0.046 C 
HETATM   23  N   UNL     1       5.578  33.048  63.317  1.00  0.00    -0.059 N 
HETATM   24  H   UNL     1       5.751  33.978  63.724  1.00  0.00     0.279 HD
HETATM   25  H   UNL     1       5.289  32.472  64.122  1.00  0.00     0.279 HD
HETATM   26  C   UNL     1       4.392  33.191  62.382  1.00  0.00     0.121 C 
HETATM   27  C   UNL     1       3.405  34.142  63.093  1.00  0.00     0.046 C 
HETATM   28  C   UNL     1       3.687  31.842  62.218  1.00  0.00     0.046 C 
HETATM   29  C   UNL     1       4.857  33.844  61.077  1.00  0.00     0.063 C 
ENDBRANCH   2  18
TORSDOF 4
ENDMDL
MODEL 9
REMARK VINA RESULT:      -7.4      4.244      7.128
REMARK  4 active torsions:
REMARK  status: ('A' for Active; 'I' for Inactive)
REMARK    1  A    between atoms: C_2  and  O_3 
REMARK    2  A    between atoms: O_3  and  C_4 
REMARK    3  A    between atoms: C_9  and  C_10 
REMARK       I    between atoms: C_10  and  N_11 
REMARK    4  A    between atoms: N_11  and  C_12 
ROOT
HETATM    1  C   UNL     1       4.943  26.313  51.686  1.00  0.00     0.276 C 
HETATM    2  N   UNL     1       4.612  27.440  50.944  1.00  0.00    -0.350 N 
HETATM    3  O   UNL     1       4.806  25.177  51.246  1.00  0.00    -0.265 OA
HETATM    4  H   UNL     1       4.939  28.284  51.414  1.00  0.00     0.163 HD
ENDROOT
BRANCH   1   5
HETATM    5  C   UNL     1       5.447  26.612  53.011  1.00  0.00     0.150 A 
HETATM    6  O   UNL     1       4.609  27.242  53.895  1.00  0.00    -0.304 OA
HETATM    7  C   UNL     1       5.323  27.486  55.025  1.00  0.00     0.087 A 
HETATM    8  C   UNL     1       6.614  26.995  54.897  1.00  0.00     0.009 A 
HETATM    9  C   UNL     1       4.844  28.145  56.153  1.00  0.00     0.041 A 
HETATM   10  C   UNL     1       7.510  27.170  55.974  1.00  0.00     0.051 A 
HETATM   11  C   UNL     1       6.689  26.408  53.596  1.00  0.00    -0.009 A 
HETATM   12  C   UNL     1       7.071  27.844  57.122  1.00  0.00     0.069 A 
HETATM   13  C   UNL     1       5.754  28.315  57.203  1.00  0.00     0.039 A 
HETATM   14  C   UNL     1       7.866  25.743  52.977  1.00  0.00     0.052 C 
BRANCH  12  15
HETATM   15  O   UNL     1       7.830  28.105  58.230  1.00  0.00    -0.351 OA
BRANCH  15  16
HETATM   16  C   UNL     1       8.135  29.472  58.507  1.00  0.00     0.171 C 
HETATM   17  C   UNL     1       9.383  29.844  57.728  1.00  0.00     0.034 C 
ENDBRANCH  15  16
ENDBRANCH  12  15
ENDBRANCH   1   5
BRANCH   2  18
HETATM   18  C   UNL     1       4.573  27.488  49.488  1.00  0.00     0.089 C 
HETATM   19  C   UNL     1       5.255  28.760  48.965  1.00  0.00     0.063 C 
HETATM   20  C   UNL     1       4.402  30.039  49.043  1.00  0.00     0.121 C 
HETATM   21  C   UNL     1       4.310  30.635  50.451  1.00  0.00     0.046 C 
HETATM   22  C   UNL     1       5.022  31.115  48.125  1.00  0.00     0.046 C 
HETATM   23  N   UNL     1       3.016  29.777  48.493  1.00  0.00    -0.059 N 
HETATM   24  H   UNL     1       3.088  29.782  47.466  1.00  0.00     0.279 HD
HETATM   25  H   UNL     1       2.414  30.587  48.706  1.00  0.00     0.279 HD
HETATM   26  C   UNL     1       2.268  28.514  48.875  1.00  0.00     0.121 C 
HETATM   27  C   UNL     1       1.153  28.346  47.819  1.00  0.00     0.046 C 
HETATM   28  C   UNL     1       1.585  28.698  50.233  1.00  0.00     0.046 C 
HETATM   29  C   UNL     1       3.221  27.319  48.783  1.00  0.00     0.063 C 
ENDBRANCH   2  18
TORSDOF 4
ENDMDL
MODEL 10
REMARK VINA RESULT:      -7.4      6.435      8.867
REMARK  4 active torsions:
REMARK  status: ('A' for Active; 'I' for Inactive)
REMARK    1  A    between atoms: C_2  and  O_3 
REMARK    2  A    between atoms: O_3  and  C_4 
REMARK    3  A    between atoms: C_9  and  C_10 
REMARK       I    between atoms: C_10  and  N_11 
REMARK    4  A    between atoms: N_11  and  C_12 
ROOT
HETATM    1  C   UNL     1       5.035  26.813  50.233  1.00  0.00     0.276 C 
HETATM    2  N   UNL     1       5.228  28.188  50.192  1.00  0.00    -0.350 N 
HETATM    3  O   UNL     1       4.475  26.204  49.328  1.00  0.00    -0.265 OA
HETATM    4  H   UNL     1       5.842  28.484  50.952  1.00  0.00     0.163 HD
ENDROOT
BRANCH   1   5
HETATM    5  C   UNL     1       5.542  26.185  51.436  1.00  0.00     0.150 A 
HETATM    6  O   UNL     1       6.536  25.249  51.309  1.00  0.00    -0.304 OA
HETATM    7  C   UNL     1       6.782  24.750  52.548  1.00  0.00     0.087 A 
HETATM    8  C   UNL     1       5.975  25.373  53.490  1.00  0.00     0.009 A 
HETATM    9  C   UNL     1       7.701  23.749  52.845  1.00  0.00     0.041 A 
HETATM   10  C   UNL     1       6.084  24.971  54.839  1.00  0.00     0.051 A 
HETATM   11  C   UNL     1       5.183  26.321  52.770  1.00  0.00    -0.009 A 
HETATM   12  C   UNL     1       6.986  23.953  55.176  1.00  0.00     0.069 A 
HETATM   13  C   UNL     1       7.782  23.361  54.187  1.00  0.00     0.039 A 
HETATM   14  C   UNL     1       4.159  27.242  53.328  1.00  0.00     0.052 C 
BRANCH  12  15
HETATM   15  O   UNL     1       7.182  23.447  56.433  1.00  0.00    -0.351 OA
BRANCH  15  16
HETATM   16  C   UNL     1       8.525  23.387  56.912  1.00  0.00     0.171 C 
HETATM   17  C   UNL     1       8.908  24.766  57.418  1.00  0.00     0.034 C 
ENDBRANCH  15  16
ENDBRANCH  12  15
ENDBRANCH   1   5
BRANCH   2  18
HETATM   18  C   UNL     1       5.293  28.977  48.969  1.00  0.00     0.089 C 
HETATM   19  C   UNL     1       5.554  30.457  49.286  1.00  0.00     0.063 C 
HETATM   20  C   UNL     1       4.321  31.253  49.751  1.00  0.00     0.121 C 
HETATM   21  C   UNL     1       3.924  30.983  51.206  1.00  0.00     0.046 C 
HETATM   22  C   UNL     1       4.621  32.763  49.626  1.00  0.00     0.046 C 
HETATM   23  N   UNL     1       3.149  30.988  48.830  1.00  0.00    -0.059 N 
HETATM   24  H   UNL     1       3.298  31.545  47.977  1.00  0.00     0.279 HD
HETATM   25  H   UNL     1       2.298  31.393  49.249  1.00  0.00     0.279 HD
HETATM   26  C   UNL     1       2.834  29.573  48.382  1.00  0.00     0.121 C 
HETATM   27  C   UNL     1       1.927  29.715  47.140  1.00  0.00     0.046 C 
HETATM   28  C   UNL     1       2.023  28.849  49.459  1.00  0.00     0.046 C 
HETATM   29  C   UNL     1       4.134  28.877  47.968  1.00  0.00     0.063 C 
ENDBRANCH   2  18
TORSDOF 4
ENDMDL
