MODEL 1
REMARK VINA RESULT:      -8.8      0.000      0.000
REMARK  3 active torsions:
REMARK  status: ('A' for Active; 'I' for Inactive)
REMARK    1  A    between atoms: C_9  and  C_10 
REMARK       I    between atoms: C_10  and  N_11 
REMARK    2  A    between atoms: N_11  and  C_12 
REMARK    3  A    between atoms: C_12  and  C_13 
ROOT
HETATM    1  C   UNL     1       6.460  25.555  55.091  1.00  0.00     0.258 C 
HETATM    2  N   UNL     1       7.336  26.610  55.184  1.00  0.00    -0.342 N 
HETATM    3  O   UNL     1       5.341  25.559  55.590  1.00  0.00    -0.267 OA
HETATM    4  H   UNL     1       8.169  26.535  54.600  1.00  0.00     0.164 HD
ENDROOT
BRANCH   1   5
HETATM    5  C   UNL     1       6.960  24.409  54.348  1.00  0.00     0.105 A 
HETATM    6  C   UNL     1       7.464  23.225  54.856  1.00  0.00     0.169 A 
HETATM    7  N   UNL     1       7.632  22.792  56.147  1.00  0.00    -0.233 NA
HETATM    8  N   UNL     1       7.846  22.452  53.754  1.00  0.00    -0.219 N 
HETATM    9  C   UNL     1       8.184  21.622  56.298  1.00  0.00     0.035 A 
HETATM   10  C   UNL     1       8.413  21.107  57.697  1.00  0.00     0.070 C 
HETATM   11  C   UNL     1       8.625  20.729  55.180  1.00  0.00     0.053 A 
HETATM   12  C   UNL     1       8.431  21.189  53.932  1.00  0.00     0.036 A 
HETATM   13  C   UNL     1       8.820  20.414  52.711  1.00  0.00     0.070 C 
HETATM   14  N   UNL     1       7.583  23.085  52.586  1.00  0.00    -0.170 NA
HETATM   15  C   UNL     1       7.063  24.265  52.940  1.00  0.00     0.071 A 
HETATM   16  C   UNL     1       6.664  25.240  51.893  1.00  0.00     0.073 C 
ENDBRANCH   1   5
BRANCH   2  17
HETATM   17  C   UNL     1       6.996  27.946  55.694  1.00  0.00     0.079 C 
HETATM   18  C   UNL     1       6.144  28.681  54.640  1.00  0.00     0.046 C 
HETATM   19  C   UNL     1       6.213  27.906  57.023  1.00  0.00     0.046 C 
BRANCH  17  20
HETATM   20  C   UNL     1       8.306  28.699  55.921  1.00  0.00     0.128 A 
HETATM   21  S   UNL     1       8.914  29.006  57.510  1.00  0.00    -0.031 SA
HETATM   22  C   UNL     1      10.207  29.865  56.781  1.00  0.00     0.187 A 
HETATM   23  N   UNL     1      11.148  30.484  57.519  1.00  0.00    -0.377 N 
HETATM   24  N   UNL     1      10.166  29.872  55.470  1.00  0.00    -0.124 NA
HETATM   25  H   UNL     1      10.909  30.736  58.471  1.00  0.00     0.158 HD
HETATM   26  H   UNL     1      11.691  31.188  57.032  1.00  0.00     0.158 HD
HETATM   27  N   UNL     1       9.071  29.199  54.969  1.00  0.00    -0.142 NA
ENDBRANCH  17  20
ENDBRANCH   2  17
TORSDOF 3
ENDMDL
MODEL 2
REMARK VINA RESULT:      -8.5      2.290      7.159
REMARK  3 active torsions:
REMARK  status: ('A' for Active; 'I' for Inactive)
REMARK    1  A    between atoms: C_9  and  C_10 
REMARK       I    between atoms: C_10  and  N_11 
REMARK    2  A    between atoms: N_11  and  C_12 
REMARK    3  A    between atoms: C_12  and  C_13 
ROOT
HETATM    1  C   UNL     1       6.840  27.646  54.441  1.00  0.00     0.258 C 
HETATM    2  N   UNL     1       6.939  26.307  54.737  1.00  0.00    -0.342 N 
HETATM    3  O   UNL     1       6.863  28.089  53.299  1.00  0.00    -0.267 OA
HETATM    4  H   UNL     1       6.757  26.063  55.711  1.00  0.00     0.164 HD
ENDROOT
BRANCH   1   5
HETATM    5  C   UNL     1       6.707  28.518  55.597  1.00  0.00     0.105 A 
HETATM    6  C   UNL     1       7.719  29.108  56.333  1.00  0.00     0.169 A 
HETATM    7  N   UNL     1       9.084  29.055  56.202  1.00  0.00    -0.233 NA
HETATM    8  N   UNL     1       7.096  29.825  57.361  1.00  0.00    -0.219 N 
HETATM    9  C   UNL     1       9.777  29.697  57.098  1.00  0.00     0.035 A 
HETATM   10  C   UNL     1      11.282  29.654  57.015  1.00  0.00     0.070 C 
HETATM   11  C   UNL     1       9.197  30.486  58.230  1.00  0.00     0.053 A 
HETATM   12  C   UNL     1       7.856  30.520  58.313  1.00  0.00     0.036 A 
HETATM   13  C   UNL     1       7.126  31.264  59.389  1.00  0.00     0.070 C 
HETATM   14  N   UNL     1       5.747  29.731  57.286  1.00  0.00    -0.170 NA
HETATM   15  C   UNL     1       5.511  28.937  56.236  1.00  0.00     0.071 A 
HETATM   16  C   UNL     1       4.113  28.601  55.863  1.00  0.00     0.073 C 
ENDBRANCH   1   5
BRANCH   2  17
HETATM   17  C   UNL     1       6.870  25.218  53.752  1.00  0.00     0.079 C 
HETATM   18  C   UNL     1       5.425  25.110  53.227  1.00  0.00     0.046 C 
HETATM   19  C   UNL     1       7.818  25.426  52.552  1.00  0.00     0.046 C 
BRANCH  17  20
HETATM   20  C   UNL     1       7.261  23.926  54.466  1.00  0.00     0.128 A 
HETATM   21  S   UNL     1       7.588  23.888  56.164  1.00  0.00    -0.031 SA
HETATM   22  C   UNL     1       7.965  22.224  55.990  1.00  0.00     0.187 A 
HETATM   23  N   UNL     1       8.393  21.486  57.032  1.00  0.00    -0.377 N 
HETATM   24  N   UNL     1       7.819  21.772  54.768  1.00  0.00    -0.124 NA
HETATM   25  H   UNL     1       8.817  21.974  57.813  1.00  0.00     0.158 HD
HETATM   26  H   UNL     1       8.856  20.617  56.790  1.00  0.00     0.158 HD
HETATM   27  N   UNL     1       7.411  22.751  53.885  1.00  0.00    -0.142 NA
ENDBRANCH  17  20
ENDBRANCH   2  17
TORSDOF 3
ENDMDL
MODEL 3
REMARK VINA RESULT:      -8.4      5.261      7.670
REMARK  3 active torsions:
REMARK  status: ('A' for Active; 'I' for Inactive)
REMARK    1  A    between atoms: C_9  and  C_10 
REMARK       I    between atoms: C_10  and  N_11 
REMARK    2  A    between atoms: N_11  and  C_12 
REMARK    3  A    between atoms: C_12  and  C_13 
ROOT
HETATM    1  C   UNL     1       8.236  30.548  59.367  1.00  0.00     0.258 C 
HETATM    2  N   UNL     1       7.718  30.919  60.586  1.00  0.00    -0.342 N 
HETATM    3  O   UNL     1       9.428  30.615  59.090  1.00  0.00    -0.267 OA
HETATM    4  H   UNL     1       6.739  30.673  60.734  1.00  0.00     0.164 HD
ENDROOT
BRANCH   1   5
HETATM    5  C   UNL     1       7.255  30.066  58.407  1.00  0.00     0.105 A 
HETATM    6  C   UNL     1       7.167  28.803  57.848  1.00  0.00     0.169 A 
HETATM    7  N   UNL     1       7.935  27.680  58.023  1.00  0.00    -0.233 NA
HETATM    8  N   UNL     1       6.084  28.837  56.962  1.00  0.00    -0.219 N 
HETATM    9  C   UNL     1       7.614  26.642  57.306  1.00  0.00     0.035 A 
HETATM   10  C   UNL     1       8.439  25.387  57.441  1.00  0.00     0.070 C 
HETATM   11  C   UNL     1       6.477  26.588  56.334  1.00  0.00     0.053 A 
HETATM   12  C   UNL     1       5.745  27.708  56.203  1.00  0.00     0.036 A 
HETATM   13  C   UNL     1       4.577  27.811  55.271  1.00  0.00     0.070 C 
HETATM   14  N   UNL     1       5.480  30.048  56.961  1.00  0.00    -0.170 NA
HETATM   15  C   UNL     1       6.188  30.792  57.817  1.00  0.00     0.071 A 
HETATM   16  C   UNL     1       5.808  32.208  58.056  1.00  0.00     0.073 C 
ENDBRANCH   1   5
BRANCH   2  17
HETATM   17  C   UNL     1       8.516  31.234  61.779  1.00  0.00     0.079 C 
HETATM   18  C   UNL     1       9.054  29.922  62.383  1.00  0.00     0.046 C 
HETATM   19  C   UNL     1       9.708  32.168  61.482  1.00  0.00     0.046 C 
BRANCH  17  20
HETATM   20  C   UNL     1       7.591  31.925  62.780  1.00  0.00     0.128 A 
HETATM   21  S   UNL     1       5.870  31.838  62.638  1.00  0.00    -0.031 SA
HETATM   22  C   UNL     1       5.768  32.868  64.006  1.00  0.00     0.187 A 
HETATM   23  N   UNL     1       4.583  33.298  64.479  1.00  0.00    -0.377 N 
HETATM   24  N   UNL     1       6.934  33.198  64.509  1.00  0.00    -0.124 NA
HETATM   25  H   UNL     1       3.795  33.304  63.840  1.00  0.00     0.158 HD
HETATM   26  H   UNL     1       4.624  34.108  65.088  1.00  0.00     0.158 HD
HETATM   27  N   UNL     1       7.989  32.655  63.805  1.00  0.00    -0.142 NA
ENDBRANCH  17  20
ENDBRANCH   2  17
TORSDOF 3
ENDMDL
MODEL 4
REMARK VINA RESULT:      -8.2      1.935      3.012
REMARK  3 active torsions:
REMARK  status: ('A' for Active; 'I' for Inactive)
REMARK    1  A    between atoms: C_9  and  C_10 
REMARK       I    between atoms: C_10  and  N_11 
REMARK    2  A    between atoms: N_11  and  C_12 
REMARK    3  A    between atoms: C_12  and  C_13 
ROOT
HETATM    1  C   UNL     1       6.531  25.646  55.081  1.00  0.00     0.258 C 
HETATM    2  N   UNL     1       7.449  26.670  55.102  1.00  0.00    -0.342 N 
HETATM    3  O   UNL     1       5.441  25.703  55.636  1.00  0.00    -0.267 OA
HETATM    4  H   UNL     1       8.247  26.550  54.478  1.00  0.00     0.164 HD
ENDROOT
BRANCH   1   5
HETATM    5  C   UNL     1       6.951  24.466  54.341  1.00  0.00     0.105 A 
HETATM    6  C   UNL     1       7.421  23.269  54.853  1.00  0.00     0.169 A 
HETATM    7  N   UNL     1       7.619  22.852  56.145  1.00  0.00    -0.233 NA
HETATM    8  N   UNL     1       7.725  22.459  53.753  1.00  0.00    -0.219 N 
HETATM    9  C   UNL     1       8.123  21.661  56.298  1.00  0.00     0.035 A 
HETATM   10  C   UNL     1       8.384  21.161  57.697  1.00  0.00     0.070 C 
HETATM   11  C   UNL     1       8.480  20.729  55.182  1.00  0.00     0.053 A 
HETATM   12  C   UNL     1       8.259  21.175  53.934  1.00  0.00     0.036 A 
HETATM   13  C   UNL     1       8.565  20.362  52.714  1.00  0.00     0.070 C 
HETATM   14  N   UNL     1       7.444  23.083  52.584  1.00  0.00    -0.170 NA
HETATM   15  C   UNL     1       6.992  24.291  52.934  1.00  0.00     0.071 A 
HETATM   16  C   UNL     1       6.597  25.265  51.884  1.00  0.00     0.073 C 
ENDBRANCH   1   5
BRANCH   2  17
HETATM   17  C   UNL     1       7.184  28.029  55.594  1.00  0.00     0.079 C 
HETATM   18  C   UNL     1       6.668  27.944  57.044  1.00  0.00     0.046 C 
HETATM   19  C   UNL     1       8.430  28.938  55.565  1.00  0.00     0.046 C 
BRANCH  17  20
HETATM   20  C   UNL     1       6.110  28.642  54.696  1.00  0.00     0.128 A 
HETATM   21  S   UNL     1       4.782  29.537  55.348  1.00  0.00    -0.031 SA
HETATM   22  C   UNL     1       4.189  29.700  53.748  1.00  0.00     0.187 A 
HETATM   23  N   UNL     1       3.023  30.324  53.487  1.00  0.00    -0.377 N 
HETATM   24  N   UNL     1       4.957  29.149  52.838  1.00  0.00    -0.124 NA
HETATM   25  H   UNL     1       2.344  30.385  54.237  1.00  0.00     0.158 HD
HETATM   26  H   UNL     1       2.617  30.128  52.579  1.00  0.00     0.158 HD
HETATM   27  N   UNL     1       6.068  28.538  53.381  1.00  0.00    -0.142 NA
ENDBRANCH  17  20
ENDBRANCH   2  17
TORSDOF 3
ENDMDL
MODEL 5
REMARK VINA RESULT:      -7.8      7.218     10.008
REMARK  3 active torsions:
REMARK  status: ('A' for Active; 'I' for Inactive)
REMARK    1  A    between atoms: C_9  and  C_10 
REMARK       I    between atoms: C_10  and  N_11 
REMARK    2  A    between atoms: N_11  and  C_12 
REMARK    3  A    between atoms: C_12  and  C_13 
ROOT
HETATM    1  C   UNL     1       4.552  33.378  59.725  1.00  0.00     0.258 C 
HETATM    2  N   UNL     1       4.555  33.363  61.100  1.00  0.00    -0.342 N 
HETATM    3  O   UNL     1       3.978  34.231  59.060  1.00  0.00    -0.267 OA
HETATM    4  H   UNL     1       5.192  32.689  61.525  1.00  0.00     0.164 HD
ENDROOT
BRANCH   1   5
HETATM    5  C   UNL     1       5.290  32.291  59.101  1.00  0.00     0.105 A 
HETATM    6  C   UNL     1       6.534  31.799  59.454  1.00  0.00     0.169 A 
HETATM    7  N   UNL     1       7.403  32.165  60.451  1.00  0.00    -0.233 NA
HETATM    8  N   UNL     1       6.832  30.782  58.540  1.00  0.00    -0.219 N 
HETATM    9  C   UNL     1       8.535  31.524  60.496  1.00  0.00     0.035 A 
HETATM   10  C   UNL     1       9.537  31.901  61.558  1.00  0.00     0.070 C 
HETATM   11  C   UNL     1       8.939  30.427  59.561  1.00  0.00     0.053 A 
HETATM   12  C   UNL     1       8.053  30.094  58.607  1.00  0.00     0.036 A 
HETATM   13  C   UNL     1       8.311  29.019  57.597  1.00  0.00     0.070 C 
HETATM   14  N   UNL     1       5.826  30.600  57.652  1.00  0.00    -0.170 NA
HETATM   15  C   UNL     1       4.905  31.513  57.978  1.00  0.00     0.071 A 
HETATM   16  C   UNL     1       3.650  31.610  57.190  1.00  0.00     0.073 C 
ENDBRANCH   1   5
BRANCH   2  17
HETATM   17  C   UNL     1       4.068  34.454  61.956  1.00  0.00     0.079 C 
HETATM   18  C   UNL     1       4.657  35.786  61.452  1.00  0.00     0.046 C 
HETATM   19  C   UNL     1       2.529  34.568  61.975  1.00  0.00     0.046 C 
BRANCH  17  20
HETATM   20  C   UNL     1       4.555  34.175  63.377  1.00  0.00     0.128 A 
HETATM   21  S   UNL     1       6.094  34.732  63.936  1.00  0.00    -0.031 SA
HETATM   22  C   UNL     1       5.770  33.940  65.422  1.00  0.00     0.187 A 
HETATM   23  N   UNL     1       6.670  33.923  66.424  1.00  0.00    -0.377 N 
HETATM   24  N   UNL     1       4.598  33.353  65.466  1.00  0.00    -0.124 NA
HETATM   25  H   UNL     1       7.644  34.068  66.184  1.00  0.00     0.158 HD
HETATM   26  H   UNL     1       6.522  33.212  67.132  1.00  0.00     0.158 HD
HETATM   27  N   UNL     1       3.892  33.487  64.287  1.00  0.00    -0.142 NA
ENDBRANCH  17  20
ENDBRANCH   2  17
TORSDOF 3
ENDMDL
MODEL 6
REMARK VINA RESULT:      -7.8      5.379      7.614
REMARK  3 active torsions:
REMARK  status: ('A' for Active; 'I' for Inactive)
REMARK    1  A    between atoms: C_9  and  C_10 
REMARK       I    between atoms: C_10  and  N_11 
REMARK    2  A    between atoms: N_11  and  C_12 
REMARK    3  A    between atoms: C_12  and  C_13 
ROOT
HETATM    1  C   UNL     1       4.918  27.305  50.621  1.00  0.00     0.258 C 
HETATM    2  N   UNL     1       4.176  26.379  49.927  1.00  0.00    -0.342 N 
HETATM    3  O   UNL     1       5.506  28.238  50.087  1.00  0.00    -0.267 OA
HETATM    4  H   UNL     1       3.621  25.747  50.504  1.00  0.00     0.164 HD
ENDROOT
BRANCH   1   5
HETATM    5  C   UNL     1       4.962  27.098  52.060  1.00  0.00     0.105 A 
HETATM    6  C   UNL     1       5.625  26.099  52.752  1.00  0.00     0.169 A 
HETATM    7  N   UNL     1       6.403  25.058  52.314  1.00  0.00    -0.233 NA
HETATM    8  N   UNL     1       5.340  26.301  54.107  1.00  0.00    -0.219 N 
HETATM    9  C   UNL     1       6.856  24.250  53.229  1.00  0.00     0.035 A 
HETATM   10  C   UNL     1       7.699  23.074  52.802  1.00  0.00     0.070 C 
HETATM   11  C   UNL     1       6.602  24.386  54.699  1.00  0.00     0.053 A 
HETATM   12  C   UNL     1       5.843  25.427  55.082  1.00  0.00     0.036 A 
HETATM   13  C   UNL     1       5.499  25.697  56.515  1.00  0.00     0.070 C 
HETATM   14  N   UNL     1       4.556  27.388  54.295  1.00  0.00    -0.170 NA
HETATM   15  C   UNL     1       4.317  27.861  53.068  1.00  0.00     0.071 A 
HETATM   16  C   UNL     1       3.462  29.063  52.892  1.00  0.00     0.073 C 
ENDBRANCH   1   5
BRANCH   2  17
HETATM   17  C   UNL     1       3.806  26.487  48.509  1.00  0.00     0.079 C 
HETATM   18  C   UNL     1       5.087  26.655  47.668  1.00  0.00     0.046 C 
HETATM   19  C   UNL     1       3.030  25.258  47.989  1.00  0.00     0.046 C 
BRANCH  17  20
HETATM   20  C   UNL     1       2.920  27.723  48.358  1.00  0.00     0.128 A 
HETATM   21  S   UNL     1       3.366  29.040  47.330  1.00  0.00    -0.031 SA
HETATM   22  C   UNL     1       1.947  29.848  47.855  1.00  0.00     0.187 A 
HETATM   23  N   UNL     1       1.649  31.093  47.439  1.00  0.00    -0.377 N 
HETATM   24  N   UNL     1       1.221  29.151  48.697  1.00  0.00    -0.124 NA
HETATM   25  H   UNL     1       2.410  31.673  47.106  1.00  0.00     0.158 HD
HETATM   26  H   UNL     1       0.969  31.591  48.004  1.00  0.00     0.158 HD
HETATM   27  N   UNL     1       1.779  27.923  48.989  1.00  0.00    -0.142 NA
ENDBRANCH  17  20
ENDBRANCH   2  17
TORSDOF 3
ENDMDL
MODEL 7
REMARK VINA RESULT:      -7.8      5.512      9.756
REMARK  3 active torsions:
REMARK  status: ('A' for Active; 'I' for Inactive)
REMARK    1  A    between atoms: C_9  and  C_10 
REMARK       I    between atoms: C_10  and  N_11 
REMARK    2  A    between atoms: N_11  and  C_12 
REMARK    3  A    between atoms: C_12  and  C_13 
ROOT
HETATM    1  C   UNL     1       5.655  32.191  58.546  1.00  0.00     0.258 C 
HETATM    2  N   UNL     1       5.810  30.828  58.456  1.00  0.00    -0.342 N 
HETATM    3  O   UNL     1       5.409  32.909  57.585  1.00  0.00    -0.267 OA
HETATM    4  H   UNL     1       5.862  30.337  59.349  1.00  0.00     0.164 HD
ENDROOT
BRANCH   1   5
HETATM    5  C   UNL     1       5.809  32.736  59.886  1.00  0.00     0.105 A 
HETATM    6  C   UNL     1       6.734  32.369  60.848  1.00  0.00     0.169 A 
HETATM    7  N   UNL     1       7.736  31.432  60.830  1.00  0.00    -0.233 NA
HETATM    8  N   UNL     1       6.463  33.150  61.977  1.00  0.00    -0.219 N 
HETATM    9  C   UNL     1       8.419  31.293  61.930  1.00  0.00     0.035 A 
HETATM   10  C   UNL     1       9.517  30.261  61.973  1.00  0.00     0.070 C 
HETATM   11  C   UNL     1       8.198  32.082  63.184  1.00  0.00     0.053 A 
HETATM   12  C   UNL     1       7.213  32.996  63.152  1.00  0.00     0.036 A 
HETATM   13  C   UNL     1       6.870  33.861  64.325  1.00  0.00     0.070 C 
HETATM   14  N   UNL     1       5.433  34.002  61.757  1.00  0.00    -0.170 NA
HETATM   15  C   UNL     1       5.031  33.746  60.508  1.00  0.00     0.071 A 
HETATM   16  C   UNL     1       3.889  34.501  59.931  1.00  0.00     0.073 C 
ENDBRANCH   1   5
BRANCH   2  17
HETATM   17  C   UNL     1       5.497  30.022  57.268  1.00  0.00     0.079 C 
HETATM   18  C   UNL     1       3.977  29.775  57.215  1.00  0.00     0.046 C 
HETATM   19  C   UNL     1       5.936  30.692  55.948  1.00  0.00     0.046 C 
BRANCH  17  20
HETATM   20  C   UNL     1       6.234  28.690  57.409  1.00  0.00     0.128 A 
HETATM   21  S   UNL     1       5.525  27.200  56.893  1.00  0.00    -0.031 SA
HETATM   22  C   UNL     1       6.925  26.403  57.481  1.00  0.00     0.187 A 
HETATM   23  N   UNL     1       7.044  25.062  57.439  1.00  0.00    -0.377 N 
HETATM   24  N   UNL     1       7.826  27.215  57.981  1.00  0.00    -0.124 NA
HETATM   25  H   UNL     1       6.193  24.516  57.388  1.00  0.00     0.158 HD
HETATM   26  H   UNL     1       7.750  24.668  58.051  1.00  0.00     0.158 HD
HETATM   27  N   UNL     1       7.432  28.537  57.940  1.00  0.00    -0.142 NA
ENDBRANCH  17  20
ENDBRANCH   2  17
TORSDOF 3
ENDMDL
MODEL 8
REMARK VINA RESULT:      -7.7      5.465      8.173
REMARK  3 active torsions:
REMARK  status: ('A' for Active; 'I' for Inactive)
REMARK    1  A    between atoms: C_9  and  C_10 
REMARK       I    between atoms: C_10  and  N_11 
REMARK    2  A    between atoms: N_11  and  C_12 
REMARK    3  A    between atoms: C_12  and  C_13 
ROOT
HETATM    1  C   UNL     1       6.733  31.606  59.444  1.00  0.00     0.258 C 
HETATM    2  N   UNL     1       7.329  30.933  60.484  1.00  0.00    -0.342 N 
HETATM    3  O   UNL     1       6.430  32.792  59.492  1.00  0.00    -0.267 OA
HETATM    4  H   UNL     1       7.662  29.995  60.259  1.00  0.00     0.164 HD
ENDROOT
BRANCH   1   5
HETATM    5  C   UNL     1       6.478  30.800  58.261  1.00  0.00     0.105 A 
HETATM    6  C   UNL     1       7.404  30.163  57.454  1.00  0.00     0.169 A 
HETATM    7  N   UNL     1       8.773  30.098  57.524  1.00  0.00    -0.233 NA
HETATM    8  N   UNL     1       6.679  29.547  56.428  1.00  0.00    -0.219 N 
HETATM    9  C   UNL     1       9.370  29.442  56.571  1.00  0.00     0.035 A 
HETATM   10  C   UNL     1      10.876  29.358  56.586  1.00  0.00     0.070 C 
HETATM   11  C   UNL     1       8.678  28.755  55.435  1.00  0.00     0.053 A 
HETATM   12  C   UNL     1       7.336  28.836  55.414  1.00  0.00     0.036 A 
HETATM   13  C   UNL     1       6.501  28.203  54.343  1.00  0.00     0.070 C 
HETATM   14  N   UNL     1       5.347  29.748  56.570  1.00  0.00    -0.170 NA
HETATM   15  C   UNL     1       5.224  30.510  57.661  1.00  0.00     0.071 A 
HETATM   16  C   UNL     1       3.877  30.943  58.113  1.00  0.00     0.073 C 
ENDBRANCH   1   5
BRANCH   2  17
HETATM   17  C   UNL     1       7.876  31.564  61.693  1.00  0.00     0.079 C 
HETATM   18  C   UNL     1       8.670  30.511  62.492  1.00  0.00     0.046 C 
HETATM   19  C   UNL     1       8.806  32.757  61.386  1.00  0.00     0.046 C 
BRANCH  17  20
HETATM   20  C   UNL     1       6.696  32.065  62.524  1.00  0.00     0.128 A 
HETATM   21  S   UNL     1       6.626  33.689  63.116  1.00  0.00    -0.031 SA
HETATM   22  C   UNL     1       5.153  33.276  63.890  1.00  0.00     0.187 A 
HETATM   23  N   UNL     1       4.488  34.159  64.660  1.00  0.00    -0.377 N 
HETATM   24  N   UNL     1       4.770  32.039  63.677  1.00  0.00    -0.124 NA
HETATM   25  H   UNL     1       5.016  34.927  65.058  1.00  0.00     0.158 HD
HETATM   26  H   UNL     1       3.805  33.758  65.293  1.00  0.00     0.158 HD
HETATM   27  N   UNL     1       5.657  31.337  62.887  1.00  0.00    -0.142 NA
ENDBRANCH  17  20
ENDBRANCH   2  17
TORSDOF 3
ENDMDL
MODEL 9
REMARK VINA RESULT:      -7.7      1.803      3.317
REMARK  3 active torsions:
REMARK  status: ('A' for Active; 'I' for Inactive)
REMARK    1  A    between atoms: C_9  and  C_10 
REMARK       I    between atoms: C_10  and  N_11 
REMARK    2  A    between atoms: N_11  and  C_12 
REMARK    3  A    between atoms: C_12  and  C_13 
ROOT
HETATM    1  C   UNL     1       7.636  26.520  56.915  1.00  0.00     0.258 C 
HETATM    2  N   UNL     1       7.298  27.546  56.065  1.00  0.00    -0.342 N 
HETATM    3  O   UNL     1       7.680  26.638  58.133  1.00  0.00    -0.267 OA
HETATM    4  H   UNL     1       7.155  27.274  55.092  1.00  0.00     0.164 HD
ENDROOT
BRANCH   1   5
HETATM    5  C   UNL     1       7.947  25.260  56.258  1.00  0.00     0.105 A 
HETATM    6  C   UNL     1       7.707  24.910  54.941  1.00  0.00     0.169 A 
HETATM    7  N   UNL     1       7.138  25.609  53.907  1.00  0.00    -0.233 NA
HETATM    8  N   UNL     1       8.149  23.590  54.795  1.00  0.00    -0.219 N 
HETATM    9  C   UNL     1       7.013  24.974  52.777  1.00  0.00     0.035 A 
HETATM   10  C   UNL     1       6.373  25.688  51.613  1.00  0.00     0.070 C 
HETATM   11  C   UNL     1       7.455  23.565  52.531  1.00  0.00     0.053 A 
HETATM   12  C   UNL     1       8.017  22.922  53.569  1.00  0.00     0.036 A 
HETATM   13  C   UNL     1       8.508  21.509  53.480  1.00  0.00     0.070 C 
HETATM   14  N   UNL     1       8.674  23.110  55.947  1.00  0.00    -0.170 NA
HETATM   15  C   UNL     1       8.542  24.106  56.830  1.00  0.00     0.071 A 
HETATM   16  C   UNL     1       9.008  23.919  58.228  1.00  0.00     0.073 C 
ENDBRANCH   1   5
BRANCH   2  17
HETATM   17  C   UNL     1       6.744  28.840  56.485  1.00  0.00     0.079 C 
HETATM   18  C   UNL     1       6.274  29.613  55.237  1.00  0.00     0.046 C 
HETATM   19  C   UNL     1       5.554  28.703  57.459  1.00  0.00     0.046 C 
BRANCH  17  20
HETATM   20  C   UNL     1       7.861  29.614  57.184  1.00  0.00     0.128 A 
HETATM   21  S   UNL     1       7.564  30.551  58.607  1.00  0.00    -0.031 SA
HETATM   22  C   UNL     1       9.212  31.023  58.563  1.00  0.00     0.187 A 
HETATM   23  N   UNL     1       9.723  31.888  59.460  1.00  0.00    -0.377 N 
HETATM   24  N   UNL     1       9.892  30.484  57.579  1.00  0.00    -0.124 NA
HETATM   25  H   UNL     1       9.079  32.514  59.929  1.00  0.00     0.158 HD
HETATM   26  H   UNL     1      10.600  32.323  59.196  1.00  0.00     0.158 HD
HETATM   27  N   UNL     1       9.116  29.669  56.782  1.00  0.00    -0.142 NA
ENDBRANCH  17  20
ENDBRANCH   2  17
TORSDOF 3
ENDMDL
MODEL 10
REMARK VINA RESULT:      -7.7      5.290      8.231
REMARK  3 active torsions:
REMARK  status: ('A' for Active; 'I' for Inactive)
REMARK    1  A    between atoms: C_9  and  C_10 
REMARK       I    between atoms: C_10  and  N_11 
REMARK    2  A    between atoms: N_11  and  C_12 
REMARK    3  A    between atoms: C_12  and  C_13 
ROOT
HETATM    1  C   UNL     1       7.722  31.355  59.333  1.00  0.00     0.258 C 
HETATM    2  N   UNL     1       7.924  30.625  60.480  1.00  0.00    -0.342 N 
HETATM    3  O   UNL     1       7.594  32.573  59.320  1.00  0.00    -0.267 OA
HETATM    4  H   UNL     1       8.163  29.644  60.334  1.00  0.00     0.164 HD
ENDROOT
BRANCH   1   5
HETATM    5  C   UNL     1       7.664  30.569  58.111  1.00  0.00     0.105 A 
HETATM    6  C   UNL     1       6.547  30.257  57.355  1.00  0.00     0.169 A 
HETATM    7  N   UNL     1       5.225  30.582  57.519  1.00  0.00    -0.233 NA
HETATM    8  N   UNL     1       6.994  29.455  56.299  1.00  0.00    -0.219 N 
HETATM    9  C   UNL     1       4.395  30.090  56.644  1.00  0.00     0.035 A 
HETATM   10  C   UNL     1       2.926  30.397  56.789  1.00  0.00     0.070 C 
HETATM   11  C   UNL     1       4.782  29.224  55.486  1.00  0.00     0.053 A 
HETATM   12  C   UNL     1       6.090  28.940  55.359  1.00  0.00     0.036 A 
HETATM   13  C   UNL     1       6.633  28.086  54.254  1.00  0.00     0.070 C 
HETATM   14  N   UNL     1       8.335  29.273  56.345  1.00  0.00    -0.170 NA
HETATM   15  C   UNL     1       8.738  29.929  57.438  1.00  0.00     0.071 A 
HETATM   16  C   UNL     1      10.176  29.930  57.811  1.00  0.00     0.073 C 
ENDBRANCH   1   5
BRANCH   2  17
HETATM   17  C   UNL     1       8.228  31.196  61.800  1.00  0.00     0.079 C 
HETATM   18  C   UNL     1       8.866  30.106  62.683  1.00  0.00     0.046 C 
HETATM   19  C   UNL     1       9.188  32.403  61.731  1.00  0.00     0.046 C 
BRANCH  17  20
HETATM   20  C   UNL     1       6.908  31.657  62.416  1.00  0.00     0.128 A 
HETATM   21  S   UNL     1       6.562  33.331  62.679  1.00  0.00    -0.031 SA
HETATM   22  C   UNL     1       5.078  32.848  63.389  1.00  0.00     0.187 A 
HETATM   23  N   UNL     1       4.223  33.745  63.917  1.00  0.00    -0.377 N 
HETATM   24  N   UNL     1       4.885  31.550  63.384  1.00  0.00    -0.124 NA
HETATM   25  H   UNL     1       4.600  34.641  64.205  1.00  0.00     0.158 HD
HETATM   26  H   UNL     1       3.532  33.366  64.554  1.00  0.00     0.158 HD
HETATM   27  N   UNL     1       5.938  30.859  62.821  1.00  0.00    -0.142 NA
ENDBRANCH  17  20
ENDBRANCH   2  17
TORSDOF 3
ENDMDL
