MODEL 1
REMARK VINA RESULT:      -9.0      0.000      0.000
REMARK  7 active torsions:
REMARK  status: ('A' for Active; 'I' for Inactive)
REMARK       I    between atoms: C_2  and  N_3 
REMARK    1  A    between atoms: N_3  and  C_4 
REMARK    2  A    between atoms: C_7  and  N_8 
REMARK       I    between atoms: N_8  and  C_9 
REMARK    3  A    between atoms: C_9  and  C_10 
REMARK    4  A    between atoms: C_11  and  C_12 
REMARK    5  A    between atoms: C_13  and  O_14 
REMARK    6  A    between atoms: N_20  and  C_21 
REMARK    7  A    between atoms: C_24  and  O_25 
ROOT
HETATM    1  C   UNL     1       7.530  27.606  56.164  1.00  0.00     0.106 C 
HETATM    2  C   UNL     1       7.136  26.465  55.206  1.00  0.00     0.142 C 
HETATM    3  N   UNL     1       6.519  25.363  55.994  1.00  0.00    -0.308 N 
HETATM    4  C   UNL     1       5.494  25.629  56.906  1.00  0.00     0.225 C 
HETATM    5  O   UNL     1       4.646  24.823  57.291  1.00  0.00    -0.273 OA
HETATM    6  C   UNL     1       5.591  26.964  57.637  1.00  0.00     0.104 C 
HETATM    7  C   UNL     1       6.330  28.102  56.957  1.00  0.00     0.026 C 
ENDROOT
BRANCH   1   8
HETATM    8  C   UNL     1       8.218  28.786  55.504  1.00  0.00     0.228 C 
HETATM    9  N   UNL     1       8.559  29.922  56.174  1.00  0.00    -0.327 N 
HETATM   10  H   UNL     1       9.028  30.542  55.520  1.00  0.00     0.169 HD
HETATM   11  O   UNL     1       8.447  28.802  54.291  1.00  0.00    -0.273 OA
BRANCH   9  12
HETATM   12  C   UNL     1       8.515  30.379  57.501  1.00  0.00     0.034 A 
HETATM   13  C   UNL     1       9.542  30.327  58.437  1.00  0.00     0.032 A 
HETATM   14  C   UNL     1       9.397  30.920  59.703  1.00  0.00     0.032 A 
HETATM   15  C   UNL     1       8.208  31.548  60.070  1.00  0.00     0.034 A 
HETATM   16  C   UNL     1       7.145  31.528  59.168  1.00  0.00     0.032 A 
HETATM   17  C   UNL     1       7.299  30.951  57.902  1.00  0.00     0.032 A 
BRANCH  15  18
HETATM   18  N   UNL     1       8.005  32.216  61.293  1.00  0.00    -0.328 N 
HETATM   19  C   UNL     1       8.133  31.691  62.567  1.00  0.00     0.218 C 
HETATM   20  C   UNL     1       7.917  32.724  63.647  1.00  0.00     0.117 C 
HETATM   21  O   UNL     1       8.429  30.538  62.860  1.00  0.00    -0.274 OA
HETATM   22  H   UNL     1       7.806  33.206  61.228  1.00  0.00     0.169 HD
ENDBRANCH  15  18
ENDBRANCH   9  12
ENDBRANCH   1   8
BRANCH   2  23
HETATM   23  C   UNL     1       6.284  26.808  53.971  1.00  0.00    -0.001 A 
HETATM   24  C   UNL     1       6.730  26.458  52.673  1.00  0.00     0.076 A 
HETATM   25  C   UNL     1       5.982  26.828  51.546  1.00  0.00     0.037 A 
HETATM   26  C   UNL     1       4.781  27.522  51.685  1.00  0.00     0.003 A 
HETATM   27  C   UNL     1       4.311  27.839  52.951  1.00  0.00     0.001 A 
HETATM   28  C   UNL     1       5.050  27.480  54.080  1.00  0.00     0.012 A 
BRANCH  24  29
HETATM   29  O   UNL     1       7.919  25.774  52.596  1.00  0.00    -0.355 OA
HETATM   30  C   UNL     1       7.949  24.603  51.789  1.00  0.00     0.210 C 
ENDBRANCH  24  29
ENDBRANCH   2  23
BRANCH   3  31
HETATM   31  C   UNL     1       7.056  24.037  55.890  1.00  0.00     0.038 A 
HETATM   32  C   UNL     1       7.857  23.486  56.894  1.00  0.00     0.032 A 
HETATM   33  C   UNL     1       8.495  22.253  56.713  1.00  0.00     0.039 A 
HETATM   34  C   UNL     1       8.371  21.559  55.511  1.00  0.00     0.068 A 
HETATM   35  C   UNL     1       7.548  22.075  54.514  1.00  0.00     0.039 A 
HETATM   36  C   UNL     1       6.892  23.300  54.706  1.00  0.00     0.032 A 
BRANCH  34  37
HETATM   37  O   UNL     1       9.085  20.397  55.425  1.00  0.00    -0.356 OA
HETATM   38  C   UNL     1       9.107  19.777  54.143  1.00  0.00     0.210 C 
ENDBRANCH  34  37
ENDBRANCH   3  31
TORSDOF 7
ENDMDL
MODEL 2
REMARK VINA RESULT:      -8.6      8.658     12.518
REMARK  7 active torsions:
REMARK  status: ('A' for Active; 'I' for Inactive)
REMARK       I    between atoms: C_2  and  N_3 
REMARK    1  A    between atoms: N_3  and  C_4 
REMARK    2  A    between atoms: C_7  and  N_8 
REMARK       I    between atoms: N_8  and  C_9 
REMARK    3  A    between atoms: C_9  and  C_10 
REMARK    4  A    between atoms: C_11  and  C_12 
REMARK    5  A    between atoms: C_13  and  O_14 
REMARK    6  A    between atoms: N_20  and  C_21 
REMARK    7  A    between atoms: C_24  and  O_25 
ROOT
HETATM    1  C   UNL     1       3.709  36.267  61.487  1.00  0.00     0.106 C 
HETATM    2  C   UNL     1       4.490  35.248  62.340  1.00  0.00     0.142 C 
HETATM    3  N   UNL     1       3.601  34.740  63.422  1.00  0.00    -0.308 N 
HETATM    4  C   UNL     1       2.319  34.271  63.126  1.00  0.00     0.225 C 
HETATM    5  O   UNL     1       1.670  33.474  63.805  1.00  0.00    -0.273 OA
HETATM    6  C   UNL     1       1.600  34.987  61.988  1.00  0.00     0.104 C 
HETATM    7  C   UNL     1       2.441  35.653  60.915  1.00  0.00     0.026 C 
ENDROOT
BRANCH   1   8
HETATM    8  C   UNL     1       4.507  36.907  60.368  1.00  0.00     0.228 C 
HETATM    9  N   UNL     1       5.428  37.890  60.574  1.00  0.00    -0.327 N 
HETATM   10  H   UNL     1       5.840  38.126  59.676  1.00  0.00     0.169 HD
HETATM   11  O   UNL     1       4.311  36.610  59.185  1.00  0.00    -0.273 OA
BRANCH   9  12
HETATM   12  C   UNL     1       5.991  38.548  61.680  1.00  0.00     0.034 A 
HETATM   13  C   UNL     1       7.023  39.480  61.661  1.00  0.00     0.032 A 
HETATM   14  C   UNL     1       7.419  40.143  62.835  1.00  0.00     0.032 A 
HETATM   15  C   UNL     1       6.814  39.861  64.058  1.00  0.00     0.034 A 
HETATM   16  C   UNL     1       5.838  38.865  64.098  1.00  0.00     0.032 A 
HETATM   17  C   UNL     1       5.434  38.219  62.924  1.00  0.00     0.032 A 
BRANCH  15  18
HETATM   18  N   UNL     1       7.112  40.523  65.266  1.00  0.00    -0.328 N 
HETATM   19  C   UNL     1       6.448  41.605  65.815  1.00  0.00     0.218 C 
HETATM   20  C   UNL     1       6.997  42.001  67.165  1.00  0.00     0.117 C 
HETATM   21  O   UNL     1       5.488  42.198  65.336  1.00  0.00    -0.274 OA
HETATM   22  H   UNL     1       7.856  40.117  65.819  1.00  0.00     0.169 HD
ENDBRANCH  15  18
ENDBRANCH   9  12
ENDBRANCH   1   8
BRANCH   2  23
HETATM   23  C   UNL     1       5.206  34.089  61.623  1.00  0.00    -0.001 A 
HETATM   24  C   UNL     1       6.442  33.598  62.112  1.00  0.00     0.076 A 
HETATM   25  C   UNL     1       7.122  32.586  61.420  1.00  0.00     0.037 A 
HETATM   26  C   UNL     1       6.586  32.032  60.259  1.00  0.00     0.003 A 
HETATM   27  C   UNL     1       5.358  32.476  59.787  1.00  0.00     0.001 A 
HETATM   28  C   UNL     1       4.674  33.487  60.466  1.00  0.00     0.012 A 
BRANCH  24  29
HETATM   29  O   UNL     1       6.922  34.179  63.261  1.00  0.00    -0.355 OA
HETATM   30  C   UNL     1       7.756  33.385  64.095  1.00  0.00     0.210 C 
ENDBRANCH  24  29
ENDBRANCH   2  23
BRANCH   3  31
HETATM   31  C   UNL     1       4.029  34.835  64.788  1.00  0.00     0.038 A 
HETATM   32  C   UNL     1       4.004  36.047  65.484  1.00  0.00     0.032 A 
HETATM   33  C   UNL     1       4.563  36.156  66.763  1.00  0.00     0.039 A 
HETATM   34  C   UNL     1       5.188  35.063  67.360  1.00  0.00     0.068 A 
HETATM   35  C   UNL     1       5.191  33.840  66.696  1.00  0.00     0.039 A 
HETATM   36  C   UNL     1       4.610  33.728  65.424  1.00  0.00     0.032 A 
BRANCH  34  37
HETATM   37  O   UNL     1       5.751  35.302  68.583  1.00  0.00    -0.356 OA
HETATM   38  C   UNL     1       5.846  34.176  69.450  1.00  0.00     0.210 C 
ENDBRANCH  34  37
ENDBRANCH   3  31
TORSDOF 7
ENDMDL
MODEL 3
REMARK VINA RESULT:      -8.6      8.335     13.007
REMARK  7 active torsions:
REMARK  status: ('A' for Active; 'I' for Inactive)
REMARK       I    between atoms: C_2  and  N_3 
REMARK    1  A    between atoms: N_3  and  C_4 
REMARK    2  A    between atoms: C_7  and  N_8 
REMARK       I    between atoms: N_8  and  C_9 
REMARK    3  A    between atoms: C_9  and  C_10 
REMARK    4  A    between atoms: C_11  and  C_12 
REMARK    5  A    between atoms: C_13  and  O_14 
REMARK    6  A    between atoms: N_20  and  C_21 
REMARK    7  A    between atoms: C_24  and  O_25 
ROOT
HETATM    1  C   UNL     1       3.472  34.630  62.884  1.00  0.00     0.106 C 
HETATM    2  C   UNL     1       4.900  35.167  62.662  1.00  0.00     0.142 C 
HETATM    3  N   UNL     1       5.060  36.441  63.416  1.00  0.00    -0.308 N 
HETATM    4  C   UNL     1       4.697  36.520  64.763  1.00  0.00     0.225 C 
HETATM    5  O   UNL     1       5.142  37.326  65.581  1.00  0.00    -0.273 OA
HETATM    6  C   UNL     1       3.493  35.679  65.173  1.00  0.00     0.104 C 
HETATM    7  C   UNL     1       3.179  34.435  64.363  1.00  0.00     0.026 C 
ENDROOT
BRANCH   1   8
HETATM    8  C   UNL     1       3.147  33.353  62.134  1.00  0.00     0.228 C 
HETATM    9  N   UNL     1       2.651  33.336  60.865  1.00  0.00    -0.327 N 
HETATM   10  H   UNL     1       2.546  32.366  60.582  1.00  0.00     0.169 HD
HETATM   11  O   UNL     1       3.253  32.245  62.671  1.00  0.00    -0.273 OA
BRANCH   9  12
HETATM   12  C   UNL     1       2.364  34.283  59.868  1.00  0.00     0.034 A 
HETATM   13  C   UNL     1       1.382  35.267  59.907  1.00  0.00     0.032 A 
HETATM   14  C   UNL     1       1.273  36.220  58.880  1.00  0.00     0.032 A 
HETATM   15  C   UNL     1       2.122  36.186  57.775  1.00  0.00     0.034 A 
HETATM   16  C   UNL     1       3.052  35.150  57.688  1.00  0.00     0.032 A 
HETATM   17  C   UNL     1       3.169  34.212  58.721  1.00  0.00     0.032 A 
BRANCH  15  18
HETATM   18  N   UNL     1       2.116  37.137  56.737  1.00  0.00    -0.328 N 
HETATM   19  C   UNL     1       2.560  38.446  56.795  1.00  0.00     0.218 C 
HETATM   20  C   UNL     1       2.474  39.150  55.462  1.00  0.00     0.117 C 
HETATM   21  O   UNL     1       3.024  39.022  57.773  1.00  0.00    -0.274 OA
HETATM   22  H   UNL     1       1.809  36.801  55.832  1.00  0.00     0.169 HD
ENDBRANCH  15  18
ENDBRANCH   9  12
ENDBRANCH   1   8
BRANCH   2  23
HETATM   23  C   UNL     1       6.086  34.220  62.917  1.00  0.00    -0.001 A 
HETATM   24  C   UNL     1       6.577  33.390  61.878  1.00  0.00     0.076 A 
HETATM   25  C   UNL     1       7.615  32.482  62.132  1.00  0.00     0.037 A 
HETATM   26  C   UNL     1       8.195  32.399  63.396  1.00  0.00     0.003 A 
HETATM   27  C   UNL     1       7.752  33.231  64.414  1.00  0.00     0.001 A 
HETATM   28  C   UNL     1       6.715  34.135  64.175  1.00  0.00     0.012 A 
BRANCH  24  29
HETATM   29  O   UNL     1       5.969  33.516  60.652  1.00  0.00    -0.355 OA
HETATM   30  C   UNL     1       6.126  32.444  59.731  1.00  0.00     0.210 C 
ENDBRANCH  24  29
ENDBRANCH   2  23
BRANCH   3  31
HETATM   31  C   UNL     1       5.491  37.620  62.722  1.00  0.00     0.038 A 
HETATM   32  C   UNL     1       5.122  37.870  61.397  1.00  0.00     0.032 A 
HETATM   33  C   UNL     1       5.670  38.945  60.686  1.00  0.00     0.039 A 
HETATM   34  C   UNL     1       6.622  39.774  61.275  1.00  0.00     0.068 A 
HETATM   35  C   UNL     1       6.974  39.562  62.604  1.00  0.00     0.039 A 
HETATM   36  C   UNL     1       6.407  38.498  63.322  1.00  0.00     0.032 A 
BRANCH  34  37
HETATM   37  O   UNL     1       7.130  40.753  60.468  1.00  0.00    -0.356 OA
HETATM   38  C   UNL     1       6.253  41.238  59.455  1.00  0.00     0.210 C 
ENDBRANCH  34  37
ENDBRANCH   3  31
TORSDOF 7
ENDMDL
MODEL 4
REMARK VINA RESULT:      -8.5      7.529     12.169
REMARK  7 active torsions:
REMARK  status: ('A' for Active; 'I' for Inactive)
REMARK       I    between atoms: C_2  and  N_3 
REMARK    1  A    between atoms: N_3  and  C_4 
REMARK    2  A    between atoms: C_7  and  N_8 
REMARK       I    between atoms: N_8  and  C_9 
REMARK    3  A    between atoms: C_9  and  C_10 
REMARK    4  A    between atoms: C_11  and  C_12 
REMARK    5  A    between atoms: C_13  and  O_14 
REMARK    6  A    between atoms: N_20  and  C_21 
REMARK    7  A    between atoms: C_24  and  O_25 
ROOT
HETATM    1  C   UNL     1       3.558  33.946  61.968  1.00  0.00     0.106 C 
HETATM    2  C   UNL     1       4.935  34.631  61.883  1.00  0.00     0.142 C 
HETATM    3  N   UNL     1       4.842  35.984  62.499  1.00  0.00    -0.308 N 
HETATM    4  C   UNL     1       4.275  36.149  63.765  1.00  0.00     0.225 C 
HETATM    5  O   UNL     1       4.502  37.081  64.538  1.00  0.00    -0.273 OA
HETATM    6  C   UNL     1       3.122  35.210  64.101  1.00  0.00     0.104 C 
HETATM    7  C   UNL     1       3.069  33.863  63.405  1.00  0.00     0.026 C 
ENDROOT
BRANCH   1   8
HETATM    8  C   UNL     1       3.488  32.570  61.333  1.00  0.00     0.228 C 
HETATM    9  N   UNL     1       3.389  32.371  59.989  1.00  0.00    -0.327 N 
HETATM   10  H   UNL     1       3.388  31.370  59.819  1.00  0.00     0.169 HD
HETATM   11  O   UNL     1       3.451  31.544  62.020  1.00  0.00    -0.273 OA
BRANCH   9  12
HETATM   12  C   UNL     1       3.392  33.171  58.834  1.00  0.00     0.034 A 
HETATM   13  C   UNL     1       3.074  34.522  58.752  1.00  0.00     0.032 A 
HETATM   14  C   UNL     1       3.222  35.227  57.545  1.00  0.00     0.032 A 
HETATM   15  C   UNL     1       3.659  34.585  56.387  1.00  0.00     0.034 A 
HETATM   16  C   UNL     1       3.896  33.212  56.443  1.00  0.00     0.032 A 
HETATM   17  C   UNL     1       3.763  32.516  57.650  1.00  0.00     0.032 A 
BRANCH  15  18
HETATM   18  N   UNL     1       3.890  35.232  55.158  1.00  0.00    -0.328 N 
HETATM   19  C   UNL     1       5.034  35.902  54.764  1.00  0.00     0.218 C 
HETATM   20  C   UNL     1       4.955  36.403  53.342  1.00  0.00     0.117 C 
HETATM   21  O   UNL     1       6.052  36.071  55.427  1.00  0.00    -0.274 OA
HETATM   22  H   UNL     1       3.157  35.138  54.465  1.00  0.00     0.169 HD
ENDBRANCH  15  18
ENDBRANCH   9  12
ENDBRANCH   1   8
BRANCH   2  23
HETATM   23  C   UNL     1       6.166  33.868  62.405  1.00  0.00    -0.001 A 
HETATM   24  C   UNL     1       6.922  33.045  61.534  1.00  0.00     0.076 A 
HETATM   25  C   UNL     1       8.004  32.302  62.028  1.00  0.00     0.037 A 
HETATM   26  C   UNL     1       8.366  32.378  63.372  1.00  0.00     0.003 A 
HETATM   27  C   UNL     1       7.658  33.208  64.231  1.00  0.00     0.001 A 
HETATM   28  C   UNL     1       6.576  33.949  63.751  1.00  0.00     0.012 A 
BRANCH  24  29
HETATM   29  O   UNL     1       6.522  33.010  60.220  1.00  0.00    -0.355 OA
HETATM   30  C   UNL     1       6.973  31.919  59.428  1.00  0.00     0.210 C 
ENDBRANCH  24  29
ENDBRANCH   2  23
BRANCH   3  31
HETATM   31  C   UNL     1       5.241  37.132  61.739  1.00  0.00     0.038 A 
HETATM   32  C   UNL     1       4.566  37.516  60.576  1.00  0.00     0.032 A 
HETATM   33  C   UNL     1       5.057  38.547  59.764  1.00  0.00     0.039 A 
HETATM   34  C   UNL     1       6.249  39.194  60.082  1.00  0.00     0.068 A 
HETATM   35  C   UNL     1       6.914  38.850  61.254  1.00  0.00     0.039 A 
HETATM   36  C   UNL     1       6.410  37.832  62.077  1.00  0.00     0.032 A 
BRANCH  34  37
HETATM   37  O   UNL     1       6.660  40.142  59.187  1.00  0.00    -0.356 OA
HETATM   38  C   UNL     1       5.972  40.156  57.939  1.00  0.00     0.210 C 
ENDBRANCH  34  37
ENDBRANCH   3  31
TORSDOF 7
ENDMDL
MODEL 5
REMARK VINA RESULT:      -8.5      6.228     12.049
REMARK  7 active torsions:
REMARK  status: ('A' for Active; 'I' for Inactive)
REMARK       I    between atoms: C_2  and  N_3 
REMARK    1  A    between atoms: N_3  and  C_4 
REMARK    2  A    between atoms: C_7  and  N_8 
REMARK       I    between atoms: N_8  and  C_9 
REMARK    3  A    between atoms: C_9  and  C_10 
REMARK    4  A    between atoms: C_11  and  C_12 
REMARK    5  A    between atoms: C_13  and  O_14 
REMARK    6  A    between atoms: N_20  and  C_21 
REMARK    7  A    between atoms: C_24  and  O_25 
ROOT
HETATM    1  C   UNL     1       5.338  34.036  63.197  1.00  0.00     0.106 C 
HETATM    2  C   UNL     1       5.200  35.410  62.514  1.00  0.00     0.142 C 
HETATM    3  N   UNL     1       3.900  35.463  61.790  1.00  0.00    -0.308 N 
HETATM    4  C   UNL     1       2.714  35.100  62.433  1.00  0.00     0.225 C 
HETATM    5  O   UNL     1       1.583  35.476  62.122  1.00  0.00    -0.273 OA
HETATM    6  C   UNL     1       2.835  33.975  63.455  1.00  0.00     0.104 C 
HETATM    7  C   UNL     1       4.174  33.766  64.138  1.00  0.00     0.026 C 
ENDROOT
BRANCH   1   8
HETATM    8  C   UNL     1       6.643  33.820  63.939  1.00  0.00     0.228 C 
HETATM    9  N   UNL     1       7.672  33.078  63.440  1.00  0.00    -0.327 N 
HETATM   10  H   UNL     1       8.436  33.111  64.110  1.00  0.00     0.169 HD
HETATM   11  O   UNL     1       6.816  34.257  65.081  1.00  0.00    -0.273 OA
BRANCH   9  12
HETATM   12  C   UNL     1       7.959  32.402  62.243  1.00  0.00     0.034 A 
HETATM   13  C   UNL     1       7.520  32.738  60.967  1.00  0.00     0.032 A 
HETATM   14  C   UNL     1       7.972  32.032  59.838  1.00  0.00     0.032 A 
HETATM   15  C   UNL     1       8.845  30.954  59.968  1.00  0.00     0.034 A 
HETATM   16  C   UNL     1       9.220  30.558  61.251  1.00  0.00     0.032 A 
HETATM   17  C   UNL     1       8.782  31.273  62.372  1.00  0.00     0.032 A 
BRANCH  15  18
HETATM   18  N   UNL     1       9.388  30.236  58.885  1.00  0.00    -0.328 N 
HETATM   19  C   UNL     1      10.271  30.702  57.927  1.00  0.00     0.218 C 
HETATM   20  C   UNL     1      10.705  29.626  56.961  1.00  0.00     0.117 C 
HETATM   21  O   UNL     1      10.726  31.838  57.838  1.00  0.00    -0.274 OA
HETATM   22  H   UNL     1       9.153  29.252  58.845  1.00  0.00     0.169 HD
ENDBRANCH  15  18
ENDBRANCH   9  12
ENDBRANCH   1   8
BRANCH   2  23
HETATM   23  C   UNL     1       5.411  36.676  63.365  1.00  0.00    -0.001 A 
HETATM   24  C   UNL     1       6.140  37.775  62.846  1.00  0.00     0.076 A 
HETATM   25  C   UNL     1       6.385  38.899  63.648  1.00  0.00     0.037 A 
HETATM   26  C   UNL     1       5.898  38.965  64.952  1.00  0.00     0.003 A 
HETATM   27  C   UNL     1       5.151  37.912  65.462  1.00  0.00     0.001 A 
HETATM   28  C   UNL     1       4.905  36.785  64.676  1.00  0.00     0.012 A 
BRANCH  24  29
HETATM   29  O   UNL     1       6.594  37.657  61.555  1.00  0.00    -0.355 OA
HETATM   30  C   UNL     1       6.856  38.858  60.842  1.00  0.00     0.210 C 
ENDBRANCH  24  29
ENDBRANCH   2  23
BRANCH   3  31
HETATM   31  C   UNL     1       3.885  35.787  60.393  1.00  0.00     0.038 A 
HETATM   32  C   UNL     1       4.168  34.831  59.413  1.00  0.00     0.032 A 
HETATM   33  C   UNL     1       4.297  35.194  58.066  1.00  0.00     0.039 A 
HETATM   34  C   UNL     1       4.176  36.526  57.676  1.00  0.00     0.068 A 
HETATM   35  C   UNL     1       3.858  37.485  58.633  1.00  0.00     0.039 A 
HETATM   36  C   UNL     1       3.708  37.115  59.978  1.00  0.00     0.032 A 
BRANCH  34  37
HETATM   37  O   UNL     1       4.380  36.771  56.347  1.00  0.00    -0.356 OA
HETATM   38  C   UNL     1       3.362  37.524  55.693  1.00  0.00     0.210 C 
ENDBRANCH  34  37
ENDBRANCH   3  31
TORSDOF 7
ENDMDL
MODEL 6
REMARK VINA RESULT:      -8.4      5.768     12.520
REMARK  7 active torsions:
REMARK  status: ('A' for Active; 'I' for Inactive)
REMARK       I    between atoms: C_2  and  N_3 
REMARK    1  A    between atoms: N_3  and  C_4 
REMARK    2  A    between atoms: C_7  and  N_8 
REMARK       I    between atoms: N_8  and  C_9 
REMARK    3  A    between atoms: C_9  and  C_10 
REMARK    4  A    between atoms: C_11  and  C_12 
REMARK    5  A    between atoms: C_13  and  O_14 
REMARK    6  A    between atoms: N_20  and  C_21 
REMARK    7  A    between atoms: C_24  and  O_25 
ROOT
HETATM    1  C   UNL     1       5.693  33.638  62.522  1.00  0.00     0.106 C 
HETATM    2  C   UNL     1       4.992  34.994  62.729  1.00  0.00     0.142 C 
HETATM    3  N   UNL     1       3.853  35.102  61.776  1.00  0.00    -0.308 N 
HETATM    4  C   UNL     1       2.921  34.066  61.663  1.00  0.00     0.225 C 
HETATM    5  O   UNL     1       1.763  34.181  61.261  1.00  0.00    -0.273 OA
HETATM    6  C   UNL     1       3.475  32.657  61.847  1.00  0.00     0.104 C 
HETATM    7  C   UNL     1       4.722  32.481  62.693  1.00  0.00     0.026 C 
ENDROOT
BRANCH   1   8
HETATM    8  C   UNL     1       6.909  33.407  63.398  1.00  0.00     0.228 C 
HETATM    9  N   UNL     1       7.993  32.685  62.997  1.00  0.00    -0.327 N 
HETATM   10  H   UNL     1       8.677  32.703  63.748  1.00  0.00     0.169 HD
HETATM   11  O   UNL     1       6.951  33.813  64.563  1.00  0.00    -0.273 OA
BRANCH   9  12
HETATM   12  C   UNL     1       8.416  32.044  61.821  1.00  0.00     0.034 A 
HETATM   13  C   UNL     1       9.095  30.834  61.727  1.00  0.00     0.032 A 
HETATM   14  C   UNL     1       9.365  30.252  60.476  1.00  0.00     0.032 A 
HETATM   15  C   UNL     1       8.992  30.887  59.293  1.00  0.00     0.034 A 
HETATM   16  C   UNL     1       8.388  32.142  59.379  1.00  0.00     0.032 A 
HETATM   17  C   UNL     1       8.105  32.710  60.626  1.00  0.00     0.032 A 
BRANCH  15  18
HETATM   18  N   UNL     1       9.172  30.343  58.006  1.00  0.00    -0.328 N 
HETATM   19  C   UNL     1      10.321  30.374  57.236  1.00  0.00     0.218 C 
HETATM   20  C   UNL     1      10.172  29.616  55.939  1.00  0.00     0.117 C 
HETATM   21  O   UNL     1      11.389  30.901  57.530  1.00  0.00    -0.274 OA
HETATM   22  H   UNL     1       8.391  29.818  57.636  1.00  0.00     0.169 HD
ENDBRANCH  15  18
ENDBRANCH   9  12
ENDBRANCH   1   8
BRANCH   2  23
HETATM   23  C   UNL     1       4.559  35.385  64.154  1.00  0.00    -0.001 A 
HETATM   24  C   UNL     1       5.046  36.574  64.750  1.00  0.00     0.076 A 
HETATM   25  C   UNL     1       4.702  36.893  66.072  1.00  0.00     0.037 A 
HETATM   26  C   UNL     1       3.859  36.063  66.809  1.00  0.00     0.003 A 
HETATM   27  C   UNL     1       3.344  34.913  66.226  1.00  0.00     0.001 A 
HETATM   28  C   UNL     1       3.684  34.582  64.913  1.00  0.00     0.012 A 
BRANCH  24  29
HETATM   29  O   UNL     1       5.871  37.356  63.978  1.00  0.00    -0.355 OA
HETATM   30  C   UNL     1       5.814  38.762  64.177  1.00  0.00     0.210 C 
ENDBRANCH  24  29
ENDBRANCH   2  23
BRANCH   3  31
HETATM   31  C   UNL     1       3.776  36.230  60.895  1.00  0.00     0.038 A 
HETATM   32  C   UNL     1       4.114  36.132  59.542  1.00  0.00     0.032 A 
HETATM   33  C   UNL     1       4.179  37.271  58.730  1.00  0.00     0.039 A 
HETATM   34  C   UNL     1       3.938  38.536  59.261  1.00  0.00     0.068 A 
HETATM   35  C   UNL     1       3.564  38.649  60.596  1.00  0.00     0.039 A 
HETATM   36  C   UNL     1       3.478  37.504  61.403  1.00  0.00     0.032 A 
BRANCH  34  37
HETATM   37  O   UNL     1       4.087  39.579  58.390  1.00  0.00    -0.356 OA
HETATM   38  C   UNL     1       4.044  40.880  58.968  1.00  0.00     0.210 C 
ENDBRANCH  34  37
ENDBRANCH   3  31
TORSDOF 7
ENDMDL
MODEL 7
REMARK VINA RESULT:      -7.9      6.123     10.811
REMARK  7 active torsions:
REMARK  status: ('A' for Active; 'I' for Inactive)
REMARK       I    between atoms: C_2  and  N_3 
REMARK    1  A    between atoms: N_3  and  C_4 
REMARK    2  A    between atoms: C_7  and  N_8 
REMARK       I    between atoms: N_8  and  C_9 
REMARK    3  A    between atoms: C_9  and  C_10 
REMARK    4  A    between atoms: C_11  and  C_12 
REMARK    5  A    between atoms: C_13  and  O_14 
REMARK    6  A    between atoms: N_20  and  C_21 
REMARK    7  A    between atoms: C_24  and  O_25 
ROOT
HETATM    1  C   UNL     1       3.678  34.667  61.475  1.00  0.00     0.106 C 
HETATM    2  C   UNL     1       3.640  35.532  60.200  1.00  0.00     0.142 C 
HETATM    3  N   UNL     1       2.423  35.184  59.415  1.00  0.00    -0.308 N 
HETATM    4  C   UNL     1       1.169  35.142  60.031  1.00  0.00     0.225 C 
HETATM    5  O   UNL     1       0.085  35.283  59.464  1.00  0.00    -0.273 OA
HETATM    6  C   UNL     1       1.160  34.659  61.477  1.00  0.00     0.104 C 
HETATM    7  C   UNL     1       2.417  34.850  62.305  1.00  0.00     0.026 C 
ENDROOT
BRANCH   1   8
HETATM    8  C   UNL     1       4.895  34.879  62.354  1.00  0.00     0.228 C 
HETATM    9  N   UNL     1       6.060  34.191  62.197  1.00  0.00    -0.327 N 
HETATM   10  H   UNL     1       6.723  34.535  62.886  1.00  0.00     0.169 HD
HETATM   11  O   UNL     1       4.867  35.652  63.317  1.00  0.00    -0.273 OA
BRANCH   9  12
HETATM   12  C   UNL     1       6.576  33.247  61.294  1.00  0.00     0.034 A 
HETATM   13  C   UNL     1       6.011  32.848  60.088  1.00  0.00     0.032 A 
HETATM   14  C   UNL     1       6.691  31.968  59.228  1.00  0.00     0.032 A 
HETATM   15  C   UNL     1       7.934  31.443  59.574  1.00  0.00     0.034 A 
HETATM   16  C   UNL     1       8.467  31.771  60.820  1.00  0.00     0.032 A 
HETATM   17  C   UNL     1       7.795  32.661  61.667  1.00  0.00     0.032 A 
BRANCH  15  18
HETATM   18  N   UNL     1       8.704  30.605  58.743  1.00  0.00    -0.328 N 
HETATM   19  C   UNL     1       9.907  30.906  58.131  1.00  0.00     0.218 C 
HETATM   20  C   UNL     1      10.487  29.733  57.377  1.00  0.00     0.117 C 
HETATM   21  O   UNL     1      10.514  31.971  58.186  1.00  0.00    -0.274 OA
HETATM   22  H   UNL     1       8.365  29.657  58.637  1.00  0.00     0.169 HD
ENDBRANCH  15  18
ENDBRANCH   9  12
ENDBRANCH   1   8
BRANCH   2  23
HETATM   23  C   UNL     1       3.789  37.057  60.345  1.00  0.00    -0.001 A 
HETATM   24  C   UNL     1       4.466  37.809  59.353  1.00  0.00     0.076 A 
HETATM   25  C   UNL     1       4.655  39.188  59.520  1.00  0.00     0.037 A 
HETATM   26  C   UNL     1       4.162  39.843  60.647  1.00  0.00     0.003 A 
HETATM   27  C   UNL     1       3.464  39.128  61.610  1.00  0.00     0.001 A 
HETATM   28  C   UNL     1       3.274  37.753  61.457  1.00  0.00     0.012 A 
BRANCH  24  29
HETATM   29  O   UNL     1       4.928  37.111  58.263  1.00  0.00    -0.355 OA
HETATM   30  C   UNL     1       5.296  37.864  57.114  1.00  0.00     0.210 C 
ENDBRANCH  24  29
ENDBRANCH   2  23
BRANCH   3  31
HETATM   31  C   UNL     1       2.559  34.789  58.043  1.00  0.00     0.038 A 
HETATM   32  C   UNL     1       3.292  33.658  57.673  1.00  0.00     0.032 A 
HETATM   33  C   UNL     1       3.541  33.369  56.325  1.00  0.00     0.039 A 
HETATM   34  C   UNL     1       3.089  34.222  55.321  1.00  0.00     0.068 A 
HETATM   35  C   UNL     1       2.327  35.333  55.670  1.00  0.00     0.039 A 
HETATM   36  C   UNL     1       2.059  35.608  57.019  1.00  0.00     0.032 A 
BRANCH  34  37
HETATM   37  O   UNL     1       3.442  33.872  54.048  1.00  0.00    -0.356 OA
HETATM   38  C   UNL     1       2.681  32.819  53.462  1.00  0.00     0.210 C 
ENDBRANCH  34  37
ENDBRANCH   3  31
TORSDOF 7
ENDMDL
MODEL 8
REMARK VINA RESULT:      -7.8      6.953     12.292
REMARK  7 active torsions:
REMARK  status: ('A' for Active; 'I' for Inactive)
REMARK       I    between atoms: C_2  and  N_3 
REMARK    1  A    between atoms: N_3  and  C_4 
REMARK    2  A    between atoms: C_7  and  N_8 
REMARK       I    between atoms: N_8  and  C_9 
REMARK    3  A    between atoms: C_9  and  C_10 
REMARK    4  A    between atoms: C_11  and  C_12 
REMARK    5  A    between atoms: C_13  and  O_14 
REMARK    6  A    between atoms: N_20  and  C_21 
REMARK    7  A    between atoms: C_24  and  O_25 
ROOT
HETATM    1  C   UNL     1       3.645  33.711  61.507  1.00  0.00     0.106 C 
HETATM    2  C   UNL     1       4.869  34.591  61.825  1.00  0.00     0.142 C 
HETATM    3  N   UNL     1       4.427  36.008  61.949  1.00  0.00    -0.308 N 
HETATM    4  C   UNL     1       3.342  36.345  62.762  1.00  0.00     0.225 C 
HETATM    5  O   UNL     1       3.140  37.448  63.271  1.00  0.00    -0.273 OA
HETATM    6  C   UNL     1       2.219  35.315  62.824  1.00  0.00     0.104 C 
HETATM    7  C   UNL     1       2.566  33.860  62.569  1.00  0.00     0.026 C 
ENDROOT
BRANCH   1   8
HETATM    8  C   UNL     1       3.951  32.240  61.305  1.00  0.00     0.228 C 
HETATM    9  N   UNL     1       4.236  31.696  60.089  1.00  0.00    -0.327 N 
HETATM   10  H   UNL     1       4.431  30.708  60.225  1.00  0.00     0.169 HD
HETATM   11  O   UNL     1       3.892  31.434  62.240  1.00  0.00    -0.273 OA
BRANCH   9  12
HETATM   12  C   UNL     1       4.418  32.163  58.777  1.00  0.00     0.034 A 
HETATM   13  C   UNL     1       5.346  31.705  57.848  1.00  0.00     0.032 A 
HETATM   14  C   UNL     1       5.349  32.192  56.529  1.00  0.00     0.032 A 
HETATM   15  C   UNL     1       4.445  33.172  56.124  1.00  0.00     0.034 A 
HETATM   16  C   UNL     1       3.569  33.697  57.074  1.00  0.00     0.032 A 
HETATM   17  C   UNL     1       3.558  33.198  58.381  1.00  0.00     0.032 A 
BRANCH  15  18
HETATM   18  N   UNL     1       4.345  33.667  54.809  1.00  0.00    -0.328 N 
HETATM   19  C   UNL     1       3.484  33.239  53.814  1.00  0.00     0.218 C 
HETATM   20  C   UNL     1       3.601  34.057  52.551  1.00  0.00     0.117 C 
HETATM   21  O   UNL     1       2.661  32.332  53.894  1.00  0.00    -0.274 OA
HETATM   22  H   UNL     1       4.926  34.467  54.593  1.00  0.00     0.169 HD
ENDBRANCH  15  18
ENDBRANCH   9  12
ENDBRANCH   1   8
BRANCH   2  23
HETATM   23  C   UNL     1       5.775  34.188  63.003  1.00  0.00    -0.001 A 
HETATM   24  C   UNL     1       6.954  33.437  62.775  1.00  0.00     0.076 A 
HETATM   25  C   UNL     1       7.742  33.017  63.856  1.00  0.00     0.037 A 
HETATM   26  C   UNL     1       7.394  33.351  65.164  1.00  0.00     0.003 A 
HETATM   27  C   UNL     1       6.261  34.118  65.401  1.00  0.00     0.001 A 
HETATM   28  C   UNL     1       5.466  34.537  64.333  1.00  0.00     0.012 A 
BRANCH  24  29
HETATM   29  O   UNL     1       7.250  33.139  61.467  1.00  0.00    -0.355 OA
HETATM   30  C   UNL     1       7.658  31.809  61.176  1.00  0.00     0.210 C 
ENDBRANCH  24  29
ENDBRANCH   2  23
BRANCH   3  31
HETATM   31  C   UNL     1       5.057  37.015  61.145  1.00  0.00     0.038 A 
HETATM   32  C   UNL     1       6.141  37.762  61.616  1.00  0.00     0.032 A 
HETATM   33  C   UNL     1       6.648  38.840  60.880  1.00  0.00     0.039 A 
HETATM   34  C   UNL     1       6.062  39.213  59.672  1.00  0.00     0.068 A 
HETATM   35  C   UNL     1       5.006  38.458  59.171  1.00  0.00     0.039 A 
HETATM   36  C   UNL     1       4.514  37.365  59.899  1.00  0.00     0.032 A 
BRANCH  34  37
HETATM   37  O   UNL     1       6.603  40.316  59.072  1.00  0.00    -0.356 OA
HETATM   38  C   UNL     1       5.898  40.811  57.937  1.00  0.00     0.210 C 
ENDBRANCH  34  37
ENDBRANCH   3  31
TORSDOF 7
ENDMDL
MODEL 9
REMARK VINA RESULT:      -7.7      5.809      9.923
REMARK  7 active torsions:
REMARK  status: ('A' for Active; 'I' for Inactive)
REMARK       I    between atoms: C_2  and  N_3 
REMARK    1  A    between atoms: N_3  and  C_4 
REMARK    2  A    between atoms: C_7  and  N_8 
REMARK       I    between atoms: N_8  and  C_9 
REMARK    3  A    between atoms: C_9  and  C_10 
REMARK    4  A    between atoms: C_11  and  C_12 
REMARK    5  A    between atoms: C_13  and  O_14 
REMARK    6  A    between atoms: N_20  and  C_21 
REMARK    7  A    between atoms: C_24  and  O_25 
ROOT
HETATM    1  C   UNL     1       3.409  28.997  49.991  1.00  0.00     0.106 C 
HETATM    2  C   UNL     1       3.091  29.629  48.622  1.00  0.00     0.142 C 
HETATM    3  N   UNL     1       4.341  29.689  47.815  1.00  0.00    -0.308 N 
HETATM    4  C   UNL     1       5.149  28.558  47.671  1.00  0.00     0.225 C 
HETATM    5  O   UNL     1       5.933  28.348  46.745  1.00  0.00    -0.273 OA
HETATM    6  C   UNL     1       5.210  27.632  48.881  1.00  0.00     0.104 C 
HETATM    7  C   UNL     1       4.028  27.617  49.833  1.00  0.00     0.026 C 
ENDROOT
BRANCH   1   8
HETATM    8  C   UNL     1       2.232  28.913  50.944  1.00  0.00     0.228 C 
HETATM    9  N   UNL     1       2.367  28.678  52.279  1.00  0.00    -0.327 N 
HETATM   10  H   UNL     1       1.441  28.698  52.697  1.00  0.00     0.169 HD
HETATM   11  O   UNL     1       1.068  28.988  50.539  1.00  0.00    -0.273 OA
BRANCH   9  12
HETATM   12  C   UNL     1       3.427  28.528  53.189  1.00  0.00     0.034 A 
HETATM   13  C   UNL     1       4.162  27.373  53.433  1.00  0.00     0.032 A 
HETATM   14  C   UNL     1       5.270  27.391  54.297  1.00  0.00     0.032 A 
HETATM   15  C   UNL     1       5.645  28.557  54.961  1.00  0.00     0.034 A 
HETATM   16  C   UNL     1       4.860  29.697  54.788  1.00  0.00     0.032 A 
HETATM   17  C   UNL     1       3.767  29.680  53.913  1.00  0.00     0.032 A 
BRANCH  15  18
HETATM   18  N   UNL     1       6.775  28.671  55.794  1.00  0.00    -0.328 N 
HETATM   19  C   UNL     1       8.103  28.684  55.409  1.00  0.00     0.218 C 
HETATM   20  C   UNL     1       9.044  28.904  56.569  1.00  0.00     0.117 C 
HETATM   21  O   UNL     1       8.538  28.578  54.267  1.00  0.00    -0.274 OA
HETATM   22  H   UNL     1       6.585  28.825  56.777  1.00  0.00     0.169 HD
ENDBRANCH  15  18
ENDBRANCH   9  12
ENDBRANCH   1   8
BRANCH   2  23
HETATM   23  C   UNL     1       1.928  29.046  47.799  1.00  0.00    -0.001 A 
HETATM   24  C   UNL     1       0.891  29.889  47.327  1.00  0.00     0.076 A 
HETATM   25  C   UNL     1      -0.199  29.345  46.633  1.00  0.00     0.037 A 
HETATM   26  C   UNL     1      -0.269  27.977  46.375  1.00  0.00     0.003 A 
HETATM   27  C   UNL     1       0.757  27.143  46.798  1.00  0.00     0.001 A 
HETATM   28  C   UNL     1       1.845  27.673  47.494  1.00  0.00     0.012 A 
BRANCH  24  29
HETATM   29  O   UNL     1       1.012  31.228  47.608  1.00  0.00    -0.355 OA
HETATM   30  C   UNL     1       0.022  31.813  48.444  1.00  0.00     0.210 C 
ENDBRANCH  24  29
ENDBRANCH   2  23
BRANCH   3  31
HETATM   31  C   UNL     1       4.768  30.946  47.272  1.00  0.00     0.038 A 
HETATM   32  C   UNL     1       4.659  31.234  45.908  1.00  0.00     0.032 A 
HETATM   33  C   UNL     1       5.216  32.402  45.371  1.00  0.00     0.039 A 
HETATM   34  C   UNL     1       5.921  33.289  46.180  1.00  0.00     0.068 A 
HETATM   35  C   UNL     1       6.009  33.036  47.546  1.00  0.00     0.039 A 
HETATM   36  C   UNL     1       5.431  31.878  48.086  1.00  0.00     0.032 A 
BRANCH  34  37
HETATM   37  O   UNL     1       6.471  34.363  45.537  1.00  0.00    -0.356 OA
HETATM   38  C   UNL     1       7.175  34.069  44.334  1.00  0.00     0.210 C 
ENDBRANCH  34  37
ENDBRANCH   3  31
TORSDOF 7
ENDMDL
MODEL 10
REMARK VINA RESULT:      -7.6      4.560      9.245
REMARK  7 active torsions:
REMARK  status: ('A' for Active; 'I' for Inactive)
REMARK       I    between atoms: C_2  and  N_3 
REMARK    1  A    between atoms: N_3  and  C_4 
REMARK    2  A    between atoms: C_7  and  N_8 
REMARK       I    between atoms: N_8  and  C_9 
REMARK    3  A    between atoms: C_9  and  C_10 
REMARK    4  A    between atoms: C_11  and  C_12 
REMARK    5  A    between atoms: C_13  and  O_14 
REMARK    6  A    between atoms: N_20  and  C_21 
REMARK    7  A    between atoms: C_24  and  O_25 
ROOT
HETATM    1  C   UNL     1       5.199  30.047  49.886  1.00  0.00     0.106 C 
HETATM    2  C   UNL     1       3.855  30.463  50.516  1.00  0.00     0.142 C 
HETATM    3  N   UNL     1       4.102  31.532  51.522  1.00  0.00    -0.308 N 
HETATM    4  C   UNL     1       4.870  32.652  51.194  1.00  0.00     0.225 C 
HETATM    5  O   UNL     1       4.809  33.752  51.745  1.00  0.00    -0.273 OA
HETATM    6  C   UNL     1       6.022  32.402  50.228  1.00  0.00     0.104 C 
HETATM    7  C   UNL     1       5.908  31.239  49.260  1.00  0.00     0.026 C 
ENDROOT
BRANCH   1   8
HETATM    8  C   UNL     1       5.108  28.926  48.869  1.00  0.00     0.228 C 
HETATM    9  N   UNL     1       5.177  27.607  49.204  1.00  0.00    -0.327 N 
HETATM   10  H   UNL     1       5.063  27.062  48.354  1.00  0.00     0.169 HD
HETATM   11  O   UNL     1       5.033  29.157  47.658  1.00  0.00    -0.273 OA
BRANCH   9  12
HETATM   12  C   UNL     1       5.258  26.855  50.387  1.00  0.00     0.034 A 
HETATM   13  C   UNL     1       4.668  25.621  50.635  1.00  0.00     0.032 A 
HETATM   14  C   UNL     1       4.919  24.926  51.831  1.00  0.00     0.032 A 
HETATM   15  C   UNL     1       5.740  25.470  52.818  1.00  0.00     0.034 A 
HETATM   16  C   UNL     1       6.266  26.745  52.612  1.00  0.00     0.032 A 
HETATM   17  C   UNL     1       6.026  27.426  51.412  1.00  0.00     0.032 A 
BRANCH  15  18
HETATM   18  N   UNL     1       6.088  24.813  54.014  1.00  0.00    -0.328 N 
HETATM   19  C   UNL     1       6.965  23.754  54.165  1.00  0.00     0.218 C 
HETATM   20  C   UNL     1       7.157  23.358  55.610  1.00  0.00     0.117 C 
HETATM   21  O   UNL     1       7.586  23.181  53.276  1.00  0.00    -0.274 OA
HETATM   22  H   UNL     1       5.699  25.205  54.863  1.00  0.00     0.169 HD
ENDBRANCH  15  18
ENDBRANCH   9  12
ENDBRANCH   1   8
BRANCH   2  23
HETATM   23  C   UNL     1       2.693  30.841  49.579  1.00  0.00    -0.001 A 
HETATM   24  C   UNL     1       1.816  29.843  49.086  1.00  0.00     0.076 A 
HETATM   25  C   UNL     1       0.799  30.183  48.183  1.00  0.00     0.037 A 
HETATM   26  C   UNL     1       0.619  31.504  47.775  1.00  0.00     0.003 A 
HETATM   27  C   UNL     1       1.446  32.499  48.278  1.00  0.00     0.001 A 
HETATM   28  C   UNL     1       2.466  32.172  49.174  1.00  0.00     0.012 A 
BRANCH  24  29
HETATM   29  O   UNL     1       2.038  28.560  49.523  1.00  0.00    -0.355 OA
HETATM   30  C   UNL     1       1.657  27.499  48.655  1.00  0.00     0.210 C 
ENDBRANCH  24  29
ENDBRANCH   2  23
BRANCH   3  31
HETATM   31  C   UNL     1       3.634  31.355  52.866  1.00  0.00     0.038 A 
HETATM   32  C   UNL     1       2.725  32.241  53.452  1.00  0.00     0.032 A 
HETATM   33  C   UNL     1       2.393  32.142  54.809  1.00  0.00     0.039 A 
HETATM   34  C   UNL     1       2.988  31.175  55.616  1.00  0.00     0.068 A 
HETATM   35  C   UNL     1       3.867  30.262  55.042  1.00  0.00     0.039 A 
HETATM   36  C   UNL     1       4.181  30.349  53.678  1.00  0.00     0.032 A 
BRANCH  34  37
HETATM   37  O   UNL     1       2.634  31.211  56.936  1.00  0.00    -0.356 OA
HETATM   38  C   UNL     1       3.704  31.082  57.868  1.00  0.00     0.210 C 
ENDBRANCH  34  37
ENDBRANCH   3  31
TORSDOF 7
ENDMDL
