MODEL 1
REMARK VINA RESULT:      -9.7      0.000      0.000
REMARK  5 active torsions:
REMARK  status: ('A' for Active; 'I' for Inactive)
REMARK    1  A    between atoms: C_2  and  N_3 
REMARK       I    between atoms: N_3  and  C_4 
REMARK       I    between atoms: C_4  and  N_5 
REMARK    2  A    between atoms: N_5  and  C_6 
REMARK    3  A    between atoms: C_9  and  C_10 
REMARK    4  A    between atoms: C_10  and  N_11 
REMARK       I    between atoms: N_11  and  C_12 
REMARK    5  A    between atoms: C_12  and  C_13 
ROOT
HETATM    1  N   UNL     1       7.891  29.659  59.300  1.00  0.00    -0.353 N 
HETATM    2  C   UNL     1       8.165  29.080  58.076  1.00  0.00     0.254 C 
HETATM    3  O   UNL     1       9.118  29.436  57.386  1.00  0.00    -0.268 OA
HETATM    4  H   UNL     1       7.016  29.500  59.776  1.00  0.00     0.163 HD
ENDROOT
BRANCH   1   5
HETATM    5  C   UNL     1       8.670  30.802  59.713  1.00  0.00     0.161 C 
BRANCH   5   6
HETATM    6  C   UNL     1       8.080  31.518  60.895  1.00  0.00    -0.040 A 
HETATM    7  C   UNL     1       8.593  31.301  62.180  1.00  0.00     0.011 A 
HETATM    8  C   UNL     1       8.157  32.074  63.263  1.00  0.00     0.030 A 
HETATM    9  C   UNL     1       7.199  33.072  63.080  1.00  0.00     0.036 A 
HETATM   10  C   UNL     1       6.619  33.224  61.815  1.00  0.00     0.030 A 
HETATM   11  C   UNL     1       7.056  32.457  60.730  1.00  0.00     0.011 A 
BRANCH   9  12
HETATM   12  N   UNL     1       6.811  33.986  64.083  1.00  0.00    -0.309 N 
HETATM   13  C   UNL     1       5.746  33.862  64.953  1.00  0.00     0.321 C 
HETATM   14  N   UNL     1       5.805  34.842  65.926  1.00  0.00    -0.339 N 
HETATM   15  O   UNL     1       4.891  32.987  64.940  1.00  0.00    -0.247 OA
HETATM   16  H   UNL     1       6.220  35.717  65.645  1.00  0.00     0.164 HD
HETATM   17  H   UNL     1       7.501  34.670  64.348  1.00  0.00     0.170 HD
BRANCH  14  18
HETATM   18  C   UNL     1       4.898  34.900  67.069  1.00  0.00     0.078 C 
HETATM   19  C   UNL     1       3.762  35.903  66.870  1.00  0.00     0.032 C 
HETATM   20  C   UNL     1       5.636  35.137  68.384  1.00  0.00     0.032 C 
ENDBRANCH  14  18
ENDBRANCH   9  12
ENDBRANCH   5   6
ENDBRANCH   1   5
BRANCH   2  21
HETATM   21  C   UNL     1       7.252  28.018  57.576  1.00  0.00     0.064 A 
HETATM   22  C   UNL     1       6.002  28.368  57.086  1.00  0.00     0.077 A 
HETATM   23  C   UNL     1       5.091  27.420  56.613  1.00  0.00     0.065 A 
HETATM   24  N   UNL     1       5.402  29.624  56.953  1.00  0.00    -0.330 N 
HETATM   25  N   UNL     1       3.942  28.089  56.195  1.00  0.00    -0.331 N 
HETATM   26  C   UNL     1       5.373  26.077  56.598  1.00  0.00     0.074 A 
HETATM   27  C   UNL     1       4.131  29.463  56.398  1.00  0.00     0.176 A 
HETATM   28  H   UNL     1       3.110  27.679  55.797  1.00  0.00     0.168 HD
HETATM   29  S   UNL     1       3.053  30.656  56.043  1.00  0.00    -0.041 SA
HETATM   30  C   UNL     1       6.629  25.711  57.077  1.00  0.00     0.119 A 
HETATM   31  F   UNL     1       6.967  24.414  57.081  1.00  0.00    -0.206 F 
HETATM   32  C   UNL     1       7.565  26.651  57.557  1.00  0.00     0.061 A 
HETATM   33  H   UNL     1       5.855  30.497  57.205  1.00  0.00     0.168 HD
ENDBRANCH   2  21
TORSDOF 5
ENDMDL
MODEL 2
REMARK VINA RESULT:      -9.5      2.545      3.675
REMARK  5 active torsions:
REMARK  status: ('A' for Active; 'I' for Inactive)
REMARK    1  A    between atoms: C_2  and  N_3 
REMARK       I    between atoms: N_3  and  C_4 
REMARK       I    between atoms: C_4  and  N_5 
REMARK    2  A    between atoms: N_5  and  C_6 
REMARK    3  A    between atoms: C_9  and  C_10 
REMARK    4  A    between atoms: C_10  and  N_11 
REMARK       I    between atoms: N_11  and  C_12 
REMARK    5  A    between atoms: C_12  and  C_13 
ROOT
HETATM    1  N   UNL     1       7.054  31.597  60.344  1.00  0.00    -0.353 N 
HETATM    2  C   UNL     1       7.135  31.607  58.965  1.00  0.00     0.254 C 
HETATM    3  O   UNL     1       6.397  32.306  58.274  1.00  0.00    -0.268 OA
HETATM    4  H   UNL     1       7.523  30.897  60.897  1.00  0.00     0.163 HD
ENDROOT
BRANCH   1   5
HETATM    5  C   UNL     1       5.985  32.332  60.978  1.00  0.00     0.161 C 
BRANCH   5   6
HETATM    6  C   UNL     1       6.403  32.981  62.267  1.00  0.00    -0.040 A 
HETATM    7  C   UNL     1       5.727  34.112  62.740  1.00  0.00     0.011 A 
HETATM    8  C   UNL     1       6.006  34.631  64.010  1.00  0.00     0.030 A 
HETATM    9  C   UNL     1       6.967  34.032  64.825  1.00  0.00     0.036 A 
HETATM   10  C   UNL     1       7.708  32.959  64.314  1.00  0.00     0.030 A 
HETATM   11  C   UNL     1       7.428  32.435  63.048  1.00  0.00     0.011 A 
BRANCH   9  12
HETATM   12  N   UNL     1       7.206  34.402  66.165  1.00  0.00    -0.309 N 
HETATM   13  C   UNL     1       6.319  34.323  67.221  1.00  0.00     0.321 C 
HETATM   14  N   UNL     1       6.970  34.573  68.415  1.00  0.00    -0.339 N 
HETATM   15  O   UNL     1       5.137  34.015  67.159  1.00  0.00    -0.247 OA
HETATM   16  H   UNL     1       7.751  35.209  68.366  1.00  0.00     0.164 HD
HETATM   17  H   UNL     1       8.173  34.510  66.429  1.00  0.00     0.170 HD
BRANCH  14  18
HETATM   18  C   UNL     1       6.337  34.434  69.723  1.00  0.00     0.078 C 
HETATM   19  C   UNL     1       6.820  35.482  70.725  1.00  0.00     0.032 C 
HETATM   20  C   UNL     1       6.462  33.020  70.282  1.00  0.00     0.032 C 
ENDBRANCH  14  18
ENDBRANCH   9  12
ENDBRANCH   5   6
ENDBRANCH   1   5
BRANCH   2  21
HETATM   21  C   UNL     1       8.125  30.712  58.309  1.00  0.00     0.064 A 
HETATM   22  C   UNL     1       7.702  29.508  57.765  1.00  0.00     0.077 A 
HETATM   23  C   UNL     1       8.581  28.616  57.145  1.00  0.00     0.065 A 
HETATM   24  N   UNL     1       6.424  28.944  57.702  1.00  0.00    -0.330 N 
HETATM   25  N   UNL     1       7.848  27.513  56.708  1.00  0.00    -0.331 N 
HETATM   26  C   UNL     1       9.924  28.872  57.030  1.00  0.00     0.074 A 
HETATM   27  C   UNL     1       6.503  27.714  57.046  1.00  0.00     0.176 A 
HETATM   28  H   UNL     1       8.201  26.705  56.217  1.00  0.00     0.168 HD
HETATM   29  S   UNL     1       5.257  26.687  56.723  1.00  0.00    -0.041 SA
HETATM   30  C   UNL     1      10.363  30.083  57.563  1.00  0.00     0.119 A 
HETATM   31  F   UNL     1      11.663  30.394  57.476  1.00  0.00    -0.206 F 
HETATM   32  C   UNL     1       9.492  30.999  58.190  1.00  0.00     0.061 A 
HETATM   33  H   UNL     1       5.588  29.394  58.062  1.00  0.00     0.168 HD
ENDBRANCH   2  21
TORSDOF 5
ENDMDL
MODEL 3
REMARK VINA RESULT:      -9.4      2.303      2.884
REMARK  5 active torsions:
REMARK  status: ('A' for Active; 'I' for Inactive)
REMARK    1  A    between atoms: C_2  and  N_3 
REMARK       I    between atoms: N_3  and  C_4 
REMARK       I    between atoms: C_4  and  N_5 
REMARK    2  A    between atoms: N_5  and  C_6 
REMARK    3  A    between atoms: C_9  and  C_10 
REMARK    4  A    between atoms: C_10  and  N_11 
REMARK       I    between atoms: N_11  and  C_12 
REMARK    5  A    between atoms: C_12  and  C_13 
ROOT
HETATM    1  N   UNL     1       7.297  30.023  58.995  1.00  0.00    -0.353 N 
HETATM    2  C   UNL     1       7.467  29.076  58.004  1.00  0.00     0.254 C 
HETATM    3  O   UNL     1       8.517  28.451  57.872  1.00  0.00    -0.268 OA
HETATM    4  H   UNL     1       6.516  30.660  58.991  1.00  0.00     0.163 HD
ENDROOT
BRANCH   1   5
HETATM    5  C   UNL     1       8.433  30.376  59.814  1.00  0.00     0.161 C 
BRANCH   5   6
HETATM    6  C   UNL     1       8.099  31.384  60.877  1.00  0.00    -0.040 A 
HETATM    7  C   UNL     1       7.189  32.415  60.612  1.00  0.00     0.011 A 
HETATM    8  C   UNL     1       6.755  33.265  61.636  1.00  0.00     0.030 A 
HETATM    9  C   UNL     1       7.226  33.102  62.940  1.00  0.00     0.036 A 
HETATM   10  C   UNL     1       8.207  32.133  63.184  1.00  0.00     0.030 A 
HETATM   11  C   UNL     1       8.639  31.279  62.163  1.00  0.00     0.011 A 
BRANCH   9  12
HETATM   12  N   UNL     1       6.736  33.819  64.051  1.00  0.00    -0.309 N 
HETATM   13  C   UNL     1       5.578  33.562  64.761  1.00  0.00     0.321 C 
HETATM   14  N   UNL     1       5.536  34.337  65.905  1.00  0.00    -0.339 N 
HETATM   15  O   UNL     1       4.723  32.731  64.486  1.00  0.00    -0.247 OA
HETATM   16  H   UNL     1       5.986  35.237  65.845  1.00  0.00     0.164 HD
HETATM   17  H   UNL     1       7.397  34.419  64.517  1.00  0.00     0.170 HD
BRANCH  14  18
HETATM   18  C   UNL     1       4.507  34.202  66.932  1.00  0.00     0.078 C 
HETATM   19  C   UNL     1       3.369  35.208  66.762  1.00  0.00     0.032 C 
HETATM   20  C   UNL     1       5.087  34.240  68.343  1.00  0.00     0.032 C 
ENDBRANCH  14  18
ENDBRANCH   9  12
ENDBRANCH   5   6
ENDBRANCH   1   5
BRANCH   2  21
HETATM   21  C   UNL     1       6.348  28.842  57.052  1.00  0.00     0.064 A 
HETATM   22  C   UNL     1       6.230  27.608  56.429  1.00  0.00     0.077 A 
HETATM   23  C   UNL     1       5.210  27.325  55.516  1.00  0.00     0.065 A 
HETATM   24  N   UNL     1       7.015  26.456  56.547  1.00  0.00    -0.330 N 
HETATM   25  N   UNL     1       5.370  26.011  55.076  1.00  0.00    -0.331 N 
HETATM   26  C   UNL     1       4.255  28.248  55.176  1.00  0.00     0.074 A 
HETATM   27  C   UNL     1       6.488  25.462  55.719  1.00  0.00     0.176 A 
HETATM   28  H   UNL     1       4.786  25.514  54.421  1.00  0.00     0.168 HD
HETATM   29  S   UNL     1       7.064  23.931  55.530  1.00  0.00    -0.041 SA
HETATM   30  C   UNL     1       4.354  29.490  55.801  1.00  0.00     0.119 A 
HETATM   31  F   UNL     1       3.446  30.432  55.516  1.00  0.00    -0.206 F 
HETATM   32  C   UNL     1       5.374  29.796  56.728  1.00  0.00     0.061 A 
HETATM   33  H   UNL     1       7.817  26.379  57.164  1.00  0.00     0.168 HD
ENDBRANCH   2  21
TORSDOF 5
ENDMDL
MODEL 4
REMARK VINA RESULT:      -9.4      3.907     10.573
REMARK  5 active torsions:
REMARK  status: ('A' for Active; 'I' for Inactive)
REMARK    1  A    between atoms: C_2  and  N_3 
REMARK       I    between atoms: N_3  and  C_4 
REMARK       I    between atoms: C_4  and  N_5 
REMARK    2  A    between atoms: N_5  and  C_6 
REMARK    3  A    between atoms: C_9  and  C_10 
REMARK    4  A    between atoms: C_10  and  N_11 
REMARK       I    between atoms: N_11  and  C_12 
REMARK    5  A    between atoms: C_12  and  C_13 
ROOT
HETATM    1  N   UNL     1       6.492  30.006  58.251  1.00  0.00    -0.353 N 
HETATM    2  C   UNL     1       6.678  31.311  58.664  1.00  0.00     0.254 C 
HETATM    3  O   UNL     1       6.363  32.269  57.961  1.00  0.00    -0.268 OA
HETATM    4  H   UNL     1       6.913  29.231  58.740  1.00  0.00     0.163 HD
ENDROOT
BRANCH   1   5
HETATM    5  C   UNL     1       6.035  29.768  56.903  1.00  0.00     0.161 C 
BRANCH   5   6
HETATM    6  C   UNL     1       6.367  28.389  56.406  1.00  0.00    -0.040 A 
HETATM    7  C   UNL     1       5.798  27.263  57.014  1.00  0.00     0.011 A 
HETATM    8  C   UNL     1       5.978  25.988  56.465  1.00  0.00     0.030 A 
HETATM    9  C   UNL     1       6.732  25.817  55.303  1.00  0.00     0.036 A 
HETATM   10  C   UNL     1       7.377  26.930  54.750  1.00  0.00     0.030 A 
HETATM   11  C   UNL     1       7.195  28.206  55.293  1.00  0.00     0.011 A 
BRANCH   9  12
HETATM   12  N   UNL     1       6.843  24.594  54.608  1.00  0.00    -0.309 N 
HETATM   13  C   UNL     1       7.830  23.639  54.759  1.00  0.00     0.321 C 
HETATM   14  N   UNL     1       7.494  22.490  54.068  1.00  0.00    -0.339 N 
HETATM   15  O   UNL     1       8.836  23.732  55.449  1.00  0.00    -0.247 OA
HETATM   16  H   UNL     1       6.944  22.622  53.233  1.00  0.00     0.164 HD
HETATM   17  H   UNL     1       6.012  24.277  54.134  1.00  0.00     0.170 HD
BRANCH  14  18
HETATM   18  C   UNL     1       8.266  21.252  54.139  1.00  0.00     0.078 C 
HETATM   19  C   UNL     1       8.231  20.461  52.831  1.00  0.00     0.032 C 
HETATM   20  C   UNL     1       7.869  20.388  55.332  1.00  0.00     0.032 C 
ENDBRANCH  14  18
ENDBRANCH   9  12
ENDBRANCH   5   6
ENDBRANCH   1   5
BRANCH   2  21
HETATM   21  C   UNL     1       7.312  31.550  59.988  1.00  0.00     0.064 A 
HETATM   22  C   UNL     1       6.781  32.511  60.836  1.00  0.00     0.077 A 
HETATM   23  C   UNL     1       7.335  32.793  62.088  1.00  0.00     0.065 A 
HETATM   24  N   UNL     1       5.674  33.349  60.672  1.00  0.00    -0.330 N 
HETATM   25  N   UNL     1       6.574  33.797  62.685  1.00  0.00    -0.331 N 
HETATM   26  C   UNL     1       8.440  32.136  62.565  1.00  0.00     0.074 A 
HETATM   27  C   UNL     1       5.534  34.143  61.812  1.00  0.00     0.176 A 
HETATM   28  H   UNL     1       6.717  34.209  63.595  1.00  0.00     0.168 HD
HETATM   29  S   UNL     1       4.369  35.274  62.087  1.00  0.00    -0.041 SA
HETATM   30  C   UNL     1       8.979  31.160  61.729  1.00  0.00     0.119 A 
HETATM   31  F   UNL     1      10.056  30.478  62.141  1.00  0.00    -0.206 F 
HETATM   32  C   UNL     1       8.435  30.857  60.463  1.00  0.00     0.061 A 
HETATM   33  H   UNL     1       5.072  33.338  59.854  1.00  0.00     0.168 HD
ENDBRANCH   2  21
TORSDOF 5
ENDMDL
MODEL 5
REMARK VINA RESULT:      -9.3      3.797      9.446
REMARK  5 active torsions:
REMARK  status: ('A' for Active; 'I' for Inactive)
REMARK    1  A    between atoms: C_2  and  N_3 
REMARK       I    between atoms: N_3  and  C_4 
REMARK       I    between atoms: C_4  and  N_5 
REMARK    2  A    between atoms: N_5  and  C_6 
REMARK    3  A    between atoms: C_9  and  C_10 
REMARK    4  A    between atoms: C_10  and  N_11 
REMARK       I    between atoms: N_11  and  C_12 
REMARK    5  A    between atoms: C_12  and  C_13 
ROOT
HETATM    1  N   UNL     1       8.935  32.365  60.225  1.00  0.00    -0.353 N 
HETATM    2  C   UNL     1       8.925  31.895  61.524  1.00  0.00     0.254 C 
HETATM    3  O   UNL     1       9.770  31.104  61.937  1.00  0.00    -0.268 OA
HETATM    4  H   UNL     1       8.149  32.862  59.836  1.00  0.00     0.163 HD
ENDROOT
BRANCH   1   5
HETATM    5  C   UNL     1       9.888  31.805  59.296  1.00  0.00     0.161 C 
BRANCH   5   6
HETATM    6  C   UNL     1       9.312  30.696  58.461  1.00  0.00    -0.040 A 
HETATM    7  C   UNL     1      10.055  30.145  57.410  1.00  0.00     0.011 A 
HETATM    8  C   UNL     1       9.595  29.014  56.726  1.00  0.00     0.030 A 
HETATM    9  C   UNL     1       8.383  28.418  57.078  1.00  0.00     0.036 A 
HETATM   10  C   UNL     1       7.597  29.025  58.065  1.00  0.00     0.030 A 
HETATM   11  C   UNL     1       8.057  30.153  58.754  1.00  0.00     0.011 A 
BRANCH   9  12
HETATM   12  N   UNL     1       7.917  27.200  56.540  1.00  0.00    -0.309 N 
HETATM   13  C   UNL     1       7.442  26.984  55.261  1.00  0.00     0.321 C 
HETATM   14  N   UNL     1       7.277  25.631  55.033  1.00  0.00    -0.339 N 
HETATM   15  O   UNL     1       7.247  27.833  54.402  1.00  0.00    -0.247 OA
HETATM   16  H   UNL     1       7.035  25.075  55.838  1.00  0.00     0.164 HD
HETATM   17  H   UNL     1       8.169  26.367  57.047  1.00  0.00     0.170 HD
BRANCH  14  18
HETATM   18  C   UNL     1       6.917  25.070  53.734  1.00  0.00     0.078 C 
HETATM   19  C   UNL     1       5.407  24.903  53.562  1.00  0.00     0.032 C 
HETATM   20  C   UNL     1       7.665  23.775  53.433  1.00  0.00     0.032 C 
ENDBRANCH  14  18
ENDBRANCH   9  12
ENDBRANCH   5   6
ENDBRANCH   1   5
BRANCH   2  21
HETATM   21  C   UNL     1       7.833  32.344  62.429  1.00  0.00     0.064 A 
HETATM   22  C   UNL     1       6.527  32.370  61.962  1.00  0.00     0.077 A 
HETATM   23  C   UNL     1       5.456  32.791  62.755  1.00  0.00     0.065 A 
HETATM   24  N   UNL     1       6.006  32.016  60.713  1.00  0.00    -0.330 N 
HETATM   25  N   UNL     1       4.289  32.698  61.997  1.00  0.00    -0.331 N 
HETATM   26  C   UNL     1       5.624  33.205  64.052  1.00  0.00     0.074 A 
HETATM   27  C   UNL     1       4.624  32.210  60.727  1.00  0.00     0.176 A 
HETATM   28  H   UNL     1       3.352  32.922  62.295  1.00  0.00     0.168 HD
HETATM   29  S   UNL     1       3.575  31.919  59.491  1.00  0.00    -0.041 SA
HETATM   30  C   UNL     1       6.930  33.174  64.539  1.00  0.00     0.119 A 
HETATM   31  F   UNL     1       7.157  33.560  65.802  1.00  0.00    -0.206 F 
HETATM   32  C   UNL     1       8.025  32.750  63.757  1.00  0.00     0.061 A 
HETATM   33  H   UNL     1       6.567  31.654  59.948  1.00  0.00     0.168 HD
ENDBRANCH   2  21
TORSDOF 5
ENDMDL
MODEL 6
REMARK VINA RESULT:      -8.9      2.954      3.467
REMARK  5 active torsions:
REMARK  status: ('A' for Active; 'I' for Inactive)
REMARK    1  A    between atoms: C_2  and  N_3 
REMARK       I    between atoms: N_3  and  C_4 
REMARK       I    between atoms: C_4  and  N_5 
REMARK    2  A    between atoms: N_5  and  C_6 
REMARK    3  A    between atoms: C_9  and  C_10 
REMARK    4  A    between atoms: C_10  and  N_11 
REMARK       I    between atoms: N_11  and  C_12 
REMARK    5  A    between atoms: C_12  and  C_13 
ROOT
HETATM    1  N   UNL     1       7.893  29.379  57.180  1.00  0.00    -0.353 N 
HETATM    2  C   UNL     1       7.593  28.032  57.256  1.00  0.00     0.254 C 
HETATM    3  O   UNL     1       8.008  27.323  58.170  1.00  0.00    -0.268 OA
HETATM    4  H   UNL     1       7.711  29.915  56.345  1.00  0.00     0.163 HD
ENDROOT
BRANCH   1   5
HETATM    5  C   UNL     1       8.826  29.933  58.132  1.00  0.00     0.161 C 
BRANCH   5   6
HETATM    6  C   UNL     1       8.150  30.619  59.286  1.00  0.00    -0.040 A 
HETATM    7  C   UNL     1       8.670  30.502  60.580  1.00  0.00     0.011 A 
HETATM    8  C   UNL     1       8.142  31.258  61.633  1.00  0.00     0.030 A 
HETATM    9  C   UNL     1       7.082  32.138  61.411  1.00  0.00     0.036 A 
HETATM   10  C   UNL     1       6.501  32.183  60.138  1.00  0.00     0.030 A 
HETATM   11  C   UNL     1       7.031  31.434  59.082  1.00  0.00     0.011 A 
BRANCH   9  12
HETATM   12  N   UNL     1       6.587  33.036  62.380  1.00  0.00    -0.309 N 
HETATM   13  C   UNL     1       5.669  32.762  63.375  1.00  0.00     0.321 C 
HETATM   14  N   UNL     1       5.587  33.823  64.257  1.00  0.00    -0.339 N 
HETATM   15  O   UNL     1       5.048  31.719  63.528  1.00  0.00    -0.247 OA
HETATM   16  H   UNL     1       5.755  34.737  63.864  1.00  0.00     0.164 HD
HETATM   17  H   UNL     1       7.117  33.883  62.510  1.00  0.00     0.170 HD
BRANCH  14  18
HETATM   18  C   UNL     1       4.807  33.789  65.490  1.00  0.00     0.078 C 
HETATM   19  C   UNL     1       3.508  34.589  65.388  1.00  0.00     0.032 C 
HETATM   20  C   UNL     1       5.627  34.199  66.709  1.00  0.00     0.032 C 
ENDBRANCH  14  18
ENDBRANCH   9  12
ENDBRANCH   5   6
ENDBRANCH   1   5
BRANCH   2  21
HETATM   21  C   UNL     1       6.771  27.429  56.173  1.00  0.00     0.064 A 
HETATM   22  C   UNL     1       7.014  26.120  55.782  1.00  0.00     0.077 A 
HETATM   23  C   UNL     1       6.287  25.497  54.764  1.00  0.00     0.065 A 
HETATM   24  N   UNL     1       7.945  25.191  56.257  1.00  0.00    -0.330 N 
HETATM   25  N   UNL     1       6.770  24.197  54.615  1.00  0.00    -0.331 N 
HETATM   26  C   UNL     1       5.282  26.136  54.084  1.00  0.00     0.074 A 
HETATM   27  C   UNL     1       7.799  23.998  55.547  1.00  0.00     0.176 A 
HETATM   28  H   UNL     1       6.443  23.497  53.967  1.00  0.00     0.168 HD
HETATM   29  S   UNL     1       8.664  22.613  55.759  1.00  0.00    -0.041 SA
HETATM   30  C   UNL     1       5.019  27.449  54.473  1.00  0.00     0.119 A 
HETATM   31  F   UNL     1       4.044  28.125  53.852  1.00  0.00    -0.206 F 
HETATM   32  C   UNL     1       5.739  28.096  55.500  1.00  0.00     0.061 A 
HETATM   33  H   UNL     1       8.592  25.377  57.017  1.00  0.00     0.168 HD
ENDBRANCH   2  21
TORSDOF 5
ENDMDL
MODEL 7
REMARK VINA RESULT:      -8.9      3.719      9.854
REMARK  5 active torsions:
REMARK  status: ('A' for Active; 'I' for Inactive)
REMARK    1  A    between atoms: C_2  and  N_3 
REMARK       I    between atoms: N_3  and  C_4 
REMARK       I    between atoms: C_4  and  N_5 
REMARK    2  A    between atoms: N_5  and  C_6 
REMARK    3  A    between atoms: C_9  and  C_10 
REMARK    4  A    between atoms: C_10  and  N_11 
REMARK       I    between atoms: N_11  and  C_12 
REMARK    5  A    between atoms: C_12  and  C_13 
ROOT
HETATM    1  N   UNL     1       8.649  30.624  60.044  1.00  0.00    -0.353 N 
HETATM    2  C   UNL     1       8.492  31.984  60.230  1.00  0.00     0.254 C 
HETATM    3  O   UNL     1       9.025  32.808  59.490  1.00  0.00    -0.268 OA
HETATM    4  H   UNL     1       8.370  29.958  60.748  1.00  0.00     0.163 HD
ENDROOT
BRANCH   1   5
HETATM    5  C   UNL     1       9.570  30.167  59.030  1.00  0.00     0.161 C 
BRANCH   5   6
HETATM    6  C   UNL     1       8.880  29.561  57.841  1.00  0.00    -0.040 A 
HETATM    7  C   UNL     1       7.570  29.081  57.953  1.00  0.00     0.011 A 
HETATM    8  C   UNL     1       6.865  28.657  56.820  1.00  0.00     0.030 A 
HETATM    9  C   UNL     1       7.460  28.701  55.558  1.00  0.00     0.036 A 
HETATM   10  C   UNL     1       8.801  29.092  55.460  1.00  0.00     0.030 A 
HETATM   11  C   UNL     1       9.506  29.521  56.590  1.00  0.00     0.011 A 
BRANCH   9  12
HETATM   12  N   UNL     1       6.777  28.429  54.354  1.00  0.00    -0.309 N 
HETATM   13  C   UNL     1       6.929  27.321  53.544  1.00  0.00     0.321 C 
HETATM   14  N   UNL     1       5.947  27.300  52.571  1.00  0.00    -0.339 N 
HETATM   15  O   UNL     1       7.756  26.429  53.676  1.00  0.00    -0.247 OA
HETATM   16  H   UNL     1       5.617  28.200  52.259  1.00  0.00     0.164 HD
HETATM   17  H   UNL     1       5.940  28.966  54.190  1.00  0.00     0.170 HD
BRANCH  14  18
HETATM   18  C   UNL     1       5.755  26.189  51.644  1.00  0.00     0.078 C 
HETATM   19  C   UNL     1       5.098  26.622  50.333  1.00  0.00     0.032 C 
HETATM   20  C   UNL     1       5.015  25.018  52.285  1.00  0.00     0.032 C 
ENDBRANCH  14  18
ENDBRANCH   9  12
ENDBRANCH   5   6
ENDBRANCH   1   5
BRANCH   2  21
HETATM   21  C   UNL     1       7.680  32.450  61.385  1.00  0.00     0.064 A 
HETATM   22  C   UNL     1       6.417  32.979  61.161  1.00  0.00     0.077 A 
HETATM   23  C   UNL     1       5.606  33.446  62.199  1.00  0.00     0.065 A 
HETATM   24  N   UNL     1       5.709  33.156  59.968  1.00  0.00    -0.330 N 
HETATM   25  N   UNL     1       4.412  33.908  61.647  1.00  0.00    -0.331 N 
HETATM   26  C   UNL     1       6.004  33.411  63.512  1.00  0.00     0.074 A 
HETATM   27  C   UNL     1       4.467  33.725  60.259  1.00  0.00     0.176 A 
HETATM   28  H   UNL     1       3.624  34.297  62.142  1.00  0.00     0.168 HD
HETATM   29  S   UNL     1       3.283  34.107  59.180  1.00  0.00    -0.041 SA
HETATM   30  C   UNL     1       7.267  32.872  63.753  1.00  0.00     0.119 A 
HETATM   31  F   UNL     1       7.710  32.804  65.016  1.00  0.00    -0.206 F 
HETATM   32  C   UNL     1       8.100  32.392  62.721  1.00  0.00     0.061 A 
HETATM   33  H   UNL     1       6.059  32.881  59.056  1.00  0.00     0.168 HD
ENDBRANCH   2  21
TORSDOF 5
ENDMDL
MODEL 8
REMARK VINA RESULT:      -8.7      3.374      5.591
REMARK  5 active torsions:
REMARK  status: ('A' for Active; 'I' for Inactive)
REMARK    1  A    between atoms: C_2  and  N_3 
REMARK       I    between atoms: N_3  and  C_4 
REMARK       I    between atoms: C_4  and  N_5 
REMARK    2  A    between atoms: N_5  and  C_6 
REMARK    3  A    between atoms: C_9  and  C_10 
REMARK    4  A    between atoms: C_10  and  N_11 
REMARK       I    between atoms: N_11  and  C_12 
REMARK    5  A    between atoms: C_12  and  C_13 
ROOT
HETATM    1  N   UNL     1       5.761  34.074  61.985  1.00  0.00    -0.353 N 
HETATM    2  C   UNL     1       5.822  32.751  61.592  1.00  0.00     0.254 C 
HETATM    3  O   UNL     1       4.880  31.979  61.755  1.00  0.00    -0.268 OA
HETATM    4  H   UNL     1       6.585  34.654  62.021  1.00  0.00     0.163 HD
ENDROOT
BRANCH   1   5
HETATM    5  C   UNL     1       4.605  34.521  62.726  1.00  0.00     0.161 C 
BRANCH   5   6
HETATM    6  C   UNL     1       4.825  34.522  64.212  1.00  0.00    -0.040 A 
HETATM    7  C   UNL     1       3.754  34.749  65.085  1.00  0.00     0.011 A 
HETATM    8  C   UNL     1       3.915  34.600  66.467  1.00  0.00     0.030 A 
HETATM    9  C   UNL     1       5.149  34.227  67.000  1.00  0.00     0.036 A 
HETATM   10  C   UNL     1       6.242  34.093  66.136  1.00  0.00     0.030 A 
HETATM   11  C   UNL     1       6.083  34.235  64.753  1.00  0.00     0.011 A 
BRANCH   9  12
HETATM   12  N   UNL     1       5.360  33.918  68.361  1.00  0.00    -0.309 N 
HETATM   13  C   UNL     1       6.120  34.631  69.267  1.00  0.00     0.321 C 
HETATM   14  N   UNL     1       5.921  34.146  70.546  1.00  0.00    -0.339 N 
HETATM   15  O   UNL     1       6.827  35.600  69.024  1.00  0.00    -0.247 OA
HETATM   16  H   UNL     1       5.714  33.162  70.617  1.00  0.00     0.164 HD
HETATM   17  H   UNL     1       4.716  33.259  68.769  1.00  0.00     0.170 HD
BRANCH  14  18
HETATM   18  C   UNL     1       6.478  34.772  71.742  1.00  0.00     0.078 C 
HETATM   19  C   UNL     1       7.718  34.046  72.264  1.00  0.00     0.032 C 
HETATM   20  C   UNL     1       5.434  34.964  72.838  1.00  0.00     0.032 C 
ENDBRANCH  14  18
ENDBRANCH   9  12
ENDBRANCH   5   6
ENDBRANCH   1   5
BRANCH   2  21
HETATM   21  C   UNL     1       7.085  32.252  60.985  1.00  0.00     0.064 A 
HETATM   22  C   UNL     1       7.043  31.598  59.762  1.00  0.00     0.077 A 
HETATM   23  C   UNL     1       8.189  31.094  59.142  1.00  0.00     0.065 A 
HETATM   24  N   UNL     1       5.958  31.310  58.928  1.00  0.00    -0.330 N 
HETATM   25  N   UNL     1       7.810  30.500  57.939  1.00  0.00    -0.331 N 
HETATM   26  C   UNL     1       9.437  31.215  59.701  1.00  0.00     0.074 A 
HETATM   27  C   UNL     1       6.423  30.637  57.796  1.00  0.00     0.176 A 
HETATM   28  H   UNL     1       8.414  30.057  57.263  1.00  0.00     0.168 HD
HETATM   29  S   UNL     1       5.519  30.105  56.526  1.00  0.00    -0.041 SA
HETATM   30  C   UNL     1       9.497  31.879  60.924  1.00  0.00     0.119 A 
HETATM   31  F   UNL     1      10.688  32.036  61.517  1.00  0.00    -0.206 F 
HETATM   32  C   UNL     1       8.352  32.398  61.566  1.00  0.00     0.061 A 
HETATM   33  H   UNL     1       5.001  31.584  59.129  1.00  0.00     0.168 HD
ENDBRANCH   2  21
TORSDOF 5
ENDMDL
MODEL 9
REMARK VINA RESULT:      -8.6      3.568     10.241
REMARK  5 active torsions:
REMARK  status: ('A' for Active; 'I' for Inactive)
REMARK    1  A    between atoms: C_2  and  N_3 
REMARK       I    between atoms: N_3  and  C_4 
REMARK       I    between atoms: C_4  and  N_5 
REMARK    2  A    between atoms: N_5  and  C_6 
REMARK    3  A    between atoms: C_9  and  C_10 
REMARK    4  A    between atoms: C_10  and  N_11 
REMARK       I    between atoms: N_11  and  C_12 
REMARK    5  A    between atoms: C_12  and  C_13 
ROOT
HETATM    1  N   UNL     1       5.907  30.975  58.573  1.00  0.00    -0.353 N 
HETATM    2  C   UNL     1       5.949  32.152  59.294  1.00  0.00     0.254 C 
HETATM    3  O   UNL     1       5.351  33.162  58.929  1.00  0.00    -0.268 OA
HETATM    4  H   UNL     1       6.536  30.212  58.768  1.00  0.00     0.163 HD
ENDROOT
BRANCH   1   5
HETATM    5  C   UNL     1       5.248  30.976  57.288  1.00  0.00     0.161 C 
BRANCH   5   6
HETATM    6  C   UNL     1       5.201  29.616  56.651  1.00  0.00    -0.040 A 
HETATM    7  C   UNL     1       4.972  29.487  55.276  1.00  0.00     0.011 A 
HETATM    8  C   UNL     1       5.079  28.241  54.648  1.00  0.00     0.030 A 
HETATM    9  C   UNL     1       5.411  27.103  55.384  1.00  0.00     0.036 A 
HETATM   10  C   UNL     1       5.547  27.216  56.774  1.00  0.00     0.030 A 
HETATM   11  C   UNL     1       5.446  28.461  57.403  1.00  0.00     0.011 A 
BRANCH   9  12
HETATM   12  N   UNL     1       5.678  25.842  54.810  1.00  0.00    -0.309 N 
HETATM   13  C   UNL     1       6.879  25.159  54.825  1.00  0.00     0.321 C 
HETATM   14  N   UNL     1       6.704  23.872  54.351  1.00  0.00    -0.339 N 
HETATM   15  O   UNL     1       7.949  25.573  55.249  1.00  0.00    -0.247 OA
HETATM   16  H   UNL     1       5.982  23.752  53.657  1.00  0.00     0.164 HD
HETATM   17  H   UNL     1       4.873  25.283  54.576  1.00  0.00     0.170 HD
BRANCH  14  18
HETATM   18  C   UNL     1       7.754  22.858  54.365  1.00  0.00     0.078 C 
HETATM   19  C   UNL     1       7.855  22.095  53.044  1.00  0.00     0.032 C 
HETATM   20  C   UNL     1       7.631  21.911  55.555  1.00  0.00     0.032 C 
ENDBRANCH  14  18
ENDBRANCH   9  12
ENDBRANCH   5   6
ENDBRANCH   1   5
BRANCH   2  21
HETATM   21  C   UNL     1       6.774  32.194  60.531  1.00  0.00     0.064 A 
HETATM   22  C   UNL     1       6.234  32.723  61.694  1.00  0.00     0.077 A 
HETATM   23  C   UNL     1       6.959  32.803  62.887  1.00  0.00     0.065 A 
HETATM   24  N   UNL     1       4.963  33.250  61.943  1.00  0.00    -0.330 N 
HETATM   25  N   UNL     1       6.139  33.376  63.858  1.00  0.00    -0.331 N 
HETATM   26  C   UNL     1       8.253  32.361  62.988  1.00  0.00     0.074 A 
HETATM   27  C   UNL     1       4.892  33.651  63.279  1.00  0.00     0.176 A 
HETATM   28  H   UNL     1       6.374  33.558  64.822  1.00  0.00     0.168 HD
HETATM   29  S   UNL     1       3.593  34.319  64.039  1.00  0.00    -0.041 SA
HETATM   30  C   UNL     1       8.807  31.818  61.830  1.00  0.00     0.119 A 
HETATM   31  F   UNL     1      10.066  31.363  61.867  1.00  0.00    -0.206 F 
HETATM   32  C   UNL     1       8.093  31.725  60.617  1.00  0.00     0.061 A 
HETATM   33  H   UNL     1       4.223  33.295  61.249  1.00  0.00     0.168 HD
ENDBRANCH   2  21
TORSDOF 5
ENDMDL
MODEL 10
REMARK VINA RESULT:      -8.3      5.543      8.059
REMARK  5 active torsions:
REMARK  status: ('A' for Active; 'I' for Inactive)
REMARK    1  A    between atoms: C_2  and  N_3 
REMARK       I    between atoms: N_3  and  C_4 
REMARK       I    between atoms: C_4  and  N_5 
REMARK    2  A    between atoms: N_5  and  C_6 
REMARK    3  A    between atoms: C_9  and  C_10 
REMARK    4  A    between atoms: C_10  and  N_11 
REMARK       I    between atoms: N_11  and  C_12 
REMARK    5  A    between atoms: C_12  and  C_13 
ROOT
HETATM    1  N   UNL     1       4.955  27.471  52.942  1.00  0.00    -0.353 N 
HETATM    2  C   UNL     1       5.434  27.139  51.689  1.00  0.00     0.254 C 
HETATM    3  O   UNL     1       6.054  26.099  51.484  1.00  0.00    -0.268 OA
HETATM    4  H   UNL     1       4.612  28.396  53.150  1.00  0.00     0.163 HD
ENDROOT
BRANCH   1   5
HETATM    5  C   UNL     1       5.309  26.630  54.061  1.00  0.00     0.161 C 
BRANCH   5   6
HETATM    6  C   UNL     1       5.907  27.398  55.206  1.00  0.00    -0.040 A 
HETATM    7  C   UNL     1       5.085  28.128  56.073  1.00  0.00     0.011 A 
HETATM    8  C   UNL     1       5.611  28.718  57.228  1.00  0.00     0.030 A 
HETATM    9  C   UNL     1       6.967  28.594  57.532  1.00  0.00     0.036 A 
HETATM   10  C   UNL     1       7.805  27.945  56.617  1.00  0.00     0.030 A 
HETATM   11  C   UNL     1       7.281  27.349  55.465  1.00  0.00     0.011 A 
BRANCH   9  12
HETATM   12  N   UNL     1       7.548  29.033  58.740  1.00  0.00    -0.309 N 
HETATM   13  C   UNL     1       7.817  30.338  59.107  1.00  0.00     0.321 C 
HETATM   14  N   UNL     1       8.188  30.395  60.437  1.00  0.00    -0.339 N 
HETATM   15  O   UNL     1       7.693  31.333  58.407  1.00  0.00    -0.247 OA
HETATM   16  H   UNL     1       8.671  29.585  60.795  1.00  0.00     0.164 HD
HETATM   17  H   UNL     1       7.551  28.368  59.497  1.00  0.00     0.170 HD
BRANCH  14  18
HETATM   18  C   UNL     1       8.408  31.644  61.160  1.00  0.00     0.078 C 
HETATM   19  C   UNL     1       9.839  32.163  61.020  1.00  0.00     0.032 C 
HETATM   20  C   UNL     1       7.983  31.551  62.623  1.00  0.00     0.032 C 
ENDBRANCH  14  18
ENDBRANCH   9  12
ENDBRANCH   5   6
ENDBRANCH   1   5
BRANCH   2  21
HETATM   21  C   UNL     1       5.215  28.097  50.573  1.00  0.00     0.064 A 
HETATM   22  C   UNL     1       4.541  27.677  49.436  1.00  0.00     0.077 A 
HETATM   23  C   UNL     1       4.311  28.522  48.346  1.00  0.00     0.065 A 
HETATM   24  N   UNL     1       3.977  26.435  49.126  1.00  0.00    -0.330 N 
HETATM   25  N   UNL     1       3.614  27.803  47.376  1.00  0.00    -0.331 N 
HETATM   26  C   UNL     1       4.736  29.826  48.329  1.00  0.00     0.074 A 
HETATM   27  C   UNL     1       3.397  26.505  47.857  1.00  0.00     0.176 A 
HETATM   28  H   UNL     1       3.296  28.141  46.480  1.00  0.00     0.168 HD
HETATM   29  S   UNL     1       2.603  25.296  47.070  1.00  0.00    -0.041 SA
HETATM   30  C   UNL     1       5.406  30.266  49.469  1.00  0.00     0.119 A 
HETATM   31  F   UNL     1       5.839  31.533  49.516  1.00  0.00    -0.206 F 
HETATM   32  C   UNL     1       5.645  29.431  50.581  1.00  0.00     0.061 A 
HETATM   33  H   UNL     1       3.982  25.639  49.755  1.00  0.00     0.168 HD
ENDBRANCH   2  21
TORSDOF 5
ENDMDL
