MODEL 1
REMARK VINA RESULT:      -8.6      0.000      0.000
REMARK  7 active torsions:
REMARK  status: ('A' for Active; 'I' for Inactive)
REMARK    1  A    between atoms: C_5  and  N_6 
REMARK    2  A    between atoms: N_6  and  C_9 
REMARK    3  A    between atoms: C_9  and  C_10 
REMARK    4  A    between atoms: C_10  and  C_11 
REMARK    5  A    between atoms: C_10  and  C_13 
REMARK    6  A    between atoms: C_11  and  O_12 
REMARK    7  A    between atoms: C_13  and  C_14 
ROOT
HETATM    1  N   UNL     1       6.078  24.618  53.320  1.00  0.00    -0.066 N 
HETATM    2  H   UNL     1       5.566  23.905  52.765  1.00  0.00     0.278 HD
HETATM    3  H   UNL     1       5.664  24.573  54.271  1.00  0.00     0.278 HD
ENDROOT
BRANCH   1   4
HETATM    4  C   UNL     1       7.513  24.266  53.413  1.00  0.00     0.220 C 
HETATM    5  C   UNL     1       7.860  23.750  54.775  1.00  0.00    -0.021 A 
HETATM    6  C   UNL     1       7.919  22.343  54.798  1.00  0.00    -0.040 A 
HETATM    7  C   UNL     1       8.061  24.511  55.920  1.00  0.00     0.010 A 
HETATM    8  C   UNL     1       8.137  21.673  56.000  1.00  0.00    -0.055 A 
HETATM    9  C   UNL     1       7.637  21.797  53.418  1.00  0.00     0.018 C 
HETATM   10  C   UNL     1       8.161  20.177  56.113  1.00  0.00     0.049 C 
HETATM   11  C   UNL     1       8.362  22.447  57.151  1.00  0.00     0.007 A 
HETATM   12  C   UNL     1       8.327  23.847  57.113  1.00  0.00     0.001 A 
HETATM   13  C   UNL     1       7.847  23.054  52.541  1.00  0.00     0.047 C 
HETATM   14  C   UNL     1       8.526  20.659  52.931  1.00  0.00     0.015 C 
ENDBRANCH   1   4
BRANCH   1  15
HETATM   15  C   UNL     1       5.751  25.959  52.767  1.00  0.00     0.240 C 
BRANCH  15  16
HETATM   16  C   UNL     1       5.802  27.034  53.872  1.00  0.00     0.040 C 
BRANCH  16  17
HETATM   17  C   UNL     1       4.578  27.957  53.767  1.00  0.00     0.170 C 
BRANCH  17  18
HETATM   18  O   UNL     1       3.460  27.204  53.289  1.00  0.00    -0.400 OA
HETATM   19  H   UNL     1       3.834  26.423  52.827  1.00  0.00     0.209 HD
ENDBRANCH  17  18
ENDBRANCH  16  17
BRANCH  16  20
HETATM   20  C   UNL     1       7.086  27.893  53.869  1.00  0.00     0.067 C 
BRANCH  20  21
HETATM   21  C   UNL     1       7.583  28.234  55.248  1.00  0.00     0.034 A 
HETATM   22  N   UNL     1       8.678  29.043  55.306  1.00  0.00    -0.266 NA
HETATM   23  C   UNL     1       9.113  29.381  56.547  1.00  0.00     0.117 A 
HETATM   24  C   UNL     1       8.543  28.920  57.720  1.00  0.00     0.019 A 
HETATM   25  C   UNL     1       7.448  28.070  57.630  1.00  0.00     0.003 A 
HETATM   26  C   UNL     1       6.955  27.721  56.378  1.00  0.00     0.027 A 
ENDBRANCH  20  21
ENDBRANCH  16  20
ENDBRANCH  15  16
ENDBRANCH   1  15
TORSDOF 7
ENDMDL
MODEL 2
REMARK VINA RESULT:      -8.5      1.842      2.931
REMARK  7 active torsions:
REMARK  status: ('A' for Active; 'I' for Inactive)
REMARK    1  A    between atoms: C_5  and  N_6 
REMARK    2  A    between atoms: N_6  and  C_9 
REMARK    3  A    between atoms: C_9  and  C_10 
REMARK    4  A    between atoms: C_10  and  C_11 
REMARK    5  A    between atoms: C_10  and  C_13 
REMARK    6  A    between atoms: C_11  and  O_12 
REMARK    7  A    between atoms: C_13  and  C_14 
ROOT
HETATM    1  N   UNL     1       6.547  24.871  56.454  1.00  0.00    -0.066 N 
HETATM    2  H   UNL     1       5.921  25.309  55.750  1.00  0.00     0.278 HD
HETATM    3  H   UNL     1       6.081  23.981  56.717  1.00  0.00     0.278 HD
ENDROOT
BRANCH   1   4
HETATM    4  C   UNL     1       7.860  24.554  55.847  1.00  0.00     0.220 C 
HETATM    5  C   UNL     1       8.099  23.077  55.807  1.00  0.00    -0.021 A 
HETATM    6  C   UNL     1       7.825  22.542  54.533  1.00  0.00    -0.040 A 
HETATM    7  C   UNL     1       8.493  22.274  56.869  1.00  0.00     0.010 A 
HETATM    8  C   UNL     1       7.900  21.166  54.322  1.00  0.00    -0.055 A 
HETATM    9  C   UNL     1       7.399  23.646  53.595  1.00  0.00     0.018 C 
HETATM   10  C   UNL     1       7.573  20.518  53.010  1.00  0.00     0.049 C 
HETATM   11  C   UNL     1       8.322  20.361  55.395  1.00  0.00     0.007 A 
HETATM   12  C   UNL     1       8.616  20.907  56.651  1.00  0.00     0.001 A 
HETATM   13  C   UNL     1       7.884  24.902  54.357  1.00  0.00     0.047 C 
HETATM   14  C   UNL     1       7.987  23.623  52.189  1.00  0.00     0.015 C 
ENDBRANCH   1   4
BRANCH   1  15
HETATM   15  C   UNL     1       6.558  25.732  57.666  1.00  0.00     0.240 C 
BRANCH  15  16
HETATM   16  C   UNL     1       6.683  27.219  57.280  1.00  0.00     0.040 C 
BRANCH  16  17
HETATM   17  C   UNL     1       5.610  27.587  56.244  1.00  0.00     0.170 C 
BRANCH  17  18
HETATM   18  O   UNL     1       4.354  27.039  56.651  1.00  0.00    -0.400 OA
HETATM   19  H   UNL     1       3.901  26.754  55.829  1.00  0.00     0.209 HD
ENDBRANCH  17  18
ENDBRANCH  16  17
BRANCH  16  20
HETATM   20  C   UNL     1       8.071  27.624  56.738  1.00  0.00     0.067 C 
BRANCH  20  21
HETATM   21  C   UNL     1       8.673  28.806  57.452  1.00  0.00     0.034 A 
HETATM   22  N   UNL     1       8.040  29.202  58.591  1.00  0.00    -0.266 NA
HETATM   23  C   UNL     1       8.595  30.247  59.257  1.00  0.00     0.117 A 
HETATM   24  C   UNL     1       9.713  30.936  58.823  1.00  0.00     0.019 A 
HETATM   25  C   UNL     1      10.319  30.531  57.641  1.00  0.00     0.003 A 
HETATM   26  C   UNL     1       9.797  29.448  56.942  1.00  0.00     0.027 A 
ENDBRANCH  20  21
ENDBRANCH  16  20
ENDBRANCH  15  16
ENDBRANCH   1  15
TORSDOF 7
ENDMDL
MODEL 3
REMARK VINA RESULT:      -8.3      2.841      5.055
REMARK  7 active torsions:
REMARK  status: ('A' for Active; 'I' for Inactive)
REMARK    1  A    between atoms: C_5  and  N_6 
REMARK    2  A    between atoms: N_6  and  C_9 
REMARK    3  A    between atoms: C_9  and  C_10 
REMARK    4  A    between atoms: C_10  and  C_11 
REMARK    5  A    between atoms: C_10  and  C_13 
REMARK    6  A    between atoms: C_11  and  O_12 
REMARK    7  A    between atoms: C_13  and  C_14 
ROOT
HETATM    1  N   UNL     1       6.645  25.445  53.646  1.00  0.00    -0.066 N 
HETATM    2  H   UNL     1       5.893  24.743  53.501  1.00  0.00     0.278 HD
HETATM    3  H   UNL     1       6.452  25.863  54.577  1.00  0.00     0.278 HD
ENDROOT
BRANCH   1   4
HETATM    4  C   UNL     1       7.967  24.781  53.693  1.00  0.00     0.220 C 
HETATM    5  C   UNL     1       8.169  24.060  54.990  1.00  0.00    -0.021 A 
HETATM    6  C   UNL     1       7.921  22.679  54.861  1.00  0.00    -0.040 A 
HETATM    7  C   UNL     1       8.509  24.632  56.209  1.00  0.00     0.010 A 
HETATM    8  C   UNL     1       7.966  21.853  55.982  1.00  0.00    -0.055 A 
HETATM    9  C   UNL     1       7.552  22.358  53.432  1.00  0.00     0.018 C 
HETATM   10  C   UNL     1       7.663  20.385  55.933  1.00  0.00     0.049 C 
HETATM   11  C   UNL     1       8.334  22.434  57.209  1.00  0.00     0.007 A 
HETATM   12  C   UNL     1       8.603  23.804  57.322  1.00  0.00     0.001 A 
HETATM   13  C   UNL     1       8.047  23.624  52.693  1.00  0.00     0.047 C 
HETATM   14  C   UNL     1       8.182  21.112  52.820  1.00  0.00     0.015 C 
ENDBRANCH   1   4
BRANCH   1  15
HETATM   15  C   UNL     1       6.472  26.525  52.639  1.00  0.00     0.240 C 
BRANCH  15  16
HETATM   16  C   UNL     1       5.215  26.279  51.782  1.00  0.00     0.040 C 
BRANCH  16  17
HETATM   17  C   UNL     1       4.629  24.893  52.091  1.00  0.00     0.170 C 
BRANCH  17  18
HETATM   18  O   UNL     1       3.909  24.949  53.325  1.00  0.00    -0.400 OA
HETATM   19  H   UNL     1       4.210  25.764  53.780  1.00  0.00     0.209 HD
ENDBRANCH  17  18
ENDBRANCH  16  17
BRANCH  16  20
HETATM   20  C   UNL     1       5.444  26.404  50.260  1.00  0.00     0.067 C 
BRANCH  20  21
HETATM   21  C   UNL     1       4.193  26.731  49.489  1.00  0.00     0.034 A 
HETATM   22  N   UNL     1       3.620  27.936  49.762  1.00  0.00    -0.266 NA
HETATM   23  C   UNL     1       2.509  28.251  49.048  1.00  0.00     0.117 A 
HETATM   24  C   UNL     1       1.923  27.412  48.116  1.00  0.00     0.019 A 
HETATM   25  C   UNL     1       2.510  26.175  47.883  1.00  0.00     0.003 A 
HETATM   26  C   UNL     1       3.665  25.825  48.575  1.00  0.00     0.027 A 
ENDBRANCH  20  21
ENDBRANCH  16  20
ENDBRANCH  15  16
ENDBRANCH   1  15
TORSDOF 7
ENDMDL
MODEL 4
REMARK VINA RESULT:      -8.2      1.885      3.853
REMARK  7 active torsions:
REMARK  status: ('A' for Active; 'I' for Inactive)
REMARK    1  A    between atoms: C_5  and  N_6 
REMARK    2  A    between atoms: N_6  and  C_9 
REMARK    3  A    between atoms: C_9  and  C_10 
REMARK    4  A    between atoms: C_10  and  C_11 
REMARK    5  A    between atoms: C_10  and  C_13 
REMARK    6  A    between atoms: C_11  and  O_12 
REMARK    7  A    between atoms: C_13  and  C_14 
ROOT
HETATM    1  N   UNL     1       6.375  24.655  56.583  1.00  0.00    -0.066 N 
HETATM    2  H   UNL     1       5.665  24.368  55.881  1.00  0.00     0.278 HD
HETATM    3  H   UNL     1       6.212  24.041  57.404  1.00  0.00     0.278 HD
ENDROOT
BRANCH   1   4
HETATM    4  C   UNL     1       7.740  24.399  56.068  1.00  0.00     0.220 C 
HETATM    5  C   UNL     1       8.026  22.932  55.989  1.00  0.00    -0.021 A 
HETATM    6  C   UNL     1       7.866  22.441  54.678  1.00  0.00    -0.040 A 
HETATM    7  C   UNL     1       8.362  22.097  57.047  1.00  0.00     0.010 A 
HETATM    8  C   UNL     1       7.998  21.078  54.421  1.00  0.00    -0.055 A 
HETATM    9  C   UNL     1       7.479  23.571  53.753  1.00  0.00     0.018 C 
HETATM   10  C   UNL     1       7.791  20.475  53.063  1.00  0.00     0.049 C 
HETATM   11  C   UNL     1       8.361  20.241  55.492  1.00  0.00     0.007 A 
HETATM   12  C   UNL     1       8.543  20.744  56.787  1.00  0.00     0.001 A 
HETATM   13  C   UNL     1       7.867  24.808  54.598  1.00  0.00     0.047 C 
HETATM   14  C   UNL     1       8.172  23.621  52.397  1.00  0.00     0.015 C 
ENDBRANCH   1   4
BRANCH   1  15
HETATM   15  C   UNL     1       6.071  26.045  57.012  1.00  0.00     0.240 C 
BRANCH  15  16
HETATM   16  C   UNL     1       6.255  27.032  55.842  1.00  0.00     0.040 C 
BRANCH  16  17
HETATM   17  C   UNL     1       6.797  28.372  56.362  1.00  0.00     0.170 C 
BRANCH  17  18
HETATM   18  O   UNL     1       6.810  29.323  55.294  1.00  0.00    -0.400 OA
HETATM   19  H   UNL     1       7.191  28.858  54.519  1.00  0.00     0.209 HD
ENDBRANCH  17  18
ENDBRANCH  16  17
BRANCH  16  20
HETATM   20  C   UNL     1       4.977  27.289  55.015  1.00  0.00     0.067 C 
BRANCH  20  21
HETATM   21  C   UNL     1       5.074  26.806  53.592  1.00  0.00     0.034 A 
HETATM   22  N   UNL     1       5.564  27.700  52.689  1.00  0.00    -0.266 NA
HETATM   23  C   UNL     1       5.684  27.260  51.410  1.00  0.00     0.117 A 
HETATM   24  C   UNL     1       5.302  26.000  50.984  1.00  0.00     0.019 A 
HETATM   25  C   UNL     1       4.775  25.121  51.921  1.00  0.00     0.003 A 
HETATM   26  C   UNL     1       4.660  25.524  53.247  1.00  0.00     0.027 A 
ENDBRANCH  20  21
ENDBRANCH  16  20
ENDBRANCH  15  16
ENDBRANCH   1  15
TORSDOF 7
ENDMDL
MODEL 5
REMARK VINA RESULT:      -8.1      1.857      3.096
REMARK  7 active torsions:
REMARK  status: ('A' for Active; 'I' for Inactive)
REMARK    1  A    between atoms: C_5  and  N_6 
REMARK    2  A    between atoms: N_6  and  C_9 
REMARK    3  A    between atoms: C_9  and  C_10 
REMARK    4  A    between atoms: C_10  and  C_11 
REMARK    5  A    between atoms: C_10  and  C_13 
REMARK    6  A    between atoms: C_11  and  O_12 
REMARK    7  A    between atoms: C_13  and  C_14 
ROOT
HETATM    1  N   UNL     1       6.536  25.624  52.161  1.00  0.00    -0.066 N 
HETATM    2  H   UNL     1       7.063  26.287  52.762  1.00  0.00     0.278 HD
HETATM    3  H   UNL     1       7.238  25.237  51.501  1.00  0.00     0.278 HD
ENDROOT
BRANCH   1   4
HETATM    4  C   UNL     1       5.993  24.512  52.975  1.00  0.00     0.220 C 
HETATM    5  C   UNL     1       7.090  23.703  53.593  1.00  0.00    -0.021 A 
HETATM    6  C   UNL     1       7.303  24.060  54.939  1.00  0.00    -0.040 A 
HETATM    7  C   UNL     1       7.867  22.743  52.958  1.00  0.00     0.010 A 
HETATM    8  C   UNL     1       8.347  23.481  55.659  1.00  0.00    -0.055 A 
HETATM    9  C   UNL     1       6.327  25.140  55.343  1.00  0.00     0.018 C 
HETATM   10  C   UNL     1       8.669  23.848  57.077  1.00  0.00     0.049 C 
HETATM   11  C   UNL     1       9.116  22.493  55.018  1.00  0.00     0.007 A 
HETATM   12  C   UNL     1       8.878  22.128  53.686  1.00  0.00     0.001 A 
HETATM   13  C   UNL     1       5.269  25.034  54.219  1.00  0.00     0.047 C 
HETATM   14  C   UNL     1       5.663  24.996  56.707  1.00  0.00     0.015 C 
ENDBRANCH   1   4
BRANCH   1  15
HETATM   15  C   UNL     1       5.561  26.402  51.353  1.00  0.00     0.240 C 
BRANCH  15  16
HETATM   16  C   UNL     1       5.361  27.812  51.945  1.00  0.00     0.040 C 
BRANCH  16  17
HETATM   17  C   UNL     1       5.274  28.851  50.817  1.00  0.00     0.170 C 
BRANCH  17  18
HETATM   18  O   UNL     1       6.042  30.002  51.177  1.00  0.00    -0.400 OA
HETATM   19  H   UNL     1       6.333  30.411  50.334  1.00  0.00     0.209 HD
ENDBRANCH  17  18
ENDBRANCH  16  17
BRANCH  16  20
HETATM   20  C   UNL     1       6.452  28.244  52.950  1.00  0.00     0.067 C 
BRANCH  20  21
HETATM   21  C   UNL     1       5.925  28.490  54.339  1.00  0.00     0.034 A 
HETATM   22  N   UNL     1       6.863  28.691  55.306  1.00  0.00    -0.266 NA
HETATM   23  C   UNL     1       6.395  28.946  56.555  1.00  0.00     0.117 A 
HETATM   24  C   UNL     1       5.053  28.965  56.891  1.00  0.00     0.019 A 
HETATM   25  C   UNL     1       4.121  28.724  55.891  1.00  0.00     0.003 A 
HETATM   26  C   UNL     1       4.558  28.486  54.592  1.00  0.00     0.027 A 
ENDBRANCH  20  21
ENDBRANCH  16  20
ENDBRANCH  15  16
ENDBRANCH   1  15
TORSDOF 7
ENDMDL
MODEL 6
REMARK VINA RESULT:      -7.9      2.575      4.389
REMARK  7 active torsions:
REMARK  status: ('A' for Active; 'I' for Inactive)
REMARK    1  A    between atoms: C_5  and  N_6 
REMARK    2  A    between atoms: N_6  and  C_9 
REMARK    3  A    between atoms: C_9  and  C_10 
REMARK    4  A    between atoms: C_10  and  C_11 
REMARK    5  A    between atoms: C_10  and  C_13 
REMARK    6  A    between atoms: C_11  and  O_12 
REMARK    7  A    between atoms: C_13  and  C_14 
ROOT
HETATM    1  N   UNL     1       7.966  26.699  56.937  1.00  0.00    -0.066 N 
HETATM    2  H   UNL     1       8.934  26.496  57.255  1.00  0.00     0.278 HD
HETATM    3  H   UNL     1       8.065  27.037  55.960  1.00  0.00     0.278 HD
ENDROOT
BRANCH   1   4
HETATM    4  C   UNL     1       7.157  25.459  56.927  1.00  0.00     0.220 C 
HETATM    5  C   UNL     1       6.625  25.167  55.559  1.00  0.00    -0.021 A 
HETATM    6  C   UNL     1       7.401  24.195  54.897  1.00  0.00    -0.040 A 
HETATM    7  C   UNL     1       5.539  25.778  54.946  1.00  0.00     0.010 A 
HETATM    8  C   UNL     1       7.118  23.857  53.575  1.00  0.00    -0.055 A 
HETATM    9  C   UNL     1       8.520  23.732  55.800  1.00  0.00     0.018 C 
HETATM   10  C   UNL     1       7.931  22.871  52.788  1.00  0.00     0.049 C 
HETATM   11  C   UNL     1       6.003  24.462  52.968  1.00  0.00     0.007 A 
HETATM   12  C   UNL     1       5.223  25.408  53.644  1.00  0.00     0.001 A 
HETATM   13  C   UNL     1       8.025  24.224  57.181  1.00  0.00     0.047 C 
HETATM   14  C   UNL     1       8.798  22.235  55.843  1.00  0.00     0.015 C 
ENDBRANCH   1   4
BRANCH   1  15
HETATM   15  C   UNL     1       7.443  27.835  57.740  1.00  0.00     0.240 C 
BRANCH  15  16
HETATM   16  C   UNL     1       7.959  29.180  57.189  1.00  0.00     0.040 C 
BRANCH  16  17
HETATM   17  C   UNL     1       8.515  28.989  55.770  1.00  0.00     0.170 C 
BRANCH  17  18
HETATM   18  O   UNL     1       7.426  28.904  54.846  1.00  0.00    -0.400 OA
HETATM   19  H   UNL     1       6.609  28.879  55.387  1.00  0.00     0.209 HD
ENDBRANCH  17  18
ENDBRANCH  16  17
BRANCH  16  20
HETATM   20  C   UNL     1       9.034  29.859  58.067  1.00  0.00     0.067 C 
BRANCH  20  21
HETATM   21  C   UNL     1       8.466  30.584  59.258  1.00  0.00     0.034 A 
HETATM   22  N   UNL     1       9.029  30.289  60.462  1.00  0.00    -0.266 NA
HETATM   23  C   UNL     1       8.543  30.962  61.536  1.00  0.00     0.117 A 
HETATM   24  C   UNL     1       7.503  31.873  61.475  1.00  0.00     0.019 A 
HETATM   25  C   UNL     1       6.926  32.130  60.238  1.00  0.00     0.003 A 
HETATM   26  C   UNL     1       7.413  31.480  59.109  1.00  0.00     0.027 A 
ENDBRANCH  20  21
ENDBRANCH  16  20
ENDBRANCH  15  16
ENDBRANCH   1  15
TORSDOF 7
ENDMDL
MODEL 7
REMARK VINA RESULT:      -7.8      3.327      5.867
REMARK  7 active torsions:
REMARK  status: ('A' for Active; 'I' for Inactive)
REMARK    1  A    between atoms: C_5  and  N_6 
REMARK    2  A    between atoms: N_6  and  C_9 
REMARK    3  A    between atoms: C_9  and  C_10 
REMARK    4  A    between atoms: C_10  and  C_11 
REMARK    5  A    between atoms: C_10  and  C_13 
REMARK    6  A    between atoms: C_11  and  O_12 
REMARK    7  A    between atoms: C_13  and  C_14 
ROOT
HETATM    1  N   UNL     1       6.335  25.590  52.053  1.00  0.00    -0.066 N 
HETATM    2  H   UNL     1       6.734  26.385  52.590  1.00  0.00     0.278 HD
HETATM    3  H   UNL     1       7.127  25.208  51.502  1.00  0.00     0.278 HD
ENDROOT
BRANCH   1   4
HETATM    4  C   UNL     1       5.851  24.537  52.975  1.00  0.00     0.220 C 
HETATM    5  C   UNL     1       6.989  23.755  53.554  1.00  0.00    -0.021 A 
HETATM    6  C   UNL     1       7.311  24.192  54.854  1.00  0.00    -0.040 A 
HETATM    7  C   UNL     1       7.708  22.750  52.920  1.00  0.00     0.010 A 
HETATM    8  C   UNL     1       8.406  23.647  55.523  1.00  0.00    -0.055 A 
HETATM    9  C   UNL     1       6.377  25.305  55.265  1.00  0.00     0.018 C 
HETATM   10  C   UNL     1       8.842  24.098  56.886  1.00  0.00     0.049 C 
HETATM   11  C   UNL     1       9.115  22.614  54.886  1.00  0.00     0.007 A 
HETATM   12  C   UNL     1       8.770  22.169  53.603  1.00  0.00     0.001 A 
HETATM   13  C   UNL     1       5.232  25.142  54.237  1.00  0.00     0.047 C 
HETATM   14  C   UNL     1       5.823  25.253  56.684  1.00  0.00     0.015 C 
ENDBRANCH   1   4
BRANCH   1  15
HETATM   15  C   UNL     1       5.350  26.133  51.081  1.00  0.00     0.240 C 
BRANCH  15  16
HETATM   16  C   UNL     1       5.542  27.652  50.898  1.00  0.00     0.040 C 
BRANCH  16  17
HETATM   17  C   UNL     1       4.611  28.420  51.848  1.00  0.00     0.170 C 
BRANCH  17  18
HETATM   18  O   UNL     1       3.700  27.502  52.458  1.00  0.00    -0.400 OA
HETATM   19  H   UNL     1       3.380  27.938  53.277  1.00  0.00     0.209 HD
ENDBRANCH  17  18
ENDBRANCH  16  17
BRANCH  16  20
HETATM   20  C   UNL     1       5.320  28.155  49.454  1.00  0.00     0.067 C 
BRANCH  20  21
HETATM   21  C   UNL     1       4.137  27.521  48.773  1.00  0.00     0.034 A 
HETATM   22  N   UNL     1       2.918  28.046  49.080  1.00  0.00    -0.266 NA
HETATM   23  C   UNL     1       1.849  27.500  48.446  1.00  0.00     0.117 A 
HETATM   24  C   UNL     1       1.932  26.437  47.563  1.00  0.00     0.019 A 
HETATM   25  C   UNL     1       3.184  25.901  47.294  1.00  0.00     0.003 A 
HETATM   26  C   UNL     1       4.308  26.449  47.903  1.00  0.00     0.027 A 
ENDBRANCH  20  21
ENDBRANCH  16  20
ENDBRANCH  15  16
ENDBRANCH   1  15
TORSDOF 7
ENDMDL
MODEL 8
REMARK VINA RESULT:      -7.8      3.673      7.923
REMARK  7 active torsions:
REMARK  status: ('A' for Active; 'I' for Inactive)
REMARK    1  A    between atoms: C_5  and  N_6 
REMARK    2  A    between atoms: N_6  and  C_9 
REMARK    3  A    between atoms: C_9  and  C_10 
REMARK    4  A    between atoms: C_10  and  C_11 
REMARK    5  A    between atoms: C_10  and  C_13 
REMARK    6  A    between atoms: C_11  and  O_12 
REMARK    7  A    between atoms: C_13  and  C_14 
ROOT
HETATM    1  N   UNL     1       4.589  26.184  51.620  1.00  0.00    -0.066 N 
HETATM    2  H   UNL     1       4.904  26.795  52.399  1.00  0.00     0.278 HD
HETATM    3  H   UNL     1       3.553  26.251  51.621  1.00  0.00     0.278 HD
ENDROOT
BRANCH   1   4
HETATM    4  C   UNL     1       5.092  26.701  50.327  1.00  0.00     0.220 C 
HETATM    5  C   UNL     1       4.060  26.574  49.250  1.00  0.00    -0.021 A 
HETATM    6  C   UNL     1       3.391  27.793  49.026  1.00  0.00    -0.040 A 
HETATM    7  C   UNL     1       3.725  25.416  48.559  1.00  0.00     0.010 A 
HETATM    8  C   UNL     1       2.329  27.852  48.125  1.00  0.00    -0.055 A 
HETATM    9  C   UNL     1       3.954  28.860  49.935  1.00  0.00     0.018 C 
HETATM   10  C   UNL     1       1.536  29.099  47.872  1.00  0.00     0.049 C 
HETATM   11  C   UNL     1       2.009  26.683  47.412  1.00  0.00     0.007 A 
HETATM   12  C   UNL     1       2.698  25.482  47.624  1.00  0.00     0.001 A 
HETATM   13  C   UNL     1       5.292  28.218  50.371  1.00  0.00     0.047 C 
HETATM   14  C   UNL     1       4.203  30.231  49.318  1.00  0.00     0.015 C 
ENDBRANCH   1   4
BRANCH   1  15
HETATM   15  C   UNL     1       4.935  24.779  51.961  1.00  0.00     0.240 C 
BRANCH  15  16
HETATM   16  C   UNL     1       5.846  24.726  53.204  1.00  0.00     0.040 C 
BRANCH  16  17
HETATM   17  C   UNL     1       5.958  26.122  53.836  1.00  0.00     0.170 C 
BRANCH  17  18
HETATM   18  O   UNL     1       4.826  26.349  54.679  1.00  0.00    -0.400 OA
HETATM   19  H   UNL     1       5.067  27.099  55.264  1.00  0.00     0.209 HD
ENDBRANCH  17  18
ENDBRANCH  16  17
BRANCH  16  20
HETATM   20  C   UNL     1       7.264  24.177  52.933  1.00  0.00     0.067 C 
BRANCH  20  21
HETATM   21  C   UNL     1       7.547  22.874  53.633  1.00  0.00     0.034 A 
HETATM   22  N   UNL     1       7.471  22.897  54.993  1.00  0.00    -0.266 NA
HETATM   23  C   UNL     1       7.694  21.719  55.630  1.00  0.00     0.117 A 
HETATM   24  C   UNL     1       8.030  20.541  54.985  1.00  0.00     0.019 A 
HETATM   25  C   UNL     1       8.133  20.555  53.601  1.00  0.00     0.003 A 
HETATM   26  C   UNL     1       7.886  21.736  52.909  1.00  0.00     0.027 A 
ENDBRANCH  20  21
ENDBRANCH  16  20
ENDBRANCH  15  16
ENDBRANCH   1  15
TORSDOF 7
ENDMDL
MODEL 9
REMARK VINA RESULT:      -7.4      2.258      6.798
REMARK  7 active torsions:
REMARK  status: ('A' for Active; 'I' for Inactive)
REMARK    1  A    between atoms: C_5  and  N_6 
REMARK    2  A    between atoms: N_6  and  C_9 
REMARK    3  A    between atoms: C_9  and  C_10 
REMARK    4  A    between atoms: C_10  and  C_11 
REMARK    5  A    between atoms: C_10  and  C_13 
REMARK    6  A    between atoms: C_11  and  O_12 
REMARK    7  A    between atoms: C_13  and  C_14 
ROOT
HETATM    1  N   UNL     1       4.825  27.149  54.727  1.00  0.00    -0.066 N 
HETATM    2  H   UNL     1       4.963  26.891  55.723  1.00  0.00     0.278 HD
HETATM    3  H   UNL     1       3.797  27.221  54.603  1.00  0.00     0.278 HD
ENDROOT
BRANCH   1   4
HETATM    4  C   UNL     1       5.427  28.473  54.449  1.00  0.00     0.220 C 
HETATM    5  C   UNL     1       5.272  29.397  55.617  1.00  0.00    -0.021 A 
HETATM    6  C   UNL     1       6.450  29.463  56.387  1.00  0.00    -0.040 A 
HETATM    7  C   UNL     1       4.123  30.090  55.974  1.00  0.00     0.010 A 
HETATM    8  C   UNL     1       6.471  30.200  57.569  1.00  0.00    -0.055 A 
HETATM    9  C   UNL     1       7.516  28.591  55.767  1.00  0.00     0.018 C 
HETATM   10  C   UNL     1       7.669  30.275  58.468  1.00  0.00     0.049 C 
HETATM   11  C   UNL     1       5.312  30.919  57.914  1.00  0.00     0.007 A 
HETATM   12  C   UNL     1       4.155  30.867  57.127  1.00  0.00     0.001 A 
HETATM   13  C   UNL     1       6.952  28.381  54.342  1.00  0.00     0.047 C 
HETATM   14  C   UNL     1       8.924  29.167  55.696  1.00  0.00     0.015 C 
ENDBRANCH   1   4
BRANCH   1  15
HETATM   15  C   UNL     1       5.286  26.013  53.885  1.00  0.00     0.240 C 
BRANCH  15  16
HETATM   16  C   UNL     1       5.940  24.919  54.752  1.00  0.00     0.040 C 
BRANCH  16  17
HETATM   17  C   UNL     1       5.912  25.331  56.231  1.00  0.00     0.170 C 
BRANCH  17  18
HETATM   18  O   UNL     1       4.576  25.216  56.728  1.00  0.00    -0.400 OA
HETATM   19  H   UNL     1       3.996  25.628  56.052  1.00  0.00     0.209 HD
ENDBRANCH  17  18
ENDBRANCH  16  17
BRANCH  16  20
HETATM   20  C   UNL     1       7.389  24.567  54.351  1.00  0.00     0.067 C 
BRANCH  20  21
HETATM   21  C   UNL     1       7.647  23.086  54.269  1.00  0.00     0.034 A 
HETATM   22  N   UNL     1       7.572  22.400  55.444  1.00  0.00    -0.266 NA
HETATM   23  C   UNL     1       7.773  21.059  55.373  1.00  0.00     0.117 A 
HETATM   24  C   UNL     1       8.084  20.382  54.206  1.00  0.00     0.019 A 
HETATM   25  C   UNL     1       8.185  21.112  53.029  1.00  0.00     0.003 A 
HETATM   26  C   UNL     1       7.961  22.485  53.055  1.00  0.00     0.027 A 
ENDBRANCH  20  21
ENDBRANCH  16  20
ENDBRANCH  15  16
ENDBRANCH   1  15
TORSDOF 7
ENDMDL
MODEL 10
REMARK VINA RESULT:      -7.3      3.420      5.147
REMARK  7 active torsions:
REMARK  status: ('A' for Active; 'I' for Inactive)
REMARK    1  A    between atoms: C_5  and  N_6 
REMARK    2  A    between atoms: N_6  and  C_9 
REMARK    3  A    between atoms: C_9  and  C_10 
REMARK    4  A    between atoms: C_10  and  C_11 
REMARK    5  A    between atoms: C_10  and  C_13 
REMARK    6  A    between atoms: C_11  and  O_12 
REMARK    7  A    between atoms: C_13  and  C_14 
ROOT
HETATM    1  N   UNL     1       6.457  25.583  52.016  1.00  0.00    -0.066 N 
HETATM    2  H   UNL     1       6.869  26.347  52.588  1.00  0.00     0.278 HD
HETATM    3  H   UNL     1       7.248  25.201  51.462  1.00  0.00     0.278 HD
ENDROOT
BRANCH   1   4
HETATM    4  C   UNL     1       5.933  24.510  52.891  1.00  0.00     0.220 C 
HETATM    5  C   UNL     1       7.043  23.723  53.514  1.00  0.00    -0.021 A 
HETATM    6  C   UNL     1       7.295  24.136  54.837  1.00  0.00    -0.040 A 
HETATM    7  C   UNL     1       7.799  22.733  52.899  1.00  0.00     0.010 A 
HETATM    8  C   UNL     1       8.356  23.584  55.551  1.00  0.00    -0.055 A 
HETATM    9  C   UNL     1       6.334  25.237  55.220  1.00  0.00     0.018 C 
HETATM   10  C   UNL     1       8.718  24.010  56.943  1.00  0.00     0.049 C 
HETATM   11  C   UNL     1       9.104  22.566  54.933  1.00  0.00     0.007 A 
HETATM   12  C   UNL     1       8.828  22.145  53.625  1.00  0.00     0.001 A 
HETATM   13  C   UNL     1       5.245  25.088  54.131  1.00  0.00     0.047 C 
HETATM   14  C   UNL     1       5.707  25.154  56.607  1.00  0.00     0.015 C 
ENDBRANCH   1   4
BRANCH   1  15
HETATM   15  C   UNL     1       5.502  26.189  51.051  1.00  0.00     0.240 C 
BRANCH  15  16
HETATM   16  C   UNL     1       5.528  27.727  51.146  1.00  0.00     0.040 C 
BRANCH  16  17
HETATM   17  C   UNL     1       5.522  28.165  52.619  1.00  0.00     0.170 C 
BRANCH  17  18
HETATM   18  O   UNL     1       6.777  28.772  52.936  1.00  0.00    -0.400 OA
HETATM   19  H   UNL     1       7.216  28.174  53.577  1.00  0.00     0.209 HD
ENDBRANCH  17  18
ENDBRANCH  16  17
BRANCH  16  20
HETATM   20  C   UNL     1       4.374  28.433  50.402  1.00  0.00     0.067 C 
BRANCH  20  21
HETATM   21  C   UNL     1       4.793  29.704  49.711  1.00  0.00     0.034 A 
HETATM   22  N   UNL     1       5.756  30.435  50.338  1.00  0.00    -0.266 NA
HETATM   23  C   UNL     1       6.161  31.566  49.705  1.00  0.00     0.117 A 
HETATM   24  C   UNL     1       5.627  32.021  48.512  1.00  0.00     0.019 A 
HETATM   25  C   UNL     1       4.624  31.272  47.913  1.00  0.00     0.003 A 
HETATM   26  C   UNL     1       4.198  30.093  48.515  1.00  0.00     0.027 A 
ENDBRANCH  20  21
ENDBRANCH  16  20
ENDBRANCH  15  16
ENDBRANCH   1  15
TORSDOF 7
ENDMDL
