MODEL 1
REMARK VINA RESULT:     -10.0      0.000      0.000
REMARK  5 active torsions:
REMARK  status: ('A' for Active; 'I' for Inactive)
REMARK    1  A    between atoms: C_8  and  N_9 
REMARK    2  A    between atoms: C_12  and  N_13 
REMARK    3  A    between atoms: N_13  and  C_15 
REMARK    4  A    between atoms: C_15  and  C_16 
REMARK    5  A    between atoms: C_17  and  C_18 
ROOT
HETATM    1  N   UNL     1       5.315  26.263  54.854  1.00  0.00    -0.067 N 
HETATM    2  H   UNL     1       4.435  26.172  54.330  1.00  0.00     0.280 HD
HETATM    3  C   UNL     1       5.118  27.407  55.825  1.00  0.00     0.270 C 
ENDROOT
BRANCH   1   4
HETATM    4  C   UNL     1       6.482  26.440  53.862  1.00  0.00     0.190 C 
HETATM    5  C   UNL     1       6.454  25.346  52.781  1.00  0.00     0.048 C 
HETATM    6  C   UNL     1       5.411  25.598  51.691  1.00  0.00     0.099 C 
HETATM    7  N   UNL     1       5.614  26.943  51.135  1.00  0.00    -0.268 NA
HETATM    8  C   UNL     1       5.493  28.028  52.113  1.00  0.00     0.099 C 
HETATM    9  C   UNL     1       6.546  27.825  53.200  1.00  0.00     0.048 C 
BRANCH   7  10
HETATM   10  C   UNL     1       4.966  27.170  49.911  1.00  0.00     0.109 A 
HETATM   11  N   UNL     1       4.288  26.170  49.321  1.00  0.00    -0.224 NA
HETATM   12  C   UNL     1       3.731  26.398  48.107  1.00  0.00     0.102 A 
HETATM   13  N   UNL     1       3.831  27.567  47.461  1.00  0.00    -0.348 N 
HETATM   14  C   UNL     1       3.015  25.268  47.435  1.00  0.00     0.091 C 
HETATM   15  C   UNL     1       4.498  28.588  48.022  1.00  0.00     0.009 A 
HETATM   16  H   UNL     1       3.406  27.669  46.540  1.00  0.00     0.167 HD
HETATM   17  C   UNL     1       4.611  29.878  47.277  1.00  0.00     0.068 C 
HETATM   18  C   UNL     1       5.088  28.400  49.272  1.00  0.00     0.069 A 
ENDBRANCH   7  10
ENDBRANCH   1   4
BRANCH   1  19
HETATM   19  C   UNL     1       5.458  24.950  55.644  1.00  0.00     0.277 C 
BRANCH  19  20
HETATM   20  C   UNL     1       6.720  24.850  56.419  1.00  0.00     0.016 A 
HETATM   21  C   UNL     1       7.761  23.880  56.295  1.00  0.00     0.096 A 
HETATM   22  N   UNL     1       8.687  24.054  57.244  1.00  0.00    -0.174 NA
HETATM   23  N   UNL     1       8.335  25.179  57.877  1.00  0.00    -0.288 N 
HETATM   24  H   UNL     1       8.948  25.534  58.608  1.00  0.00     0.188 HD
HETATM   25  C   UNL     1       7.141  25.677  57.442  1.00  0.00     0.120 A 
BRANCH  21  26
HETATM   26  C   UNL     1       7.870  22.772  55.351  1.00  0.00    -0.005 A 
HETATM   27  C   UNL     1       8.154  23.007  54.000  1.00  0.00     0.014 A 
HETATM   28  C   UNL     1       8.278  21.937  53.109  1.00  0.00     0.001 A 
HETATM   29  C   UNL     1       8.125  20.629  53.566  1.00  0.00     0.000 A 
HETATM   30  C   UNL     1       7.856  20.386  54.912  1.00  0.00     0.001 A 
HETATM   31  C   UNL     1       7.731  21.453  55.802  1.00  0.00     0.014 A 
ENDBRANCH  21  26
ENDBRANCH  19  20
ENDBRANCH   1  19
TORSDOF 5
ENDMDL
MODEL 2
REMARK VINA RESULT:      -9.8      3.354      7.374
REMARK  5 active torsions:
REMARK  status: ('A' for Active; 'I' for Inactive)
REMARK    1  A    between atoms: C_8  and  N_9 
REMARK    2  A    between atoms: C_12  and  N_13 
REMARK    3  A    between atoms: N_13  and  C_15 
REMARK    4  A    between atoms: C_15  and  C_16 
REMARK    5  A    between atoms: C_17  and  C_18 
ROOT
HETATM    1  N   UNL     1       5.488  26.038  55.522  1.00  0.00    -0.067 N 
HETATM    2  H   UNL     1       4.800  26.744  55.230  1.00  0.00     0.280 HD
HETATM    3  C   UNL     1       5.098  25.617  56.923  1.00  0.00     0.270 C 
ENDROOT
BRANCH   1   4
HETATM    4  C   UNL     1       6.909  26.620  55.385  1.00  0.00     0.190 C 
HETATM    5  C   UNL     1       6.856  28.099  54.964  1.00  0.00     0.048 C 
HETATM    6  C   UNL     1       6.515  29.046  56.116  1.00  0.00     0.099 C 
HETATM    7  N   UNL     1       7.444  28.803  57.227  1.00  0.00    -0.268 NA
HETATM    8  C   UNL     1       7.408  27.438  57.760  1.00  0.00     0.099 C 
HETATM    9  C   UNL     1       7.780  26.467  56.642  1.00  0.00     0.048 C 
BRANCH   7  10
HETATM   10  C   UNL     1       7.470  29.819  58.196  1.00  0.00     0.109 A 
HETATM   11  N   UNL     1       8.375  29.768  59.189  1.00  0.00    -0.224 NA
HETATM   12  C   UNL     1       8.332  30.724  60.149  1.00  0.00     0.102 A 
HETATM   13  N   UNL     1       7.427  31.711  60.161  1.00  0.00    -0.348 N 
HETATM   14  C   UNL     1       9.313  30.639  61.275  1.00  0.00     0.091 C 
HETATM   15  C   UNL     1       6.511  31.794  59.184  1.00  0.00     0.009 A 
HETATM   16  H   UNL     1       7.434  32.389  60.922  1.00  0.00     0.167 HD
HETATM   17  C   UNL     1       5.499  32.893  59.226  1.00  0.00     0.068 C 
HETATM   18  C   UNL     1       6.516  30.831  58.173  1.00  0.00     0.069 A 
ENDBRANCH   7  10
ENDBRANCH   1   4
BRANCH   1  19
HETATM   19  C   UNL     1       5.285  24.850  54.564  1.00  0.00     0.277 C 
BRANCH  19  20
HETATM   20  C   UNL     1       6.066  24.954  53.306  1.00  0.00     0.016 A 
HETATM   21  C   UNL     1       7.184  24.168  52.890  1.00  0.00     0.096 A 
HETATM   22  N   UNL     1       7.690  24.634  51.743  1.00  0.00    -0.174 NA
HETATM   23  N   UNL     1       6.851  25.601  51.355  1.00  0.00    -0.288 N 
HETATM   24  H   UNL     1       7.018  26.054  50.459  1.00  0.00     0.188 HD
HETATM   25  C   UNL     1       5.878  25.857  52.277  1.00  0.00     0.120 A 
BRANCH  21  26
HETATM   26  C   UNL     1       7.810  23.039  53.570  1.00  0.00    -0.005 A 
HETATM   27  C   UNL     1       8.398  23.199  54.831  1.00  0.00     0.014 A 
HETATM   28  C   UNL     1       8.976  22.106  55.483  1.00  0.00     0.001 A 
HETATM   29  C   UNL     1       8.961  20.848  54.881  1.00  0.00     0.000 A 
HETATM   30  C   UNL     1       8.365  20.678  53.633  1.00  0.00     0.001 A 
HETATM   31  C   UNL     1       7.790  21.769  52.980  1.00  0.00     0.014 A 
ENDBRANCH  21  26
ENDBRANCH  19  20
ENDBRANCH   1  19
TORSDOF 5
ENDMDL
MODEL 3
REMARK VINA RESULT:      -9.5      3.507      6.847
REMARK  5 active torsions:
REMARK  status: ('A' for Active; 'I' for Inactive)
REMARK    1  A    between atoms: C_8  and  N_9 
REMARK    2  A    between atoms: C_12  and  N_13 
REMARK    3  A    between atoms: N_13  and  C_15 
REMARK    4  A    between atoms: C_15  and  C_16 
REMARK    5  A    between atoms: C_17  and  C_18 
ROOT
HETATM    1  N   UNL     1       6.318  26.703  54.754  1.00  0.00    -0.067 N 
HETATM    2  H   UNL     1       7.118  27.075  55.282  1.00  0.00     0.280 HD
HETATM    3  C   UNL     1       6.796  26.524  53.328  1.00  0.00     0.270 C 
ENDROOT
BRANCH   1   4
HETATM    4  C   UNL     1       5.110  27.645  54.926  1.00  0.00     0.190 C 
HETATM    5  C   UNL     1       4.550  27.562  56.356  1.00  0.00     0.048 C 
HETATM    6  C   UNL     1       5.379  28.342  57.378  1.00  0.00     0.099 C 
HETATM    7  N   UNL     1       5.541  29.725  56.909  1.00  0.00    -0.268 NA
HETATM    8  C   UNL     1       6.216  29.850  55.613  1.00  0.00     0.099 C 
HETATM    9  C   UNL     1       5.394  29.111  54.561  1.00  0.00     0.048 C 
BRANCH   7  10
HETATM   10  C   UNL     1       5.973  30.626  57.895  1.00  0.00     0.109 A 
HETATM   11  N   UNL     1       5.093  31.479  58.448  1.00  0.00    -0.224 NA
HETATM   12  C   UNL     1       5.552  32.385  59.346  1.00  0.00     0.102 A 
HETATM   13  N   UNL     1       6.840  32.479  59.701  1.00  0.00    -0.348 N 
HETATM   14  C   UNL     1       4.576  33.359  59.927  1.00  0.00     0.091 C 
HETATM   15  C   UNL     1       7.745  31.642  59.170  1.00  0.00     0.009 A 
HETATM   16  H   UNL     1       7.126  33.195  60.367  1.00  0.00     0.167 HD
HETATM   17  C   UNL     1       9.179  31.775  59.567  1.00  0.00     0.068 C 
HETATM   18  C   UNL     1       7.319  30.691  58.241  1.00  0.00     0.069 A 
ENDBRANCH   7  10
ENDBRANCH   1   4
BRANCH   1  19
HETATM   19  C   UNL     1       6.030  25.321  55.365  1.00  0.00     0.277 C 
BRANCH  19  20
HETATM   20  C   UNL     1       7.079  24.849  56.304  1.00  0.00     0.016 A 
HETATM   21  C   UNL     1       7.887  23.675  56.211  1.00  0.00     0.096 A 
HETATM   22  N   UNL     1       8.643  23.532  57.305  1.00  0.00    -0.174 NA
HETATM   23  N   UNL     1       8.437  24.642  58.023  1.00  0.00    -0.288 N 
HETATM   24  H   UNL     1       8.971  24.769  58.880  1.00  0.00     0.188 HD
HETATM   25  C   UNL     1       7.480  25.450  57.482  1.00  0.00     0.120 A 
BRANCH  21  26
HETATM   26  C   UNL     1       7.919  22.669  55.154  1.00  0.00    -0.005 A 
HETATM   27  C   UNL     1       8.033  23.045  53.810  1.00  0.00     0.014 A 
HETATM   28  C   UNL     1       8.085  22.072  52.808  1.00  0.00     0.001 A 
HETATM   29  C   UNL     1       8.031  20.720  53.145  1.00  0.00     0.000 A 
HETATM   30  C   UNL     1       7.932  20.338  54.482  1.00  0.00     0.001 A 
HETATM   31  C   UNL     1       7.878  21.308  55.483  1.00  0.00     0.014 A 
ENDBRANCH  21  26
ENDBRANCH  19  20
ENDBRANCH   1  19
TORSDOF 5
ENDMDL
MODEL 4
REMARK VINA RESULT:      -9.4      3.233      6.325
REMARK  5 active torsions:
REMARK  status: ('A' for Active; 'I' for Inactive)
REMARK    1  A    between atoms: C_8  and  N_9 
REMARK    2  A    between atoms: C_12  and  N_13 
REMARK    3  A    between atoms: N_13  and  C_15 
REMARK    4  A    between atoms: C_15  and  C_16 
REMARK    5  A    between atoms: C_17  and  C_18 
ROOT
HETATM    1  N   UNL     1       6.023  25.606  54.179  1.00  0.00    -0.067 N 
HETATM    2  H   UNL     1       7.048  25.584  54.105  1.00  0.00     0.280 HD
HETATM    3  C   UNL     1       5.498  24.653  53.127  1.00  0.00     0.270 C 
ENDROOT
BRANCH   1   4
HETATM    4  C   UNL     1       5.533  27.062  54.046  1.00  0.00     0.190 C 
HETATM    5  C   UNL     1       4.958  27.571  55.379  1.00  0.00     0.048 C 
HETATM    6  C   UNL     1       6.034  27.964  56.393  1.00  0.00     0.099 C 
HETATM    7  N   UNL     1       6.955  28.922  55.767  1.00  0.00    -0.268 NA
HETATM    8  C   UNL     1       7.643  28.412  54.577  1.00  0.00     0.099 C 
HETATM    9  C   UNL     1       6.596  28.043  53.529  1.00  0.00     0.048 C 
BRANCH   7  10
HETATM   10  C   UNL     1       7.770  29.620  56.672  1.00  0.00     0.109 A 
HETATM   11  N   UNL     1       9.108  29.536  56.565  1.00  0.00    -0.224 NA
HETATM   12  C   UNL     1       9.869  30.163  57.494  1.00  0.00     0.102 A 
HETATM   13  N   UNL     1       9.354  30.854  58.519  1.00  0.00    -0.348 N 
HETATM   14  C   UNL     1      11.356  30.031  57.395  1.00  0.00     0.091 C 
HETATM   15  C   UNL     1       8.023  30.961  58.656  1.00  0.00     0.009 A 
HETATM   16  H   UNL     1       9.980  31.287  59.197  1.00  0.00     0.167 HD
HETATM   17  C   UNL     1       7.470  31.723  59.816  1.00  0.00     0.068 C 
HETATM   18  C   UNL     1       7.198  30.332  57.722  1.00  0.00     0.069 A 
ENDBRANCH   7  10
ENDBRANCH   1   4
BRANCH   1  19
HETATM   19  C   UNL     1       5.702  25.043  55.575  1.00  0.00     0.277 C 
BRANCH  19  20
HETATM   20  C   UNL     1       6.904  24.750  56.395  1.00  0.00     0.016 A 
HETATM   21  C   UNL     1       7.863  23.706  56.219  1.00  0.00     0.096 A 
HETATM   22  N   UNL     1       8.744  23.698  57.225  1.00  0.00    -0.174 NA
HETATM   23  N   UNL     1       8.455  24.780  57.956  1.00  0.00    -0.288 N 
HETATM   24  H   UNL     1       9.053  25.001  58.748  1.00  0.00     0.188 HD
HETATM   25  C   UNL     1       7.336  25.427  57.519  1.00  0.00     0.120 A 
BRANCH  21  26
HETATM   26  C   UNL     1       7.929  22.694  55.169  1.00  0.00    -0.005 A 
HETATM   27  C   UNL     1       8.242  23.049  53.851  1.00  0.00     0.014 A 
HETATM   28  C   UNL     1       8.324  22.069  52.858  1.00  0.00     0.001 A 
HETATM   29  C   UNL     1       8.103  20.730  53.180  1.00  0.00     0.000 A 
HETATM   30  C   UNL     1       7.806  20.367  54.492  1.00  0.00     0.001 A 
HETATM   31  C   UNL     1       7.721  21.345  55.484  1.00  0.00     0.014 A 
ENDBRANCH  21  26
ENDBRANCH  19  20
ENDBRANCH   1  19
TORSDOF 5
ENDMDL
MODEL 5
REMARK VINA RESULT:      -9.3      4.605      8.379
REMARK  5 active torsions:
REMARK  status: ('A' for Active; 'I' for Inactive)
REMARK    1  A    between atoms: C_8  and  N_9 
REMARK    2  A    between atoms: C_12  and  N_13 
REMARK    3  A    between atoms: N_13  and  C_15 
REMARK    4  A    between atoms: C_15  and  C_16 
REMARK    5  A    between atoms: C_17  and  C_18 
ROOT
HETATM    1  N   UNL     1       6.996  27.701  56.357  1.00  0.00    -0.067 N 
HETATM    2  H   UNL     1       5.969  27.674  56.398  1.00  0.00     0.280 HD
HETATM    3  C   UNL     1       7.491  27.149  57.676  1.00  0.00     0.270 C 
ENDROOT
BRANCH   1   4
HETATM    4  C   UNL     1       7.455  29.137  56.034  1.00  0.00     0.190 C 
HETATM    5  C   UNL     1       6.273  30.119  56.105  1.00  0.00     0.048 C 
HETATM    6  C   UNL     1       5.885  30.501  57.534  1.00  0.00     0.099 C 
HETATM    7  N   UNL     1       7.077  30.993  58.239  1.00  0.00    -0.268 NA
HETATM    8  C   UNL     1       8.172  30.022  58.328  1.00  0.00     0.099 C 
HETATM    9  C   UNL     1       8.608  29.646  56.914  1.00  0.00     0.048 C 
BRANCH   7  10
HETATM   10  C   UNL     1       6.804  31.692  59.425  1.00  0.00     0.109 A 
HETATM   11  N   UNL     1       7.652  31.596  60.464  1.00  0.00    -0.224 NA
HETATM   12  C   UNL     1       7.327  32.225  61.620  1.00  0.00     0.102 A 
HETATM   13  N   UNL     1       6.199  32.929  61.781  1.00  0.00    -0.348 N 
HETATM   14  C   UNL     1       8.253  32.080  62.787  1.00  0.00     0.091 C 
HETATM   15  C   UNL     1       5.331  33.047  60.764  1.00  0.00     0.009 A 
HETATM   16  H   UNL     1       6.002  33.363  62.682  1.00  0.00     0.167 HD
HETATM   17  C   UNL     1       4.071  33.824  60.969  1.00  0.00     0.068 C 
HETATM   18  C   UNL     1       5.623  32.417  59.553  1.00  0.00     0.069 A 
ENDBRANCH   7  10
ENDBRANCH   1   4
BRANCH   1  19
HETATM   19  C   UNL     1       7.385  26.732  55.226  1.00  0.00     0.277 C 
BRANCH  19  20
HETATM   20  C   UNL     1       6.227  26.206  54.461  1.00  0.00     0.016 A 
HETATM   21  C   UNL     1       6.023  24.884  53.961  1.00  0.00     0.096 A 
HETATM   22  N   UNL     1       4.909  24.822  53.225  1.00  0.00    -0.174 NA
HETATM   23  N   UNL     1       4.335  26.024  53.352  1.00  0.00    -0.288 N 
HETATM   24  H   UNL     1       3.430  26.176  52.914  1.00  0.00     0.188 HD
HETATM   25  C   UNL     1       5.105  26.904  54.056  1.00  0.00     0.120 A 
BRANCH  21  26
HETATM   26  C   UNL     1       6.874  23.708  54.114  1.00  0.00    -0.005 A 
HETATM   27  C   UNL     1       7.125  23.164  55.380  1.00  0.00     0.014 A 
HETATM   28  C   UNL     1       7.924  22.025  55.512  1.00  0.00     0.001 A 
HETATM   29  C   UNL     1       8.469  21.421  54.380  1.00  0.00     0.000 A 
HETATM   30  C   UNL     1       8.212  21.947  53.115  1.00  0.00     0.001 A 
HETATM   31  C   UNL     1       7.416  23.086  52.982  1.00  0.00     0.014 A 
ENDBRANCH  21  26
ENDBRANCH  19  20
ENDBRANCH   1  19
TORSDOF 5
ENDMDL
MODEL 6
REMARK VINA RESULT:      -9.1      3.597      8.073
REMARK  5 active torsions:
REMARK  status: ('A' for Active; 'I' for Inactive)
REMARK    1  A    between atoms: C_8  and  N_9 
REMARK    2  A    between atoms: C_12  and  N_13 
REMARK    3  A    between atoms: N_13  and  C_15 
REMARK    4  A    between atoms: C_15  and  C_16 
REMARK    5  A    between atoms: C_17  and  C_18 
ROOT
HETATM    1  N   UNL     1       5.541  28.498  54.045  1.00  0.00    -0.067 N 
HETATM    2  H   UNL     1       5.531  29.490  54.316  1.00  0.00     0.280 HD
HETATM    3  C   UNL     1       4.093  28.072  53.929  1.00  0.00     0.270 C 
ENDROOT
BRANCH   1   4
HETATM    4  C   UNL     1       6.378  27.700  55.064  1.00  0.00     0.190 C 
HETATM    5  C   UNL     1       7.755  28.354  55.275  1.00  0.00     0.048 C 
HETATM    6  C   UNL     1       7.709  29.582  56.185  1.00  0.00     0.099 C 
HETATM    7  N   UNL     1       7.052  29.220  57.448  1.00  0.00    -0.268 NA
HETATM    8  C   UNL     1       5.676  28.737  57.298  1.00  0.00     0.099 C 
HETATM    9  C   UNL     1       5.689  27.487  56.422  1.00  0.00     0.048 C 
BRANCH   7  10
HETATM   10  C   UNL     1       7.250  30.138  58.491  1.00  0.00     0.109 A 
HETATM   11  N   UNL     1       8.264  29.954  59.355  1.00  0.00    -0.224 NA
HETATM   12  C   UNL     1       8.389  30.816  60.394  1.00  0.00     0.102 A 
HETATM   13  N   UNL     1       7.548  31.836  60.606  1.00  0.00    -0.348 N 
HETATM   14  C   UNL     1       9.493  30.582  61.377  1.00  0.00     0.091 C 
HETATM   15  C   UNL     1       6.527  32.050  59.762  1.00  0.00     0.009 A 
HETATM   16  H   UNL     1       7.684  32.437  61.417  1.00  0.00     0.167 HD
HETATM   17  C   UNL     1       5.590  33.184  60.028  1.00  0.00     0.068 C 
HETATM   18  C   UNL     1       6.358  31.188  58.678  1.00  0.00     0.069 A 
ENDBRANCH   7  10
ENDBRANCH   1   4
BRANCH   1  19
HETATM   19  C   UNL     1       6.191  28.462  52.650  1.00  0.00     0.277 C 
BRANCH  19  20
HETATM   20  C   UNL     1       5.473  27.601  51.677  1.00  0.00     0.016 A 
HETATM   21  C   UNL     1       5.542  26.182  51.530  1.00  0.00     0.096 A 
HETATM   22  N   UNL     1       4.836  25.781  50.468  1.00  0.00    -0.174 NA
HETATM   23  N   UNL     1       4.218  26.879  50.020  1.00  0.00    -0.288 N 
HETATM   24  H   UNL     1       3.570  26.785  49.241  1.00  0.00     0.188 HD
HETATM   25  C   UNL     1       4.595  28.007  50.690  1.00  0.00     0.120 A 
BRANCH  21  26
HETATM   26  C   UNL     1       6.296  25.217  52.325  1.00  0.00    -0.005 A 
HETATM   27  C   UNL     1       7.572  24.801  51.926  1.00  0.00     0.014 A 
HETATM   28  C   UNL     1       8.293  23.894  52.707  1.00  0.00     0.001 A 
HETATM   29  C   UNL     1       7.746  23.405  53.893  1.00  0.00     0.000 A 
HETATM   30  C   UNL     1       6.482  23.826  54.304  1.00  0.00     0.001 A 
HETATM   31  C   UNL     1       5.760  24.730  53.524  1.00  0.00     0.014 A 
ENDBRANCH  21  26
ENDBRANCH  19  20
ENDBRANCH   1  19
TORSDOF 5
ENDMDL
MODEL 7
REMARK VINA RESULT:      -9.1      2.412      3.597
REMARK  5 active torsions:
REMARK  status: ('A' for Active; 'I' for Inactive)
REMARK    1  A    between atoms: C_8  and  N_9 
REMARK    2  A    between atoms: C_12  and  N_13 
REMARK    3  A    between atoms: N_13  and  C_15 
REMARK    4  A    between atoms: C_15  and  C_16 
REMARK    5  A    between atoms: C_17  and  C_18 
ROOT
HETATM    1  N   UNL     1       6.189  26.180  56.415  1.00  0.00    -0.067 N 
HETATM    2  H   UNL     1       5.953  25.797  55.490  1.00  0.00     0.280 HD
HETATM    3  C   UNL     1       5.204  25.573  57.391  1.00  0.00     0.270 C 
ENDROOT
BRANCH   1   4
HETATM    4  C   UNL     1       6.179  27.720  56.347  1.00  0.00     0.190 C 
HETATM    5  C   UNL     1       7.152  28.227  55.269  1.00  0.00     0.048 C 
HETATM    6  C   UNL     1       6.599  28.103  53.848  1.00  0.00     0.099 C 
HETATM    7  N   UNL     1       5.286  28.758  53.785  1.00  0.00    -0.268 NA
HETATM    8  C   UNL     1       4.283  28.195  54.693  1.00  0.00     0.099 C 
HETATM    9  C   UNL     1       4.789  28.335  56.127  1.00  0.00     0.048 C 
BRANCH   7  10
HETATM   10  C   UNL     1       4.829  29.021  52.484  1.00  0.00     0.109 A 
HETATM   11  N   UNL     1       5.669  29.555  51.579  1.00  0.00    -0.224 NA
HETATM   12  C   UNL     1       5.182  29.863  50.352  1.00  0.00     0.102 A 
HETATM   13  N   UNL     1       3.905  29.672  50.000  1.00  0.00    -0.348 N 
HETATM   14  C   UNL     1       6.110  30.496  49.363  1.00  0.00     0.091 C 
HETATM   15  C   UNL     1       3.040  29.139  50.877  1.00  0.00     0.009 A 
HETATM   16  H   UNL     1       3.595  29.943  49.068  1.00  0.00     0.167 HD
HETATM   17  C   UNL     1       1.614  28.950  50.469  1.00  0.00     0.068 C 
HETATM   18  C   UNL     1       3.495  28.805  52.153  1.00  0.00     0.069 A 
ENDBRANCH   7  10
ENDBRANCH   1   4
BRANCH   1  19
HETATM   19  C   UNL     1       7.600  25.651  56.728  1.00  0.00     0.277 C 
BRANCH  19  20
HETATM   20  C   UNL     1       7.823  24.247  56.299  1.00  0.00     0.016 A 
HETATM   21  C   UNL     1       7.518  23.647  55.039  1.00  0.00     0.096 A 
HETATM   22  N   UNL     1       7.763  22.333  55.068  1.00  0.00    -0.174 NA
HETATM   23  N   UNL     1       8.335  22.107  56.256  1.00  0.00    -0.288 N 
HETATM   24  H   UNL     1       8.663  21.167  56.464  1.00  0.00     0.188 HD
HETATM   25  C   UNL     1       8.362  23.219  57.048  1.00  0.00     0.120 A 
BRANCH  21  26
HETATM   26  C   UNL     1       6.955  24.268  53.844  1.00  0.00    -0.005 A 
HETATM   27  C   UNL     1       7.776  24.627  52.768  1.00  0.00     0.014 A 
HETATM   28  C   UNL     1       7.223  25.201  51.620  1.00  0.00     0.001 A 
HETATM   29  C   UNL     1       5.846  25.411  51.540  1.00  0.00     0.000 A 
HETATM   30  C   UNL     1       5.021  25.042  52.601  1.00  0.00     0.001 A 
HETATM   31  C   UNL     1       5.572  24.471  53.748  1.00  0.00     0.014 A 
ENDBRANCH  21  26
ENDBRANCH  19  20
ENDBRANCH   1  19
TORSDOF 5
ENDMDL
MODEL 8
REMARK VINA RESULT:      -9.0      1.094      2.179
REMARK  5 active torsions:
REMARK  status: ('A' for Active; 'I' for Inactive)
REMARK    1  A    between atoms: C_8  and  N_9 
REMARK    2  A    between atoms: C_12  and  N_13 
REMARK    3  A    between atoms: N_13  and  C_15 
REMARK    4  A    between atoms: C_15  and  C_16 
REMARK    5  A    between atoms: C_17  and  C_18 
ROOT
HETATM    1  N   UNL     1       6.882  26.923  54.908  1.00  0.00    -0.067 N 
HETATM    2  H   UNL     1       7.027  27.145  55.901  1.00  0.00     0.280 HD
HETATM    3  C   UNL     1       7.598  27.999  54.120  1.00  0.00     0.270 C 
ENDROOT
BRANCH   1   4
HETATM    4  C   UNL     1       5.371  26.803  54.627  1.00  0.00     0.190 C 
HETATM    5  C   UNL     1       4.809  28.124  54.074  1.00  0.00     0.048 C 
HETATM    6  C   UNL     1       5.127  28.345  52.594  1.00  0.00     0.099 C 
HETATM    7  N   UNL     1       4.682  27.172  51.828  1.00  0.00    -0.268 NA
HETATM    8  C   UNL     1       5.317  25.912  52.227  1.00  0.00     0.099 C 
HETATM    9  C   UNL     1       4.990  25.643  53.694  1.00  0.00     0.048 C 
BRANCH   7  10
HETATM   10  C   UNL     1       4.594  27.382  50.443  1.00  0.00     0.109 A 
HETATM   11  N   UNL     1       4.877  28.594  49.934  1.00  0.00    -0.224 NA
HETATM   12  C   UNL     1       4.715  28.786  48.602  1.00  0.00     0.102 A 
HETATM   13  N   UNL     1       4.278  27.832  47.771  1.00  0.00    -0.348 N 
HETATM   14  C   UNL     1       4.990  30.149  48.048  1.00  0.00     0.091 C 
HETATM   15  C   UNL     1       3.989  26.610  48.244  1.00  0.00     0.009 A 
HETATM   16  H   UNL     1       4.158  28.045  46.781  1.00  0.00     0.167 HD
HETATM   17  C   UNL     1       3.487  25.565  47.301  1.00  0.00     0.068 C 
HETATM   18  C   UNL     1       4.141  26.364  49.609  1.00  0.00     0.069 A 
ENDBRANCH   7  10
ENDBRANCH   1   4
BRANCH   1  19
HETATM   19  C   UNL     1       7.592  25.576  54.682  1.00  0.00     0.277 C 
BRANCH  19  20
HETATM   20  C   UNL     1       8.001  24.896  55.937  1.00  0.00     0.016 A 
HETATM   21  C   UNL     1       8.274  23.509  56.144  1.00  0.00     0.096 A 
HETATM   22  N   UNL     1       8.505  23.260  57.437  1.00  0.00    -0.174 NA
HETATM   23  N   UNL     1       8.517  24.458  58.031  1.00  0.00    -0.288 N 
HETATM   24  H   UNL     1       8.740  24.504  59.022  1.00  0.00     0.188 HD
HETATM   25  C   UNL     1       8.185  25.472  57.179  1.00  0.00     0.120 A 
BRANCH  21  26
HETATM   26  C   UNL     1       8.266  22.422  55.170  1.00  0.00    -0.005 A 
HETATM   27  C   UNL     1       7.983  22.668  53.821  1.00  0.00     0.014 A 
HETATM   28  C   UNL     1       7.999  21.623  52.895  1.00  0.00     0.001 A 
HETATM   29  C   UNL     1       8.308  20.328  53.310  1.00  0.00     0.000 A 
HETATM   30  C   UNL     1       8.606  20.076  54.648  1.00  0.00     0.001 A 
HETATM   31  C   UNL     1       8.587  21.119  55.575  1.00  0.00     0.014 A 
ENDBRANCH  21  26
ENDBRANCH  19  20
ENDBRANCH   1  19
TORSDOF 5
ENDMDL
MODEL 9
REMARK VINA RESULT:      -8.9      2.745      6.744
REMARK  5 active torsions:
REMARK  status: ('A' for Active; 'I' for Inactive)
REMARK    1  A    between atoms: C_8  and  N_9 
REMARK    2  A    between atoms: C_12  and  N_13 
REMARK    3  A    between atoms: N_13  and  C_15 
REMARK    4  A    between atoms: C_15  and  C_16 
REMARK    5  A    between atoms: C_17  and  C_18 
ROOT
HETATM    1  N   UNL     1       4.593  28.091  53.334  1.00  0.00    -0.067 N 
HETATM    2  H   UNL     1       4.553  27.465  54.148  1.00  0.00     0.280 HD
HETATM    3  C   UNL     1       3.177  28.202  52.811  1.00  0.00     0.270 C 
ENDROOT
BRANCH   1   4
HETATM    4  C   UNL     1       5.623  27.549  52.323  1.00  0.00     0.190 C 
HETATM    5  C   UNL     1       7.023  27.467  52.957  1.00  0.00     0.048 C 
HETATM    6  C   UNL     1       7.202  26.259  53.877  1.00  0.00     0.099 C 
HETATM    7  N   UNL     1       6.837  25.039  53.144  1.00  0.00    -0.268 NA
HETATM    8  C   UNL     1       5.454  25.016  52.658  1.00  0.00     0.099 C 
HETATM    9  C   UNL     1       5.251  26.192  51.706  1.00  0.00     0.048 C 
BRANCH   7  10
HETATM   10  C   UNL     1       7.278  23.848  53.741  1.00  0.00     0.109 A 
HETATM   11  N   UNL     1       7.483  23.806  55.070  1.00  0.00    -0.224 NA
HETATM   12  C   UNL     1       7.976  22.664  55.609  1.00  0.00     0.102 A 
HETATM   13  N   UNL     1       8.278  21.580  54.883  1.00  0.00    -0.348 N 
HETATM   14  C   UNL     1       8.243  22.637  57.081  1.00  0.00     0.091 C 
HETATM   15  C   UNL     1       8.083  21.587  53.555  1.00  0.00     0.009 A 
HETATM   16  H   UNL     1       8.665  20.758  55.345  1.00  0.00     0.167 HD
HETATM   17  C   UNL     1       8.442  20.372  52.761  1.00  0.00     0.068 C 
HETATM   18  C   UNL     1       7.577  22.740  52.954  1.00  0.00     0.069 A 
ENDBRANCH   7  10
ENDBRANCH   1   4
BRANCH   1  19
HETATM   19  C   UNL     1       5.034  29.457  53.890  1.00  0.00     0.277 C 
BRANCH  19  20
HETATM   20  C   UNL     1       4.357  29.836  55.156  1.00  0.00     0.016 A 
HETATM   21  C   UNL     1       4.518  29.259  56.453  1.00  0.00     0.096 A 
HETATM   22  N   UNL     1       3.654  29.796  57.321  1.00  0.00    -0.174 NA
HETATM   23  N   UNL     1       3.048  30.782  56.650  1.00  0.00    -0.288 N 
HETATM   24  H   UNL     1       2.385  31.370  57.150  1.00  0.00     0.188 HD
HETATM   25  C   UNL     1       3.410  30.825  55.335  1.00  0.00     0.120 A 
BRANCH  21  26
HETATM   26  C   UNL     1       5.415  28.186  56.871  1.00  0.00    -0.005 A 
HETATM   27  C   UNL     1       4.992  26.851  56.859  1.00  0.00     0.014 A 
HETATM   28  C   UNL     1       5.868  25.831  57.241  1.00  0.00     0.001 A 
HETATM   29  C   UNL     1       7.172  26.140  57.627  1.00  0.00     0.000 A 
HETATM   30  C   UNL     1       7.605  27.464  57.627  1.00  0.00     0.001 A 
HETATM   31  C   UNL     1       6.731  28.484  57.248  1.00  0.00     0.014 A 
ENDBRANCH  21  26
ENDBRANCH  19  20
ENDBRANCH   1  19
TORSDOF 5
ENDMDL
MODEL 10
REMARK VINA RESULT:      -8.8      3.452      7.062
REMARK  5 active torsions:
REMARK  status: ('A' for Active; 'I' for Inactive)
REMARK    1  A    between atoms: C_8  and  N_9 
REMARK    2  A    between atoms: C_12  and  N_13 
REMARK    3  A    between atoms: N_13  and  C_15 
REMARK    4  A    between atoms: C_15  and  C_16 
REMARK    5  A    between atoms: C_17  and  C_18 
ROOT
HETATM    1  N   UNL     1       5.397  25.992  55.332  1.00  0.00    -0.067 N 
HETATM    2  H   UNL     1       4.923  25.476  54.579  1.00  0.00     0.280 HD
HETATM    3  C   UNL     1       5.012  25.309  56.626  1.00  0.00     0.270 C 
ENDROOT
BRANCH   1   4
HETATM    4  C   UNL     1       5.021  27.485  55.242  1.00  0.00     0.190 C 
HETATM    5  C   UNL     1       4.713  28.056  56.637  1.00  0.00     0.048 C 
HETATM    6  C   UNL     1       5.967  28.361  57.458  1.00  0.00     0.099 C 
HETATM    7  N   UNL     1       6.857  29.226  56.671  1.00  0.00    -0.268 NA
HETATM    8  C   UNL     1       7.298  28.645  55.400  1.00  0.00     0.099 C 
HETATM    9  C   UNL     1       6.070  28.361  54.540  1.00  0.00     0.048 C 
BRANCH   7  10
HETATM   10  C   UNL     1       7.863  29.858  57.419  1.00  0.00     0.109 A 
HETATM   11  N   UNL     1       7.526  30.725  58.390  1.00  0.00    -0.224 NA
HETATM   12  C   UNL     1       8.519  31.372  59.048  1.00  0.00     0.102 A 
HETATM   13  N   UNL     1       9.817  31.198  58.772  1.00  0.00    -0.348 N 
HETATM   14  C   UNL     1       8.137  32.368  60.098  1.00  0.00     0.091 C 
HETATM   15  C   UNL     1      10.189  30.339  57.810  1.00  0.00     0.009 A 
HETATM   16  H   UNL     1      10.516  31.730  59.289  1.00  0.00     0.167 HD
HETATM   17  C   UNL     1      11.643  30.172  57.507  1.00  0.00     0.068 C 
HETATM   18  C   UNL     1       9.202  29.648  57.106  1.00  0.00     0.069 A 
ENDBRANCH   7  10
ENDBRANCH   1   4
BRANCH   1  19
HETATM   19  C   UNL     1       6.902  25.788  55.083  1.00  0.00     0.277 C 
BRANCH  19  20
HETATM   20  C   UNL     1       7.214  25.162  53.774  1.00  0.00     0.016 A 
HETATM   21  C   UNL     1       7.649  23.826  53.512  1.00  0.00     0.096 A 
HETATM   22  N   UNL     1       7.935  23.666  52.216  1.00  0.00    -0.174 NA
HETATM   23  N   UNL     1       7.571  24.812  51.630  1.00  0.00    -0.288 N 
HETATM   24  H   UNL     1       7.647  24.883  50.618  1.00  0.00     0.188 HD
HETATM   25  C   UNL     1       7.163  25.757  52.527  1.00  0.00     0.120 A 
BRANCH  21  26
HETATM   26  C   UNL     1       7.852  22.731  54.455  1.00  0.00    -0.005 A 
HETATM   27  C   UNL     1       7.820  21.399  54.025  1.00  0.00     0.014 A 
HETATM   28  C   UNL     1       8.038  20.359  54.933  1.00  0.00     0.001 A 
HETATM   29  C   UNL     1       8.297  20.647  56.273  1.00  0.00     0.000 A 
HETATM   30  C   UNL     1       8.345  21.970  56.706  1.00  0.00     0.001 A 
HETATM   31  C   UNL     1       8.126  23.009  55.801  1.00  0.00     0.014 A 
ENDBRANCH  21  26
ENDBRANCH  19  20
ENDBRANCH   1  19
TORSDOF 5
ENDMDL
