MODEL 1
REMARK VINA RESULT:     -10.5      0.000      0.000
REMARK  7 active torsions:
REMARK  status: ('A' for Active; 'I' for Inactive)
REMARK       I    between atoms: C_2  and  N_3 
REMARK    1  A    between atoms: N_3  and  C_4 
REMARK    2  A    between atoms: C_7  and  C_8 
REMARK    3  A    between atoms: C_8  and  N_9 
REMARK    4  A    between atoms: C_18  and  C_19 
REMARK    5  A    between atoms: C_19  and  N_20 
REMARK    6  A    between atoms: C_24  and  O_25 
REMARK    7  A    between atoms: O_25  and  C_26 
ROOT
HETATM    1  N   UNL     1       8.409  28.978  56.495  1.00  0.00    -0.061 N 
HETATM    2  H   UNL     1       7.803  28.705  55.713  1.00  0.00     0.280 HD
HETATM    3  C   UNL     1       7.743  30.208  57.071  1.00  0.00     0.276 C 
HETATM    4  C   UNL     1       8.337  30.742  58.344  1.00  0.00     0.002 A 
HETATM    5  C   UNL     1       9.652  31.208  58.368  1.00  0.00     0.076 A 
HETATM    6  O   UNL     1      10.422  31.202  57.239  1.00  0.00    -0.349 OA
HETATM    7  C   UNL     1      10.779  29.874  56.836  1.00  0.00     0.203 C 
HETATM    8  C   UNL     1       9.758  29.288  55.855  1.00  0.00     0.262 C 
HETATM    9  C   UNL     1       7.568  30.843  59.518  1.00  0.00     0.020 A 
HETATM   10  C   UNL     1       8.104  31.389  60.701  1.00  0.00    -0.032 A 
HETATM   11  C   UNL     1       9.425  31.859  60.685  1.00  0.00     0.011 A 
HETATM   12  C   UNL     1      10.190  31.779  59.519  1.00  0.00     0.038 A 
ENDROOT
BRANCH  10  13
HETATM   13  C   UNL     1       7.268  31.482  61.957  1.00  0.00     0.273 C 
BRANCH  13  14
HETATM   14  N   UNL     1       6.177  32.538  61.904  1.00  0.00    -0.067 N 
HETATM   15  H   UNL     1       6.236  32.975  60.975  1.00  0.00     0.280 HD
HETATM   16  C   UNL     1       4.792  31.950  62.051  1.00  0.00     0.237 C 
HETATM   17  C   UNL     1       3.741  33.050  61.996  1.00  0.00     0.060 C 
HETATM   18  C   UNL     1       3.984  34.104  63.076  1.00  0.00     0.132 C 
HETATM   19  C   UNL     1       5.381  34.693  62.879  1.00  0.00     0.060 C 
HETATM   20  C   UNL     1       6.453  33.616  62.937  1.00  0.00     0.237 C 
BRANCH  18  21
HETATM   21  O   UNL     1       3.969  33.504  64.377  1.00  0.00    -0.344 OA
BRANCH  21  22
HETATM   22  C   UNL     1       4.287  34.288  65.448  1.00  0.00     0.086 A 
HETATM   23  C   UNL     1       5.308  33.825  66.271  1.00  0.00     0.152 A 
HETATM   24  N   UNL     1       5.730  34.448  67.392  1.00  0.00    -0.270 NA
HETATM   25  C   UNL     1       5.144  35.629  67.681  1.00  0.00     0.116 A 
HETATM   26  C   UNL     1       4.144  36.195  66.905  1.00  0.00     0.022 A 
HETATM   27  C   UNL     1       3.707  35.509  65.771  1.00  0.00     0.039 A 
ENDBRANCH  21  22
ENDBRANCH  18  21
ENDBRANCH  13  14
ENDBRANCH  10  13
BRANCH   1  28
HETATM   28  C   UNL     1       8.449  27.755  57.388  1.00  0.00     0.273 C 
BRANCH  28  29
HETATM   29  C   UNL     1       8.135  26.452  56.702  1.00  0.00    -0.032 A 
HETATM   30  C   UNL     1       8.430  25.213  57.286  1.00  0.00     0.011 A 
HETATM   31  C   UNL     1       8.162  24.022  56.596  1.00  0.00     0.030 A 
HETATM   32  C   UNL     1       7.610  24.049  55.313  1.00  0.00     0.034 A 
HETATM   33  C   UNL     1       7.279  25.281  54.749  1.00  0.00     0.030 A 
HETATM   34  C   UNL     1       7.527  26.469  55.439  1.00  0.00     0.011 A 
BRANCH  32  35
HETATM   35  N   UNL     1       7.373  22.824  54.661  1.00  0.00    -0.328 N 
HETATM   36  C   UNL     1       8.335  22.003  54.097  1.00  0.00     0.218 C 
HETATM   37  C   UNL     1       7.751  20.869  53.291  1.00  0.00     0.117 C 
HETATM   38  O   UNL     1       9.549  22.120  54.253  1.00  0.00    -0.274 OA
HETATM   39  H   UNL     1       6.422  22.472  54.673  1.00  0.00     0.169 HD
ENDBRANCH  32  35
ENDBRANCH  28  29
ENDBRANCH   1  28
TORSDOF 7
ENDMDL
MODEL 2
REMARK VINA RESULT:     -10.5      2.558     12.505
REMARK  7 active torsions:
REMARK  status: ('A' for Active; 'I' for Inactive)
REMARK       I    between atoms: C_2  and  N_3 
REMARK    1  A    between atoms: N_3  and  C_4 
REMARK    2  A    between atoms: C_7  and  C_8 
REMARK    3  A    between atoms: C_8  and  N_9 
REMARK    4  A    between atoms: C_18  and  C_19 
REMARK    5  A    between atoms: C_19  and  N_20 
REMARK    6  A    between atoms: C_24  and  O_25 
REMARK    7  A    between atoms: O_25  and  C_26 
ROOT
HETATM    1  N   UNL     1       5.541  33.164  60.355  1.00  0.00    -0.061 N 
HETATM    2  H   UNL     1       6.106  33.966  60.656  1.00  0.00     0.280 HD
HETATM    3  C   UNL     1       6.102  32.803  58.997  1.00  0.00     0.276 C 
HETATM    4  C   UNL     1       5.559  31.549  58.373  1.00  0.00     0.002 A 
HETATM    5  C   UNL     1       4.204  31.448  58.053  1.00  0.00     0.076 A 
HETATM    6  O   UNL     1       3.348  32.488  58.284  1.00  0.00    -0.349 OA
HETATM    7  C   UNL     1       3.119  32.696  59.684  1.00  0.00     0.203 C 
HETATM    8  C   UNL     1       4.115  33.699  60.275  1.00  0.00     0.262 C 
HETATM    9  C   UNL     1       6.408  30.476  58.042  1.00  0.00     0.020 A 
HETATM   10  C   UNL     1       5.913  29.317  57.412  1.00  0.00    -0.032 A 
HETATM   11  C   UNL     1       4.549  29.257  57.093  1.00  0.00     0.011 A 
HETATM   12  C   UNL     1       3.702  30.324  57.402  1.00  0.00     0.038 A 
ENDROOT
BRANCH  10  13
HETATM   13  C   UNL     1       6.837  28.170  57.071  1.00  0.00     0.273 C 
BRANCH  13  14
HETATM   14  N   UNL     1       6.482  27.442  55.786  1.00  0.00    -0.067 N 
HETATM   15  H   UNL     1       5.683  27.944  55.375  1.00  0.00     0.280 HD
HETATM   16  C   UNL     1       7.609  27.463  54.777  1.00  0.00     0.237 C 
HETATM   17  C   UNL     1       7.202  26.719  53.513  1.00  0.00     0.060 C 
HETATM   18  C   UNL     1       6.799  25.278  53.823  1.00  0.00     0.132 C 
HETATM   19  C   UNL     1       5.642  25.298  54.824  1.00  0.00     0.060 C 
HETATM   20  C   UNL     1       6.024  26.030  56.102  1.00  0.00     0.237 C 
BRANCH  18  21
HETATM   21  O   UNL     1       7.878  24.578  54.456  1.00  0.00    -0.344 OA
BRANCH  21  22
HETATM   22  C   UNL     1       7.940  23.224  54.303  1.00  0.00     0.086 A 
HETATM   23  C   UNL     1       8.051  22.476  55.470  1.00  0.00     0.152 A 
HETATM   24  N   UNL     1       8.161  21.130  55.510  1.00  0.00    -0.270 NA
HETATM   25  C   UNL     1       8.099  20.486  54.326  1.00  0.00     0.116 A 
HETATM   26  C   UNL     1       7.953  21.137  53.110  1.00  0.00     0.022 A 
HETATM   27  C   UNL     1       7.875  22.530  53.100  1.00  0.00     0.039 A 
ENDBRANCH  21  22
ENDBRANCH  18  21
ENDBRANCH  13  14
ENDBRANCH  10  13
BRANCH   1  28
HETATM   28  C   UNL     1       5.723  32.135  61.452  1.00  0.00     0.273 C 
BRANCH  28  29
HETATM   29  C   UNL     1       6.059  32.700  62.807  1.00  0.00    -0.032 A 
HETATM   30  C   UNL     1       7.378  32.791  63.269  1.00  0.00     0.011 A 
HETATM   31  C   UNL     1       7.647  33.283  64.554  1.00  0.00     0.030 A 
HETATM   32  C   UNL     1       6.607  33.677  65.400  1.00  0.00     0.034 A 
HETATM   33  C   UNL     1       5.297  33.626  64.923  1.00  0.00     0.030 A 
HETATM   34  C   UNL     1       5.025  33.153  63.638  1.00  0.00     0.011 A 
BRANCH  32  35
HETATM   35  N   UNL     1       6.933  34.152  66.684  1.00  0.00    -0.328 N 
HETATM   36  C   UNL     1       6.044  34.357  67.726  1.00  0.00     0.218 C 
HETATM   37  C   UNL     1       6.661  35.068  68.904  1.00  0.00     0.117 C 
HETATM   38  O   UNL     1       4.877  33.969  67.751  1.00  0.00    -0.274 OA
HETATM   39  H   UNL     1       7.918  34.283  66.892  1.00  0.00     0.169 HD
ENDBRANCH  32  35
ENDBRANCH  28  29
ENDBRANCH   1  28
TORSDOF 7
ENDMDL
MODEL 3
REMARK VINA RESULT:     -10.4      3.381      5.154
REMARK  7 active torsions:
REMARK  status: ('A' for Active; 'I' for Inactive)
REMARK       I    between atoms: C_2  and  N_3 
REMARK    1  A    between atoms: N_3  and  C_4 
REMARK    2  A    between atoms: C_7  and  C_8 
REMARK    3  A    between atoms: C_8  and  N_9 
REMARK    4  A    between atoms: C_18  and  C_19 
REMARK    5  A    between atoms: C_19  and  N_20 
REMARK    6  A    between atoms: C_24  and  O_25 
REMARK    7  A    between atoms: O_25  and  C_26 
ROOT
HETATM    1  N   UNL     1       4.680  27.114  52.015  1.00  0.00    -0.061 N 
HETATM    2  H   UNL     1       4.404  26.183  51.685  1.00  0.00     0.280 HD
HETATM    3  C   UNL     1       3.869  27.317  53.276  1.00  0.00     0.276 C 
HETATM    4  C   UNL     1       4.187  28.552  54.071  1.00  0.00     0.002 A 
HETATM    5  C   UNL     1       3.994  29.818  53.516  1.00  0.00     0.076 A 
HETATM    6  O   UNL     1       3.503  29.963  52.249  1.00  0.00    -0.349 OA
HETATM    7  C   UNL     1       4.446  29.544  51.254  1.00  0.00     0.203 C 
HETATM    8  C   UNL     1       4.267  28.064  50.896  1.00  0.00     0.262 C 
HETATM    9  C   UNL     1       4.623  28.464  55.407  1.00  0.00     0.020 A 
HETATM   10  C   UNL     1       4.874  29.619  56.173  1.00  0.00    -0.032 A 
HETATM   11  C   UNL     1       4.658  30.874  55.587  1.00  0.00     0.011 A 
HETATM   12  C   UNL     1       4.209  30.970  54.267  1.00  0.00     0.038 A 
ENDROOT
BRANCH  10  13
HETATM   13  C   UNL     1       5.351  29.508  57.603  1.00  0.00     0.273 C 
BRANCH  13  14
HETATM   14  N   UNL     1       6.131  30.714  58.097  1.00  0.00    -0.067 N 
HETATM   15  H   UNL     1       6.355  31.279  57.268  1.00  0.00     0.280 HD
HETATM   16  C   UNL     1       5.325  31.579  59.041  1.00  0.00     0.237 C 
HETATM   17  C   UNL     1       6.153  32.768  59.508  1.00  0.00     0.060 C 
HETATM   18  C   UNL     1       7.447  32.312  60.184  1.00  0.00     0.132 C 
HETATM   19  C   UNL     1       8.245  31.464  59.192  1.00  0.00     0.060 C 
HETATM   20  C   UNL     1       7.442  30.263  58.714  1.00  0.00     0.237 C 
BRANCH  18  21
HETATM   21  O   UNL     1       7.157  31.469  61.307  1.00  0.00    -0.344 OA
BRANCH  21  22
HETATM   22  C   UNL     1       6.871  32.068  62.499  1.00  0.00     0.086 A 
HETATM   23  C   UNL     1       5.554  31.974  62.937  1.00  0.00     0.152 A 
HETATM   24  N   UNL     1       5.082  32.535  64.071  1.00  0.00    -0.270 NA
HETATM   25  C   UNL     1       5.983  33.176  64.845  1.00  0.00     0.116 A 
HETATM   26  C   UNL     1       7.325  33.294  64.516  1.00  0.00     0.022 A 
HETATM   27  C   UNL     1       7.774  32.732  63.321  1.00  0.00     0.039 A 
ENDBRANCH  21  22
ENDBRANCH  18  21
ENDBRANCH  13  14
ENDBRANCH  10  13
BRANCH   1  28
HETATM   28  C   UNL     1       6.182  27.027  52.189  1.00  0.00     0.273 C 
BRANCH  28  29
HETATM   29  C   UNL     1       6.678  25.760  52.833  1.00  0.00    -0.032 A 
HETATM   30  C   UNL     1       6.286  25.377  54.123  1.00  0.00     0.011 A 
HETATM   31  C   UNL     1       6.803  24.212  54.705  1.00  0.00     0.030 A 
HETATM   32  C   UNL     1       7.726  23.419  54.018  1.00  0.00     0.034 A 
HETATM   33  C   UNL     1       8.084  23.778  52.718  1.00  0.00     0.030 A 
HETATM   34  C   UNL     1       7.559  24.929  52.127  1.00  0.00     0.011 A 
BRANCH  32  35
HETATM   35  N   UNL     1       8.223  22.266  54.654  1.00  0.00    -0.328 N 
HETATM   36  C   UNL     1       8.042  20.960  54.229  1.00  0.00     0.218 C 
HETATM   37  C   UNL     1       8.513  19.937  55.232  1.00  0.00     0.117 C 
HETATM   38  O   UNL     1       7.594  20.625  53.134  1.00  0.00    -0.274 OA
HETATM   39  H   UNL     1       8.833  22.406  55.453  1.00  0.00     0.169 HD
ENDBRANCH  32  35
ENDBRANCH  28  29
ENDBRANCH   1  28
TORSDOF 7
ENDMDL
MODEL 4
REMARK VINA RESULT:     -10.1      1.971     12.025
REMARK  7 active torsions:
REMARK  status: ('A' for Active; 'I' for Inactive)
REMARK       I    between atoms: C_2  and  N_3 
REMARK    1  A    between atoms: N_3  and  C_4 
REMARK    2  A    between atoms: C_7  and  C_8 
REMARK    3  A    between atoms: C_8  and  N_9 
REMARK    4  A    between atoms: C_18  and  C_19 
REMARK    5  A    between atoms: C_19  and  N_20 
REMARK    6  A    between atoms: C_24  and  O_25 
REMARK    7  A    between atoms: O_25  and  C_26 
ROOT
HETATM    1  N   UNL     1       8.229  30.399  59.313  1.00  0.00    -0.061 N 
HETATM    2  H   UNL     1       8.031  30.263  60.311  1.00  0.00     0.280 HD
HETATM    3  C   UNL     1       7.996  29.037  58.698  1.00  0.00     0.276 C 
HETATM    4  C   UNL     1       8.066  28.973  57.198  1.00  0.00     0.002 A 
HETATM    5  C   UNL     1       9.253  29.282  56.532  1.00  0.00     0.076 A 
HETATM    6  O   UNL     1      10.377  29.635  57.225  1.00  0.00    -0.349 OA
HETATM    7  C   UNL     1      10.249  30.925  57.836  1.00  0.00     0.203 C 
HETATM    8  C   UNL     1       9.694  30.822  59.261  1.00  0.00     0.262 C 
HETATM    9  C   UNL     1       6.962  28.541  56.437  1.00  0.00     0.020 A 
HETATM   10  C   UNL     1       7.037  28.431  55.035  1.00  0.00    -0.032 A 
HETATM   11  C   UNL     1       8.249  28.738  54.401  1.00  0.00     0.011 A 
HETATM   12  C   UNL     1       9.355  29.150  55.149  1.00  0.00     0.038 A 
ENDROOT
BRANCH  10  13
HETATM   13  C   UNL     1       5.840  27.975  54.232  1.00  0.00     0.273 C 
BRANCH  13  14
HETATM   14  N   UNL     1       6.122  26.813  53.296  1.00  0.00    -0.067 N 
HETATM   15  H   UNL     1       5.945  27.153  52.342  1.00  0.00     0.280 HD
HETATM   16  C   UNL     1       7.560  26.350  53.363  1.00  0.00     0.237 C 
HETATM   17  C   UNL     1       7.786  25.183  52.411  1.00  0.00     0.060 C 
HETATM   18  C   UNL     1       6.843  24.021  52.724  1.00  0.00     0.132 C 
HETATM   19  C   UNL     1       5.401  24.520  52.622  1.00  0.00     0.060 C 
HETATM   20  C   UNL     1       5.145  25.683  53.569  1.00  0.00     0.237 C 
BRANCH  18  21
HETATM   21  O   UNL     1       7.028  23.572  54.072  1.00  0.00    -0.344 OA
BRANCH  21  22
HETATM   22  C   UNL     1       7.613  22.355  54.267  1.00  0.00     0.086 A 
HETATM   23  C   UNL     1       7.618  21.874  55.572  1.00  0.00     0.152 A 
HETATM   24  N   UNL     1       8.183  20.710  55.957  1.00  0.00    -0.270 NA
HETATM   25  C   UNL     1       8.723  19.951  54.980  1.00  0.00     0.116 A 
HETATM   26  C   UNL     1       8.737  20.323  53.645  1.00  0.00     0.022 A 
HETATM   27  C   UNL     1       8.174  21.548  53.284  1.00  0.00     0.039 A 
ENDBRANCH  21  22
ENDBRANCH  18  21
ENDBRANCH  13  14
ENDBRANCH  10  13
BRANCH   1  28
HETATM   28  C   UNL     1       7.284  31.502  58.883  1.00  0.00     0.273 C 
BRANCH  28  29
HETATM   29  C   UNL     1       6.709  32.324  60.006  1.00  0.00    -0.032 A 
HETATM   30  C   UNL     1       7.461  32.668  61.137  1.00  0.00     0.011 A 
HETATM   31  C   UNL     1       6.877  33.398  62.182  1.00  0.00     0.030 A 
HETATM   32  C   UNL     1       5.535  33.783  62.121  1.00  0.00     0.034 A 
HETATM   33  C   UNL     1       4.799  33.477  60.976  1.00  0.00     0.030 A 
HETATM   34  C   UNL     1       5.381  32.765  59.926  1.00  0.00     0.011 A 
BRANCH  32  35
HETATM   35  N   UNL     1       4.997  34.504  63.203  1.00  0.00    -0.328 N 
HETATM   36  C   UNL     1       4.489  33.961  64.372  1.00  0.00     0.218 C 
HETATM   37  C   UNL     1       3.795  34.974  65.247  1.00  0.00     0.117 C 
HETATM   38  O   UNL     1       4.613  32.788  64.722  1.00  0.00    -0.274 OA
HETATM   39  H   UNL     1       5.055  35.516  63.159  1.00  0.00     0.169 HD
ENDBRANCH  32  35
ENDBRANCH  28  29
ENDBRANCH   1  28
TORSDOF 7
ENDMDL
MODEL 5
REMARK VINA RESULT:     -10.0      5.869     12.649
REMARK  7 active torsions:
REMARK  status: ('A' for Active; 'I' for Inactive)
REMARK       I    between atoms: C_2  and  N_3 
REMARK    1  A    between atoms: N_3  and  C_4 
REMARK    2  A    between atoms: C_7  and  C_8 
REMARK    3  A    between atoms: C_8  and  N_9 
REMARK    4  A    between atoms: C_18  and  C_19 
REMARK    5  A    between atoms: C_19  and  N_20 
REMARK    6  A    between atoms: C_24  and  O_25 
REMARK    7  A    between atoms: O_25  and  C_26 
ROOT
HETATM    1  N   UNL     1       7.460  24.584  57.039  1.00  0.00    -0.061 N 
HETATM    2  H   UNL     1       7.003  24.541  57.957  1.00  0.00     0.280 HD
HETATM    3  C   UNL     1       6.313  24.617  56.053  1.00  0.00     0.276 C 
HETATM    4  C   UNL     1       6.688  24.837  54.615  1.00  0.00     0.002 A 
HETATM    5  C   UNL     1       7.489  23.912  53.944  1.00  0.00     0.076 A 
HETATM    6  O   UNL     1       7.937  22.783  54.572  1.00  0.00    -0.349 OA
HETATM    7  C   UNL     1       8.918  23.078  55.575  1.00  0.00     0.203 C 
HETATM    8  C   UNL     1       8.273  23.297  56.948  1.00  0.00     0.262 C 
HETATM    9  C   UNL     1       6.193  25.942  53.896  1.00  0.00     0.020 A 
HETATM   10  C   UNL     1       6.501  26.127  52.534  1.00  0.00    -0.032 A 
HETATM   11  C   UNL     1       7.298  25.170  51.889  1.00  0.00     0.011 A 
HETATM   12  C   UNL     1       7.779  24.062  52.590  1.00  0.00     0.038 A 
ENDROOT
BRANCH  10  13
HETATM   13  C   UNL     1       5.969  27.323  51.778  1.00  0.00     0.273 C 
BRANCH  13  14
HETATM   14  N   UNL     1       5.665  27.054  50.315  1.00  0.00    -0.067 N 
HETATM   15  H   UNL     1       6.482  26.561  49.931  1.00  0.00     0.280 HD
HETATM   16  C   UNL     1       4.458  26.162  50.127  1.00  0.00     0.237 C 
HETATM   17  C   UNL     1       4.197  25.927  48.646  1.00  0.00     0.060 C 
HETATM   18  C   UNL     1       3.998  27.248  47.902  1.00  0.00     0.132 C 
HETATM   19  C   UNL     1       5.246  28.111  48.093  1.00  0.00     0.060 C 
HETATM   20  C   UNL     1       5.527  28.367  49.566  1.00  0.00     0.237 C 
BRANCH  18  21
HETATM   21  O   UNL     1       2.901  27.981  48.464  1.00  0.00    -0.344 OA
BRANCH  21  22
HETATM   22  C   UNL     1       1.849  28.285  47.650  1.00  0.00     0.086 A 
HETATM   23  C   UNL     1       0.867  27.308  47.521  1.00  0.00     0.152 A 
HETATM   24  N   UNL     1      -0.223  27.419  46.731  1.00  0.00    -0.270 NA
HETATM   25  C   UNL     1      -0.377  28.589  46.078  1.00  0.00     0.116 A 
HETATM   26  C   UNL     1       0.526  29.638  46.168  1.00  0.00     0.022 A 
HETATM   27  C   UNL     1       1.659  29.480  46.966  1.00  0.00     0.039 A 
ENDBRANCH  21  22
ENDBRANCH  18  21
ENDBRANCH  13  14
ENDBRANCH  10  13
BRANCH   1  28
HETATM   28  C   UNL     1       8.327  25.824  57.102  1.00  0.00     0.273 C 
BRANCH  28  29
HETATM   29  C   UNL     1       7.589  27.127  56.948  1.00  0.00    -0.032 A 
HETATM   30  C   UNL     1       6.338  27.348  57.537  1.00  0.00     0.011 A 
HETATM   31  C   UNL     1       5.662  28.560  57.335  1.00  0.00     0.030 A 
HETATM   32  C   UNL     1       6.217  29.562  56.534  1.00  0.00     0.034 A 
HETATM   33  C   UNL     1       7.482  29.357  55.982  1.00  0.00     0.030 A 
HETATM   34  C   UNL     1       8.166  28.159  56.194  1.00  0.00     0.011 A 
BRANCH  32  35
HETATM   35  N   UNL     1       5.491  30.754  56.354  1.00  0.00    -0.328 N 
HETATM   36  C   UNL     1       5.543  31.870  57.173  1.00  0.00     0.218 C 
HETATM   37  C   UNL     1       4.497  32.903  56.839  1.00  0.00     0.117 C 
HETATM   38  O   UNL     1       6.374  32.062  58.060  1.00  0.00    -0.274 OA
HETATM   39  H   UNL     1       4.937  30.834  55.508  1.00  0.00     0.169 HD
ENDBRANCH  32  35
ENDBRANCH  28  29
ENDBRANCH   1  28
TORSDOF 7
ENDMDL
MODEL 6
REMARK VINA RESULT:      -9.9      5.940     11.438
REMARK  7 active torsions:
REMARK  status: ('A' for Active; 'I' for Inactive)
REMARK       I    between atoms: C_2  and  N_3 
REMARK    1  A    between atoms: N_3  and  C_4 
REMARK    2  A    between atoms: C_7  and  C_8 
REMARK    3  A    between atoms: C_8  and  N_9 
REMARK    4  A    between atoms: C_18  and  C_19 
REMARK    5  A    between atoms: C_19  and  N_20 
REMARK    6  A    between atoms: C_24  and  O_25 
REMARK    7  A    between atoms: O_25  and  C_26 
ROOT
HETATM    1  N   UNL     1       8.145  27.941  57.331  1.00  0.00    -0.061 N 
HETATM    2  H   UNL     1       9.122  27.700  57.525  1.00  0.00     0.280 HD
HETATM    3  C   UNL     1       8.114  28.202  55.841  1.00  0.00     0.276 C 
HETATM    4  C   UNL     1       6.756  28.431  55.241  1.00  0.00     0.002 A 
HETATM    5  C   UNL     1       5.982  29.522  55.641  1.00  0.00     0.076 A 
HETATM    6  O   UNL     1       6.445  30.409  56.572  1.00  0.00    -0.349 OA
HETATM    7  C   UNL     1       6.511  29.830  57.881  1.00  0.00     0.203 C 
HETATM    8  C   UNL     1       7.883  29.200  58.150  1.00  0.00     0.262 C 
HETATM    9  C   UNL     1       6.260  27.594  54.223  1.00  0.00     0.020 A 
HETATM   10  C   UNL     1       5.009  27.834  53.622  1.00  0.00    -0.032 A 
HETATM   11  C   UNL     1       4.265  28.946  54.040  1.00  0.00     0.011 A 
HETATM   12  C   UNL     1       4.756  29.792  55.037  1.00  0.00     0.038 A 
ENDROOT
BRANCH  10  13
HETATM   13  C   UNL     1       4.487  26.920  52.537  1.00  0.00     0.273 C 
BRANCH  13  14
HETATM   14  N   UNL     1       4.650  27.465  51.129  1.00  0.00    -0.067 N 
HETATM   15  H   UNL     1       5.607  27.838  51.067  1.00  0.00     0.280 HD
HETATM   16  C   UNL     1       4.504  26.394  50.071  1.00  0.00     0.237 C 
HETATM   17  C   UNL     1       4.672  26.994  48.682  1.00  0.00     0.060 C 
HETATM   18  C   UNL     1       3.665  28.118  48.438  1.00  0.00     0.132 C 
HETATM   19  C   UNL     1       3.861  29.192  49.509  1.00  0.00     0.060 C 
HETATM   20  C   UNL     1       3.691  28.621  50.908  1.00  0.00     0.237 C 
BRANCH  18  21
HETATM   21  O   UNL     1       2.324  27.632  48.582  1.00  0.00    -0.344 OA
BRANCH  21  22
HETATM   22  C   UNL     1       1.416  27.965  47.619  1.00  0.00     0.086 A 
HETATM   23  C   UNL     1       1.082  29.312  47.524  1.00  0.00     0.152 A 
HETATM   24  N   UNL     1       0.177  29.817  46.658  1.00  0.00    -0.270 NA
HETATM   25  C   UNL     1      -0.386  28.943  45.798  1.00  0.00     0.116 A 
HETATM   26  C   UNL     1      -0.094  27.588  45.787  1.00  0.00     0.022 A 
HETATM   27  C   UNL     1       0.820  27.091  46.717  1.00  0.00     0.039 A 
ENDBRANCH  21  22
ENDBRANCH  18  21
ENDBRANCH  13  14
ENDBRANCH  10  13
BRANCH   1  28
HETATM   28  C   UNL     1       7.352  26.746  57.820  1.00  0.00     0.273 C 
BRANCH  28  29
HETATM   29  C   UNL     1       7.582  25.471  57.054  1.00  0.00    -0.032 A 
HETATM   30  C   UNL     1       8.831  24.836  57.023  1.00  0.00     0.011 A 
HETATM   31  C   UNL     1       9.017  23.673  56.262  1.00  0.00     0.030 A 
HETATM   32  C   UNL     1       7.967  23.135  55.513  1.00  0.00     0.034 A 
HETATM   33  C   UNL     1       6.714  23.744  55.577  1.00  0.00     0.030 A 
HETATM   34  C   UNL     1       6.519  24.892  56.347  1.00  0.00     0.011 A 
BRANCH  32  35
HETATM   35  N   UNL     1       8.212  21.973  54.758  1.00  0.00    -0.328 N 
HETATM   36  C   UNL     1       8.083  21.852  53.384  1.00  0.00     0.218 C 
HETATM   37  C   UNL     1       8.212  20.431  52.896  1.00  0.00     0.117 C 
HETATM   38  O   UNL     1       7.930  22.787  52.600  1.00  0.00    -0.274 OA
HETATM   39  H   UNL     1       8.591  21.172  55.252  1.00  0.00     0.169 HD
ENDBRANCH  32  35
ENDBRANCH  28  29
ENDBRANCH   1  28
TORSDOF 7
ENDMDL
MODEL 7
REMARK VINA RESULT:      -9.7      4.901     10.591
REMARK  7 active torsions:
REMARK  status: ('A' for Active; 'I' for Inactive)
REMARK       I    between atoms: C_2  and  N_3 
REMARK    1  A    between atoms: N_3  and  C_4 
REMARK    2  A    between atoms: C_7  and  C_8 
REMARK    3  A    between atoms: C_8  and  N_9 
REMARK    4  A    between atoms: C_18  and  C_19 
REMARK    5  A    between atoms: C_19  and  N_20 
REMARK    6  A    between atoms: C_24  and  O_25 
REMARK    7  A    between atoms: O_25  and  C_26 
ROOT
HETATM    1  N   UNL     1       3.497  32.006  56.089  1.00  0.00    -0.061 N 
HETATM    2  H   UNL     1       2.521  31.948  55.779  1.00  0.00     0.280 HD
HETATM    3  C   UNL     1       3.668  30.817  57.008  1.00  0.00     0.276 C 
HETATM    4  C   UNL     1       5.065  30.559  57.497  1.00  0.00     0.002 A 
HETATM    5  C   UNL     1       5.724  31.504  58.285  1.00  0.00     0.076 A 
HETATM    6  O   UNL     1       5.113  32.674  58.639  1.00  0.00    -0.349 OA
HETATM    7  C   UNL     1       4.944  33.554  57.521  1.00  0.00     0.203 C 
HETATM    8  C   UNL     1       3.594  33.336  56.829  1.00  0.00     0.262 C 
HETATM    9  C   UNL     1       5.715  29.339  57.228  1.00  0.00     0.020 A 
HETATM   10  C   UNL     1       7.006  29.071  57.726  1.00  0.00    -0.032 A 
HETATM   11  C   UNL     1       7.632  30.039  58.524  1.00  0.00     0.011 A 
HETATM   12  C   UNL     1       6.987  31.244  58.811  1.00  0.00     0.038 A 
ENDROOT
BRANCH  10  13
HETATM   13  C   UNL     1       7.694  27.760  57.419  1.00  0.00     0.273 C 
BRANCH  13  14
HETATM   14  N   UNL     1       6.927  26.861  56.464  1.00  0.00    -0.067 N 
HETATM   15  H   UNL     1       5.955  27.198  56.459  1.00  0.00     0.280 HD
HETATM   16  C   UNL     1       7.451  26.940  55.047  1.00  0.00     0.237 C 
HETATM   17  C   UNL     1       6.652  26.019  54.135  1.00  0.00     0.060 C 
HETATM   18  C   UNL     1       6.692  24.574  54.633  1.00  0.00     0.132 C 
HETATM   19  C   UNL     1       6.132  24.531  56.056  1.00  0.00     0.060 C 
HETATM   20  C   UNL     1       6.917  25.438  56.991  1.00  0.00     0.237 C 
BRANCH  18  21
HETATM   21  O   UNL     1       8.044  24.106  54.709  1.00  0.00    -0.344 OA
BRANCH  21  22
HETATM   22  C   UNL     1       8.282  22.789  54.439  1.00  0.00     0.086 A 
HETATM   23  C   UNL     1       8.809  22.031  55.479  1.00  0.00     0.152 A 
HETATM   24  N   UNL     1       9.140  20.725  55.384  1.00  0.00    -0.270 NA
HETATM   25  C   UNL     1       8.879  20.123  54.205  1.00  0.00     0.116 A 
HETATM   26  C   UNL     1       8.323  20.781  53.119  1.00  0.00     0.022 A 
HETATM   27  C   UNL     1       8.022  22.138  53.239  1.00  0.00     0.039 A 
ENDBRANCH  21  22
ENDBRANCH  18  21
ENDBRANCH  13  14
ENDBRANCH  10  13
BRANCH   1  28
HETATM   28  C   UNL     1       4.305  31.987  54.808  1.00  0.00     0.273 C 
BRANCH  28  29
HETATM   29  C   UNL     1       3.774  31.078  53.732  1.00  0.00    -0.032 A 
HETATM   30  C   UNL     1       3.890  29.683  53.811  1.00  0.00     0.011 A 
HETATM   31  C   UNL     1       3.420  28.873  52.768  1.00  0.00     0.030 A 
HETATM   32  C   UNL     1       2.842  29.438  51.629  1.00  0.00     0.034 A 
HETATM   33  C   UNL     1       2.689  30.824  51.570  1.00  0.00     0.030 A 
HETATM   34  C   UNL     1       3.139  31.635  52.613  1.00  0.00     0.011 A 
BRANCH  32  35
HETATM   35  N   UNL     1       2.399  28.578  50.607  1.00  0.00    -0.328 N 
HETATM   36  C   UNL     1       3.083  28.280  49.440  1.00  0.00     0.218 C 
HETATM   37  C   UNL     1       2.258  27.495  48.450  1.00  0.00     0.117 C 
HETATM   38  O   UNL     1       4.258  28.562  49.214  1.00  0.00    -0.274 OA
HETATM   39  H   UNL     1       1.536  28.070  50.772  1.00  0.00     0.169 HD
ENDBRANCH  32  35
ENDBRANCH  28  29
ENDBRANCH   1  28
TORSDOF 7
ENDMDL
MODEL 8
REMARK VINA RESULT:      -9.7      6.954     11.213
REMARK  7 active torsions:
REMARK  status: ('A' for Active; 'I' for Inactive)
REMARK       I    between atoms: C_2  and  N_3 
REMARK    1  A    between atoms: N_3  and  C_4 
REMARK    2  A    between atoms: C_7  and  C_8 
REMARK    3  A    between atoms: C_8  and  N_9 
REMARK    4  A    between atoms: C_18  and  C_19 
REMARK    5  A    between atoms: C_19  and  N_20 
REMARK    6  A    between atoms: C_24  and  O_25 
REMARK    7  A    between atoms: O_25  and  C_26 
ROOT
HETATM    1  N   UNL     1       3.768  32.851  51.681  1.00  0.00    -0.061 N 
HETATM    2  H   UNL     1       3.072  33.114  50.974  1.00  0.00     0.280 HD
HETATM    3  C   UNL     1       3.000  31.987  52.656  1.00  0.00     0.276 C 
HETATM    4  C   UNL     1       3.816  31.324  53.730  1.00  0.00     0.002 A 
HETATM    5  C   UNL     1       4.512  32.092  54.664  1.00  0.00     0.076 A 
HETATM    6  O   UNL     1       4.459  33.457  54.632  1.00  0.00    -0.349 OA
HETATM    7  C   UNL     1       5.152  33.997  53.500  1.00  0.00     0.203 C 
HETATM    8  C   UNL     1       4.217  34.171  52.297  1.00  0.00     0.262 C 
HETATM    9  C   UNL     1       3.845  29.922  53.858  1.00  0.00     0.020 A 
HETATM   10  C   UNL     1       4.568  29.296  54.893  1.00  0.00    -0.032 A 
HETATM   11  C   UNL     1       5.246  30.100  55.821  1.00  0.00     0.011 A 
HETATM   12  C   UNL     1       5.207  31.492  55.711  1.00  0.00     0.038 A 
ENDROOT
BRANCH  10  13
HETATM   13  C   UNL     1       4.598  27.789  55.011  1.00  0.00     0.273 C 
BRANCH  13  14
HETATM   14  N   UNL     1       5.472  27.099  53.978  1.00  0.00    -0.067 N 
HETATM   15  H   UNL     1       5.689  27.803  53.260  1.00  0.00     0.280 HD
HETATM   16  C   UNL     1       6.781  26.612  54.557  1.00  0.00     0.237 C 
HETATM   17  C   UNL     1       7.614  25.926  53.483  1.00  0.00     0.060 C 
HETATM   18  C   UNL     1       6.852  24.763  52.848  1.00  0.00     0.132 C 
HETATM   19  C   UNL     1       5.549  25.298  52.251  1.00  0.00     0.060 C 
HETATM   20  C   UNL     1       4.693  25.983  53.306  1.00  0.00     0.237 C 
BRANCH  18  21
HETATM   21  O   UNL     1       6.483  23.800  53.844  1.00  0.00    -0.344 OA
BRANCH  21  22
HETATM   22  C   UNL     1       7.336  22.761  54.077  1.00  0.00     0.086 A 
HETATM   23  C   UNL     1       7.689  22.537  55.403  1.00  0.00     0.152 A 
HETATM   24  N   UNL     1       8.548  21.580  55.816  1.00  0.00    -0.270 NA
HETATM   25  C   UNL     1       9.040  20.761  54.863  1.00  0.00     0.116 A 
HETATM   26  C   UNL     1       8.722  20.878  53.519  1.00  0.00     0.022 A 
HETATM   27  C   UNL     1       7.857  21.898  53.120  1.00  0.00     0.039 A 
ENDBRANCH  21  22
ENDBRANCH  18  21
ENDBRANCH  13  14
ENDBRANCH  10  13
BRANCH   1  28
HETATM   28  C   UNL     1       4.866  32.164  50.895  1.00  0.00     0.273 C 
BRANCH  28  29
HETATM   29  C   UNL     1       4.527  30.785  50.395  1.00  0.00    -0.032 A 
HETATM   30  C   UNL     1       3.379  30.532  49.632  1.00  0.00     0.011 A 
HETATM   31  C   UNL     1       3.075  29.227  49.221  1.00  0.00     0.030 A 
HETATM   32  C   UNL     1       3.901  28.156  49.575  1.00  0.00     0.034 A 
HETATM   33  C   UNL     1       5.065  28.415  50.298  1.00  0.00     0.030 A 
HETATM   34  C   UNL     1       5.382  29.715  50.695  1.00  0.00     0.011 A 
BRANCH  32  35
HETATM   35  N   UNL     1       3.541  26.865  49.146  1.00  0.00    -0.328 N 
HETATM   36  C   UNL     1       3.935  26.261  47.963  1.00  0.00     0.218 C 
HETATM   37  C   UNL     1       3.219  24.962  47.690  1.00  0.00     0.117 C 
HETATM   38  O   UNL     1       4.812  26.680  47.209  1.00  0.00    -0.274 OA
HETATM   39  H   UNL     1       3.009  26.293  49.794  1.00  0.00     0.169 HD
ENDBRANCH  32  35
ENDBRANCH  28  29
ENDBRANCH   1  28
TORSDOF 7
ENDMDL
MODEL 9
REMARK VINA RESULT:      -9.5      5.293     12.155
REMARK  7 active torsions:
REMARK  status: ('A' for Active; 'I' for Inactive)
REMARK       I    between atoms: C_2  and  N_3 
REMARK    1  A    between atoms: N_3  and  C_4 
REMARK    2  A    between atoms: C_7  and  C_8 
REMARK    3  A    between atoms: C_8  and  N_9 
REMARK    4  A    between atoms: C_18  and  C_19 
REMARK    5  A    between atoms: C_19  and  N_20 
REMARK    6  A    between atoms: C_24  and  O_25 
REMARK    7  A    between atoms: O_25  and  C_26 
ROOT
HETATM    1  N   UNL     1       7.567  25.756  57.540  1.00  0.00    -0.061 N 
HETATM    2  H   UNL     1       7.223  26.053  58.460  1.00  0.00     0.280 HD
HETATM    3  C   UNL     1       6.410  24.988  56.940  1.00  0.00     0.276 C 
HETATM    4  C   UNL     1       6.577  24.559  55.510  1.00  0.00     0.002 A 
HETATM    5  C   UNL     1       7.597  23.678  55.150  1.00  0.00     0.076 A 
HETATM    6  O   UNL     1       8.456  23.176  56.088  1.00  0.00    -0.349 OA
HETATM    7  C   UNL     1       9.345  24.179  56.596  1.00  0.00     0.203 C 
HETATM    8  C   UNL     1       8.768  24.866  57.840  1.00  0.00     0.262 C 
HETATM    9  C   UNL     1       5.675  24.983  54.515  1.00  0.00     0.020 A 
HETATM   10  C   UNL     1       5.797  24.545  53.181  1.00  0.00    -0.032 A 
HETATM   11  C   UNL     1       6.826  23.650  52.859  1.00  0.00     0.011 A 
HETATM   12  C   UNL     1       7.714  23.210  53.844  1.00  0.00     0.038 A 
ENDROOT
BRANCH  10  13
HETATM   13  C   UNL     1       4.826  25.018  52.123  1.00  0.00     0.273 C 
BRANCH  13  14
HETATM   14  N   UNL     1       5.222  26.321  51.449  1.00  0.00    -0.067 N 
HETATM   15  H   UNL     1       6.248  26.374  51.493  1.00  0.00     0.280 HD
HETATM   16  C   UNL     1       4.820  26.366  49.992  1.00  0.00     0.237 C 
HETATM   17  C   UNL     1       5.236  27.691  49.368  1.00  0.00     0.060 C 
HETATM   18  C   UNL     1       4.627  28.874  50.121  1.00  0.00     0.132 C 
HETATM   19  C   UNL     1       5.076  28.809  51.582  1.00  0.00     0.060 C 
HETATM   20  C   UNL     1       4.666  27.496  52.232  1.00  0.00     0.237 C 
BRANCH  18  21
HETATM   21  O   UNL     1       3.196  28.784  50.126  1.00  0.00    -0.344 OA
BRANCH  21  22
HETATM   22  C   UNL     1       2.547  28.841  48.928  1.00  0.00     0.086 A 
HETATM   23  C   UNL     1       1.588  27.860  48.698  1.00  0.00     0.152 A 
HETATM   24  N   UNL     1       0.875  27.738  47.557  1.00  0.00    -0.270 NA
HETATM   25  C   UNL     1       1.084  28.680  46.613  1.00  0.00     0.116 A 
HETATM   26  C   UNL     1       1.991  29.719  46.760  1.00  0.00     0.022 A 
HETATM   27  C   UNL     1       2.736  29.798  47.937  1.00  0.00     0.039 A 
ENDBRANCH  21  22
ENDBRANCH  18  21
ENDBRANCH  13  14
ENDBRANCH  10  13
BRANCH   1  28
HETATM   28  C   UNL     1       7.950  27.046  56.843  1.00  0.00     0.273 C 
BRANCH  28  29
HETATM   29  C   UNL     1       7.195  28.266  57.299  1.00  0.00    -0.032 A 
HETATM   30  C   UNL     1       5.831  28.440  57.032  1.00  0.00     0.011 A 
HETATM   31  C   UNL     1       5.173  29.610  57.435  1.00  0.00     0.030 A 
HETATM   32  C   UNL     1       5.866  30.628  58.097  1.00  0.00     0.034 A 
HETATM   33  C   UNL     1       7.214  30.435  58.400  1.00  0.00     0.030 A 
HETATM   34  C   UNL     1       7.870  29.265  58.015  1.00  0.00     0.011 A 
BRANCH  32  35
HETATM   35  N   UNL     1       5.159  31.786  58.469  1.00  0.00    -0.328 N 
HETATM   36  C   UNL     1       5.076  32.959  57.737  1.00  0.00     0.218 C 
HETATM   37  C   UNL     1       4.422  34.088  58.494  1.00  0.00     0.117 C 
HETATM   38  O   UNL     1       5.439  33.095  56.570  1.00  0.00    -0.274 OA
HETATM   39  H   UNL     1       4.595  31.733  59.311  1.00  0.00     0.169 HD
ENDBRANCH  32  35
ENDBRANCH  28  29
ENDBRANCH   1  28
TORSDOF 7
ENDMDL
MODEL 10
REMARK VINA RESULT:      -9.2      3.018     12.400
REMARK  7 active torsions:
REMARK  status: ('A' for Active; 'I' for Inactive)
REMARK       I    between atoms: C_2  and  N_3 
REMARK    1  A    between atoms: N_3  and  C_4 
REMARK    2  A    between atoms: C_7  and  C_8 
REMARK    3  A    between atoms: C_8  and  N_9 
REMARK    4  A    between atoms: C_18  and  C_19 
REMARK    5  A    between atoms: C_19  and  N_20 
REMARK    6  A    between atoms: C_24  and  O_25 
REMARK    7  A    between atoms: O_25  and  C_26 
ROOT
HETATM    1  N   UNL     1       4.178  33.508  57.980  1.00  0.00    -0.061 N 
HETATM    2  H   UNL     1       4.613  34.219  58.578  1.00  0.00     0.280 HD
HETATM    3  C   UNL     1       5.327  32.943  57.175  1.00  0.00     0.276 C 
HETATM    4  C   UNL     1       5.005  31.758  56.311  1.00  0.00     0.002 A 
HETATM    5  C   UNL     1       4.082  31.872  55.270  1.00  0.00     0.076 A 
HETATM    6  O   UNL     1       3.463  33.061  55.006  1.00  0.00    -0.349 OA
HETATM    7  C   UNL     1       2.526  33.421  56.030  1.00  0.00     0.203 C 
HETATM    8  C   UNL     1       3.182  34.278  57.119  1.00  0.00     0.262 C 
HETATM    9  C   UNL     1       5.668  30.528  56.488  1.00  0.00     0.020 A 
HETATM   10  C   UNL     1       5.406  29.427  55.648  1.00  0.00    -0.032 A 
HETATM   11  C   UNL     1       4.482  29.582  54.606  1.00  0.00     0.011 A 
HETATM   12  C   UNL     1       3.832  30.804  54.412  1.00  0.00     0.038 A 
ENDROOT
BRANCH  10  13
HETATM   13  C   UNL     1       6.119  28.111  55.858  1.00  0.00     0.273 C 
BRANCH  13  14
HETATM   14  N   UNL     1       6.084  27.183  54.656  1.00  0.00    -0.067 N 
HETATM   15  H   UNL     1       5.389  27.572  54.005  1.00  0.00     0.280 HD
HETATM   16  C   UNL     1       7.410  27.119  53.933  1.00  0.00     0.237 C 
HETATM   17  C   UNL     1       7.320  26.175  52.742  1.00  0.00     0.060 C 
HETATM   18  C   UNL     1       6.889  24.774  53.177  1.00  0.00     0.132 C 
HETATM   19  C   UNL     1       5.534  24.875  53.880  1.00  0.00     0.060 C 
HETATM   20  C   UNL     1       5.597  25.808  55.079  1.00  0.00     0.237 C 
BRANCH  18  21
HETATM   21  O   UNL     1       7.811  24.238  54.135  1.00  0.00    -0.344 OA
BRANCH  21  22
HETATM   22  C   UNL     1       8.003  22.888  54.152  1.00  0.00     0.086 A 
HETATM   23  C   UNL     1       8.254  22.316  55.395  1.00  0.00     0.152 A 
HETATM   24  N   UNL     1       8.504  21.004  55.598  1.00  0.00    -0.270 NA
HETATM   25  C   UNL     1       8.444  20.205  54.512  1.00  0.00     0.116 A 
HETATM   26  C   UNL     1       8.167  20.671  53.236  1.00  0.00     0.022 A 
HETATM   27  C   UNL     1       7.945  22.037  53.054  1.00  0.00     0.039 A 
ENDBRANCH  21  22
ENDBRANCH  18  21
ENDBRANCH  13  14
ENDBRANCH  10  13
BRANCH   1  28
HETATM   28  C   UNL     1       3.505  32.557  58.949  1.00  0.00     0.273 C 
BRANCH  28  29
HETATM   29  C   UNL     1       3.813  32.802  60.402  1.00  0.00    -0.032 A 
HETATM   30  C   UNL     1       4.987  32.328  61.004  1.00  0.00     0.011 A 
HETATM   31  C   UNL     1       5.218  32.539  62.370  1.00  0.00     0.030 A 
HETATM   32  C   UNL     1       4.280  33.212  63.158  1.00  0.00     0.034 A 
HETATM   33  C   UNL     1       3.132  33.720  62.549  1.00  0.00     0.030 A 
HETATM   34  C   UNL     1       2.905  33.527  61.185  1.00  0.00     0.011 A 
BRANCH  32  35
HETATM   35  N   UNL     1       4.558  33.386  64.526  1.00  0.00    -0.328 N 
HETATM   36  C   UNL     1       5.355  34.376  65.076  1.00  0.00     0.218 C 
HETATM   37  C   UNL     1       5.628  34.174  66.545  1.00  0.00     0.117 C 
HETATM   38  O   UNL     1       5.775  35.364  64.476  1.00  0.00    -0.274 OA
HETATM   39  H   UNL     1       4.069  32.780  65.177  1.00  0.00     0.169 HD
ENDBRANCH  32  35
ENDBRANCH  28  29
ENDBRANCH   1  28
TORSDOF 7
ENDMDL
