MODEL 1
REMARK VINA RESULT:      -9.3      0.000      0.000
REMARK  5 active torsions:
REMARK  status: ('A' for Active; 'I' for Inactive)
REMARK    1  A    between atoms: C_4  and  N_5 
REMARK    2  A    between atoms: C_9  and  C_10 
REMARK    3  A    between atoms: C_13  and  O_14 
REMARK    4  A    between atoms: C_17  and  C_18 
REMARK       I    between atoms: C_18  and  N_19 
REMARK    5  A    between atoms: N_19  and  C_20 
ROOT
HETATM    1  N   UNL     1       5.853  28.462  54.376  1.00  0.00    -0.292 N 
HETATM    2  C   UNL     1       7.230  28.218  54.577  1.00  0.00     0.179 C 
HETATM    3  S   UNL     1       8.198  28.698  55.866  1.00  0.00    -0.040 SA
HETATM    4  N   UNL     1       7.871  27.505  53.601  1.00  0.00    -0.354 N 
HETATM    5  C   UNL     1       7.216  26.604  52.680  1.00  0.00     0.158 C 
HETATM    6  C   UNL     1       5.810  27.059  52.439  1.00  0.00     0.060 C 
HETATM    7  C   UNL     1       5.165  27.922  53.260  1.00  0.00     0.030 C 
HETATM    8  C   UNL     1       3.725  28.347  53.040  1.00  0.00     0.070 C 
HETATM    9  H   UNL     1       8.837  27.293  53.820  1.00  0.00     0.163 HD
ENDROOT
BRANCH   6  10
HETATM   10  C   UNL     1       5.191  26.452  51.219  1.00  0.00     0.257 C 
HETATM   11  N   UNL     1       5.257  27.257  50.103  1.00  0.00    -0.306 N 
HETATM   12  H   UNL     1       5.727  28.147  50.158  1.00  0.00     0.170 HD
HETATM   13  O   UNL     1       4.724  25.323  51.282  1.00  0.00    -0.267 OA
BRANCH  11  14
HETATM   14  C   UNL     1       4.535  27.011  48.947  1.00  0.00     0.160 A 
HETATM   15  N   UNL     1       4.992  26.383  47.859  1.00  0.00    -0.110 NA
HETATM   16  O   UNL     1       3.925  26.273  46.993  1.00  0.00    -0.216 OA
HETATM   17  C   UNL     1       2.826  26.827  47.561  1.00  0.00     0.078 A 
HETATM   18  C   UNL     1       1.577  26.735  46.786  1.00  0.00     0.079 C 
HETATM   19  C   UNL     1       3.168  27.344  48.786  1.00  0.00     0.087 A 
ENDBRANCH  11  14
ENDBRANCH   6  10
BRANCH   5  20
HETATM   20  C   UNL     1       7.389  25.174  53.167  1.00  0.00    -0.031 A 
HETATM   21  C   UNL     1       7.941  24.172  52.351  1.00  0.00     0.012 A 
HETATM   22  C   UNL     1       8.074  22.861  52.818  1.00  0.00     0.037 A 
HETATM   23  C   UNL     1       7.646  22.543  54.102  1.00  0.00     0.065 A 
HETATM   24  C   UNL     1       7.084  23.511  54.923  1.00  0.00     0.037 A 
HETATM   25  C   UNL     1       6.955  24.822  54.458  1.00  0.00     0.012 A 
BRANCH  23  26
HETATM   26  O   UNL     1       7.760  21.279  54.598  1.00  0.00    -0.361 OA
HETATM   27  H   UNL     1       7.870  21.337  55.560  1.00  0.00     0.217 HD
ENDBRANCH  23  26
ENDBRANCH   5  20
BRANCH   1  28
HETATM   28  C   UNL     1       5.198  29.394  55.260  1.00  0.00     0.048 A 
HETATM   29  C   UNL     1       5.181  30.752  54.889  1.00  0.00     0.037 A 
HETATM   30  C   UNL     1       4.577  31.719  55.701  1.00  0.00    -0.060 A 
HETATM   31  C   UNL     1       4.607  33.164  55.301  1.00  0.00     0.048 C 
HETATM   32  C   UNL     1       3.930  31.309  56.867  1.00  0.00     0.007 A 
HETATM   33  C   UNL     1       3.938  29.965  57.244  1.00  0.00     0.009 A 
HETATM   34  C   UNL     1       4.591  28.994  56.466  1.00  0.00    -0.035 A 
HETATM   35  C   UNL     1       4.617  27.584  56.987  1.00  0.00     0.050 C 
ENDBRANCH   1  28
TORSDOF 5
ENDMDL
MODEL 2
REMARK VINA RESULT:      -8.9      7.968     11.629
REMARK  5 active torsions:
REMARK  status: ('A' for Active; 'I' for Inactive)
REMARK    1  A    between atoms: C_4  and  N_5 
REMARK    2  A    between atoms: C_9  and  C_10 
REMARK    3  A    between atoms: C_13  and  O_14 
REMARK    4  A    between atoms: C_17  and  C_18 
REMARK       I    between atoms: C_18  and  N_19 
REMARK    5  A    between atoms: N_19  and  C_20 
ROOT
HETATM    1  N   UNL     1       4.815  33.717  63.246  1.00  0.00    -0.292 N 
HETATM    2  C   UNL     1       3.589  33.382  62.630  1.00  0.00     0.179 C 
HETATM    3  S   UNL     1       2.052  33.971  62.975  1.00  0.00    -0.040 SA
HETATM    4  N   UNL     1       3.645  32.456  61.624  1.00  0.00    -0.354 N 
HETATM    5  C   UNL     1       4.825  32.169  60.841  1.00  0.00     0.158 C 
HETATM    6  C   UNL     1       6.053  32.425  61.658  1.00  0.00     0.060 C 
HETATM    7  C   UNL     1       6.042  33.178  62.784  1.00  0.00     0.030 C 
HETATM    8  C   UNL     1       7.295  33.474  63.587  1.00  0.00     0.070 C 
HETATM    9  H   UNL     1       2.756  32.300  61.164  1.00  0.00     0.163 HD
ENDROOT
BRANCH   6  10
HETATM   10  C   UNL     1       7.283  31.784  61.097  1.00  0.00     0.257 C 
HETATM   11  N   UNL     1       7.779  32.418  59.979  1.00  0.00    -0.306 N 
HETATM   12  H   UNL     1       7.331  33.255  59.640  1.00  0.00     0.170 HD
HETATM   13  O   UNL     1       7.763  30.811  61.662  1.00  0.00    -0.267 OA
BRANCH  11  14
HETATM   14  C   UNL     1       8.745  31.861  59.157  1.00  0.00     0.160 A 
HETATM   15  N   UNL     1       9.995  32.308  59.005  1.00  0.00    -0.110 NA
HETATM   16  O   UNL     1      10.634  31.411  58.176  1.00  0.00    -0.216 OA
HETATM   17  C   UNL     1       9.773  30.421  57.835  1.00  0.00     0.078 A 
HETATM   18  C   UNL     1      10.323  29.341  56.998  1.00  0.00     0.079 C 
HETATM   19  C   UNL     1       8.549  30.678  58.401  1.00  0.00     0.087 A 
ENDBRANCH  11  14
ENDBRANCH   6  10
BRANCH   5  20
HETATM   20  C   UNL     1       4.735  32.900  59.510  1.00  0.00    -0.031 A 
HETATM   21  C   UNL     1       4.483  34.280  59.434  1.00  0.00     0.012 A 
HETATM   22  C   UNL     1       4.390  34.924  58.197  1.00  0.00     0.037 A 
HETATM   23  C   UNL     1       4.538  34.188  57.027  1.00  0.00     0.065 A 
HETATM   24  C   UNL     1       4.774  32.821  57.074  1.00  0.00     0.037 A 
HETATM   25  C   UNL     1       4.872  32.178  58.310  1.00  0.00     0.012 A 
BRANCH  23  26
HETATM   26  O   UNL     1       4.457  34.776  55.800  1.00  0.00    -0.361 OA
HETATM   27  H   UNL     1       3.553  35.106  55.678  1.00  0.00     0.217 HD
ENDBRANCH  23  26
ENDBRANCH   5  20
BRANCH   1  28
HETATM   28  C   UNL     1       4.770  34.511  64.449  1.00  0.00     0.048 A 
HETATM   29  C   UNL     1       4.718  33.834  65.683  1.00  0.00     0.037 A 
HETATM   30  C   UNL     1       4.658  34.533  66.893  1.00  0.00    -0.060 A 
HETATM   31  C   UNL     1       4.564  33.788  68.191  1.00  0.00     0.048 C 
HETATM   32  C   UNL     1       4.713  35.927  66.867  1.00  0.00     0.007 A 
HETATM   33  C   UNL     1       4.767  36.610  65.650  1.00  0.00     0.009 A 
HETATM   34  C   UNL     1       4.769  35.918  64.427  1.00  0.00    -0.035 A 
HETATM   35  C   UNL     1       4.749  36.734  63.165  1.00  0.00     0.050 C 
ENDBRANCH   1  28
TORSDOF 5
ENDMDL
MODEL 3
REMARK VINA RESULT:      -8.8      4.172      7.726
REMARK  5 active torsions:
REMARK  status: ('A' for Active; 'I' for Inactive)
REMARK    1  A    between atoms: C_4  and  N_5 
REMARK    2  A    between atoms: C_9  and  C_10 
REMARK    3  A    between atoms: C_13  and  O_14 
REMARK    4  A    between atoms: C_17  and  C_18 
REMARK       I    between atoms: C_18  and  N_19 
REMARK    5  A    between atoms: N_19  and  C_20 
ROOT
HETATM    1  N   UNL     1       7.257  25.535  55.689  1.00  0.00    -0.292 N 
HETATM    2  C   UNL     1       7.886  25.482  56.954  1.00  0.00     0.179 C 
HETATM    3  S   UNL     1       9.081  24.422  57.481  1.00  0.00    -0.040 SA
HETATM    4  N   UNL     1       7.474  26.402  57.879  1.00  0.00    -0.354 N 
HETATM    5  C   UNL     1       6.851  27.665  57.556  1.00  0.00     0.158 C 
HETATM    6  C   UNL     1       6.095  27.545  56.269  1.00  0.00     0.060 C 
HETATM    7  C   UNL     1       6.311  26.544  55.381  1.00  0.00     0.030 C 
HETATM    8  C   UNL     1       5.577  26.448  54.057  1.00  0.00     0.070 C 
HETATM    9  H   UNL     1       8.000  26.373  58.744  1.00  0.00     0.163 HD
ENDROOT
BRANCH   6  10
HETATM   10  C   UNL     1       5.102  28.644  56.059  1.00  0.00     0.257 C 
HETATM   11  N   UNL     1       5.645  29.788  55.516  1.00  0.00    -0.306 N 
HETATM   12  H   UNL     1       6.622  29.807  55.269  1.00  0.00     0.170 HD
HETATM   13  O   UNL     1       3.926  28.450  56.336  1.00  0.00    -0.267 OA
BRANCH  11  14
HETATM   14  C   UNL     1       4.974  30.999  55.473  1.00  0.00     0.160 A 
HETATM   15  N   UNL     1       4.144  31.399  54.506  1.00  0.00    -0.110 NA
HETATM   16  O   UNL     1       3.631  32.614  54.907  1.00  0.00    -0.216 OA
HETATM   17  C   UNL     1       4.145  32.942  56.119  1.00  0.00     0.078 A 
HETATM   18  C   UNL     1       3.646  34.190  56.721  1.00  0.00     0.079 C 
HETATM   19  C   UNL     1       5.033  31.968  56.506  1.00  0.00     0.087 A 
ENDBRANCH  11  14
ENDBRANCH   6  10
BRANCH   5  20
HETATM   20  C   UNL     1       7.892  28.772  57.627  1.00  0.00    -0.031 A 
HETATM   21  C   UNL     1       9.044  28.764  56.823  1.00  0.00     0.012 A 
HETATM   22  C   UNL     1       9.992  29.786  56.921  1.00  0.00     0.037 A 
HETATM   23  C   UNL     1       9.797  30.818  57.832  1.00  0.00     0.065 A 
HETATM   24  C   UNL     1       8.675  30.843  58.647  1.00  0.00     0.037 A 
HETATM   25  C   UNL     1       7.724  29.824  58.547  1.00  0.00     0.012 A 
BRANCH  23  26
HETATM   26  O   UNL     1      10.695  31.836  57.957  1.00  0.00    -0.361 OA
HETATM   27  H   UNL     1      11.580  31.452  58.065  1.00  0.00     0.217 HD
ENDBRANCH  23  26
ENDBRANCH   5  20
BRANCH   1  28
HETATM   28  C   UNL     1       7.498  24.450  54.771  1.00  0.00     0.048 A 
HETATM   29  C   UNL     1       7.367  23.135  55.258  1.00  0.00     0.037 A 
HETATM   30  C   UNL     1       7.597  22.029  54.431  1.00  0.00    -0.060 A 
HETATM   31  C   UNL     1       7.489  20.639  54.985  1.00  0.00     0.048 C 
HETATM   32  C   UNL     1       7.902  22.246  53.088  1.00  0.00     0.007 A 
HETATM   33  C   UNL     1       8.032  23.545  52.593  1.00  0.00     0.009 A 
HETATM   34  C   UNL     1       7.860  24.662  53.428  1.00  0.00    -0.035 A 
HETATM   35  C   UNL     1       8.095  26.022  52.831  1.00  0.00     0.050 C 
ENDBRANCH   1  28
TORSDOF 5
ENDMDL
MODEL 4
REMARK VINA RESULT:      -8.3      2.514      6.162
REMARK  5 active torsions:
REMARK  status: ('A' for Active; 'I' for Inactive)
REMARK    1  A    between atoms: C_4  and  N_5 
REMARK    2  A    between atoms: C_9  and  C_10 
REMARK    3  A    between atoms: C_13  and  O_14 
REMARK    4  A    between atoms: C_17  and  C_18 
REMARK       I    between atoms: C_18  and  N_19 
REMARK    5  A    between atoms: N_19  and  C_20 
ROOT
HETATM    1  N   UNL     1       6.438  25.414  54.539  1.00  0.00    -0.292 N 
HETATM    2  C   UNL     1       5.456  25.652  55.526  1.00  0.00     0.179 C 
HETATM    3  S   UNL     1       5.335  24.975  57.061  1.00  0.00    -0.040 SA
HETATM    4  N   UNL     1       4.467  26.540  55.202  1.00  0.00    -0.354 N 
HETATM    5  C   UNL     1       4.591  27.573  54.199  1.00  0.00     0.158 C 
HETATM    6  C   UNL     1       5.549  27.136  53.135  1.00  0.00     0.060 C 
HETATM    7  C   UNL     1       6.435  26.127  53.313  1.00  0.00     0.030 C 
HETATM    8  C   UNL     1       7.436  25.714  52.250  1.00  0.00     0.070 C 
HETATM    9  H   UNL     1       3.827  26.733  55.963  1.00  0.00     0.163 HD
ENDROOT
BRANCH   6  10
HETATM   10  C   UNL     1       5.439  27.934  51.874  1.00  0.00     0.257 C 
HETATM   11  N   UNL     1       4.457  27.487  51.017  1.00  0.00    -0.306 N 
HETATM   12  H   UNL     1       3.873  26.712  51.289  1.00  0.00     0.170 HD
HETATM   13  O   UNL     1       6.168  28.903  51.712  1.00  0.00    -0.267 OA
BRANCH  11  14
HETATM   14  C   UNL     1       4.349  27.908  49.702  1.00  0.00     0.160 A 
HETATM   15  N   UNL     1       4.875  27.294  48.639  1.00  0.00    -0.110 NA
HETATM   16  O   UNL     1       4.448  27.993  47.530  1.00  0.00    -0.216 OA
HETATM   17  C   UNL     1       3.660  29.024  47.925  1.00  0.00     0.078 A 
HETATM   18  C   UNL     1       3.068  29.837  46.849  1.00  0.00     0.079 C 
HETATM   19  C   UNL     1       3.595  29.037  49.296  1.00  0.00     0.087 A 
ENDBRANCH  11  14
ENDBRANCH   6  10
BRANCH   5  20
HETATM   20  C   UNL     1       4.897  28.900  54.879  1.00  0.00    -0.031 A 
HETATM   21  C   UNL     1       6.021  29.072  55.704  1.00  0.00     0.012 A 
HETATM   22  C   UNL     1       6.269  30.297  56.329  1.00  0.00     0.037 A 
HETATM   23  C   UNL     1       5.387  31.355  56.140  1.00  0.00     0.065 A 
HETATM   24  C   UNL     1       4.262  31.207  55.340  1.00  0.00     0.037 A 
HETATM   25  C   UNL     1       4.016  29.984  54.712  1.00  0.00     0.012 A 
BRANCH  23  26
HETATM   26  O   UNL     1       5.592  32.568  56.728  1.00  0.00    -0.361 OA
HETATM   27  H   UNL     1       5.148  33.246  56.194  1.00  0.00     0.217 HD
ENDBRANCH  23  26
ENDBRANCH   5  20
BRANCH   1  28
HETATM   28  C   UNL     1       7.359  24.327  54.753  1.00  0.00     0.048 A 
HETATM   29  C   UNL     1       7.181  23.154  53.993  1.00  0.00     0.037 A 
HETATM   30  C   UNL     1       8.025  22.050  54.153  1.00  0.00    -0.060 A 
HETATM   31  C   UNL     1       7.789  20.799  53.360  1.00  0.00     0.048 C 
HETATM   32  C   UNL     1       9.098  22.147  55.040  1.00  0.00     0.007 A 
HETATM   33  C   UNL     1       9.287  23.305  55.797  1.00  0.00     0.009 A 
HETATM   34  C   UNL     1       8.410  24.397  55.686  1.00  0.00    -0.035 A 
HETATM   35  C   UNL     1       8.643  25.572  56.595  1.00  0.00     0.050 C 
ENDBRANCH   1  28
TORSDOF 5
ENDMDL
MODEL 5
REMARK VINA RESULT:      -7.8      3.660      7.490
REMARK  5 active torsions:
REMARK  status: ('A' for Active; 'I' for Inactive)
REMARK    1  A    between atoms: C_4  and  N_5 
REMARK    2  A    between atoms: C_9  and  C_10 
REMARK    3  A    between atoms: C_13  and  O_14 
REMARK    4  A    between atoms: C_17  and  C_18 
REMARK       I    between atoms: C_18  and  N_19 
REMARK    5  A    between atoms: N_19  and  C_20 
ROOT
HETATM    1  N   UNL     1       5.947  27.162  53.164  1.00  0.00    -0.292 N 
HETATM    2  C   UNL     1       7.064  26.389  53.554  1.00  0.00     0.179 C 
HETATM    3  S   UNL     1       8.124  25.522  52.577  1.00  0.00    -0.040 SA
HETATM    4  N   UNL     1       7.324  26.325  54.895  1.00  0.00    -0.354 N 
HETATM    5  C   UNL     1       6.893  27.311  55.860  1.00  0.00     0.158 C 
HETATM    6  C   UNL     1       5.621  27.952  55.399  1.00  0.00     0.060 C 
HETATM    7  C   UNL     1       5.192  27.894  54.116  1.00  0.00     0.030 C 
HETATM    8  C   UNL     1       3.926  28.581  53.640  1.00  0.00     0.070 C 
HETATM    9  H   UNL     1       8.173  25.821  55.122  1.00  0.00     0.163 HD
ENDROOT
BRANCH   6  10
HETATM   10  C   UNL     1       4.890  28.670  56.489  1.00  0.00     0.257 C 
HETATM   11  N   UNL     1       4.900  30.041  56.355  1.00  0.00    -0.306 N 
HETATM   12  H   UNL     1       5.344  30.461  55.553  1.00  0.00     0.170 HD
HETATM   13  O   UNL     1       4.329  28.023  57.363  1.00  0.00    -0.267 OA
BRANCH  11  14
HETATM   14  C   UNL     1       4.511  30.905  57.366  1.00  0.00     0.160 A 
HETATM   15  N   UNL     1       3.258  31.283  57.632  1.00  0.00    -0.110 NA
HETATM   16  O   UNL     1       3.317  32.064  58.766  1.00  0.00    -0.216 OA
HETATM   17  C   UNL     1       4.603  32.151  59.187  1.00  0.00     0.078 A 
HETATM   18  C   UNL     1       4.831  32.905  60.432  1.00  0.00     0.079 C 
HETATM   19  C   UNL     1       5.407  31.464  58.311  1.00  0.00     0.087 A 
ENDBRANCH  11  14
ENDBRANCH   6  10
BRANCH   5  20
HETATM   20  C   UNL     1       8.049  28.250  56.170  1.00  0.00    -0.031 A 
HETATM   21  C   UNL     1       8.875  28.772  55.161  1.00  0.00     0.012 A 
HETATM   22  C   UNL     1       9.940  29.621  55.475  1.00  0.00     0.037 A 
HETATM   23  C   UNL     1      10.191  29.944  56.804  1.00  0.00     0.065 A 
HETATM   24  C   UNL     1       9.398  29.431  57.821  1.00  0.00     0.037 A 
HETATM   25  C   UNL     1       8.331  28.586  57.507  1.00  0.00     0.012 A 
BRANCH  23  26
HETATM   26  O   UNL     1      11.217  30.770  57.154  1.00  0.00    -0.361 OA
HETATM   27  H   UNL     1      11.269  30.799  58.123  1.00  0.00     0.217 HD
ENDBRANCH  23  26
ENDBRANCH   5  20
BRANCH   1  28
HETATM   28  C   UNL     1       5.509  27.071  51.794  1.00  0.00     0.048 A 
HETATM   29  C   UNL     1       5.681  28.201  50.972  1.00  0.00     0.037 A 
HETATM   30  C   UNL     1       5.268  28.195  49.634  1.00  0.00    -0.060 A 
HETATM   31  C   UNL     1       5.427  29.425  48.791  1.00  0.00     0.048 C 
HETATM   32  C   UNL     1       4.735  27.021  49.101  1.00  0.00     0.007 A 
HETATM   33  C   UNL     1       4.562  25.893  49.905  1.00  0.00     0.009 A 
HETATM   34  C   UNL     1       4.919  25.908  51.264  1.00  0.00    -0.035 A 
HETATM   35  C   UNL     1       4.626  24.676  52.075  1.00  0.00     0.050 C 
ENDBRANCH   1  28
TORSDOF 5
ENDMDL
MODEL 6
REMARK VINA RESULT:      -7.7      2.578      7.053
REMARK  5 active torsions:
REMARK  status: ('A' for Active; 'I' for Inactive)
REMARK    1  A    between atoms: C_4  and  N_5 
REMARK    2  A    between atoms: C_9  and  C_10 
REMARK    3  A    between atoms: C_13  and  O_14 
REMARK    4  A    between atoms: C_17  and  C_18 
REMARK       I    between atoms: C_18  and  N_19 
REMARK    5  A    between atoms: N_19  and  C_20 
ROOT
HETATM    1  N   UNL     1       4.815  27.731  51.527  1.00  0.00    -0.292 N 
HETATM    2  C   UNL     1       5.452  28.968  51.770  1.00  0.00     0.179 C 
HETATM    3  S   UNL     1       5.149  30.457  51.048  1.00  0.00    -0.040 SA
HETATM    4  N   UNL     1       6.450  28.967  52.707  1.00  0.00    -0.354 N 
HETATM    5  C   UNL     1       6.576  27.993  53.767  1.00  0.00     0.158 C 
HETATM    6  C   UNL     1       5.994  26.686  53.328  1.00  0.00     0.060 C 
HETATM    7  C   UNL     1       5.144  26.575  52.279  1.00  0.00     0.030 C 
HETATM    8  C   UNL     1       4.520  25.256  51.862  1.00  0.00     0.070 C 
HETATM    9  H   UNL     1       6.828  29.887  52.900  1.00  0.00     0.163 HD
ENDROOT
BRANCH   6  10
HETATM   10  C   UNL     1       6.431  25.529  54.170  1.00  0.00     0.257 C 
HETATM   11  N   UNL     1       7.655  25.009  53.809  1.00  0.00    -0.306 N 
HETATM   12  H   UNL     1       8.177  25.437  53.060  1.00  0.00     0.170 HD
HETATM   13  O   UNL     1       5.725  25.164  55.101  1.00  0.00    -0.267 OA
BRANCH  11  14
HETATM   14  C   UNL     1       8.131  23.795  54.278  1.00  0.00     0.160 A 
HETATM   15  N   UNL     1       8.699  23.586  55.469  1.00  0.00    -0.110 NA
HETATM   16  O   UNL     1       8.934  22.231  55.558  1.00  0.00    -0.216 OA
HETATM   17  C   UNL     1       8.503  21.623  54.425  1.00  0.00     0.078 A 
HETATM   18  C   UNL     1       8.625  20.156  54.387  1.00  0.00     0.079 C 
HETATM   19  C   UNL     1       8.018  22.577  53.563  1.00  0.00     0.087 A 
ENDBRANCH  11  14
ENDBRANCH   6  10
BRANCH   5  20
HETATM   20  C   UNL     1       6.022  28.579  55.057  1.00  0.00    -0.031 A 
HETATM   21  C   UNL     1       6.838  28.823  56.174  1.00  0.00     0.012 A 
HETATM   22  C   UNL     1       6.300  29.348  57.353  1.00  0.00     0.037 A 
HETATM   23  C   UNL     1       4.939  29.622  57.424  1.00  0.00     0.065 A 
HETATM   24  C   UNL     1       4.108  29.377  56.339  1.00  0.00     0.037 A 
HETATM   25  C   UNL     1       4.646  28.857  55.159  1.00  0.00     0.012 A 
BRANCH  23  26
HETATM   26  O   UNL     1       4.374  30.136  58.552  1.00  0.00    -0.361 OA
HETATM   27  H   UNL     1       4.285  31.096  58.439  1.00  0.00     0.217 HD
ENDBRANCH  23  26
ENDBRANCH   5  20
BRANCH   1  28
HETATM   28  C   UNL     1       3.925  27.642  50.397  1.00  0.00     0.048 A 
HETATM   29  C   UNL     1       4.347  26.889  49.284  1.00  0.00     0.037 A 
HETATM   30  C   UNL     1       3.544  26.767  48.144  1.00  0.00    -0.060 A 
HETATM   31  C   UNL     1       4.034  25.992  46.957  1.00  0.00     0.048 C 
HETATM   32  C   UNL     1       2.279  27.355  48.146  1.00  0.00     0.007 A 
HETATM   33  C   UNL     1       1.849  28.102  49.244  1.00  0.00     0.009 A 
HETATM   34  C   UNL     1       2.670  28.279  50.371  1.00  0.00    -0.035 A 
HETATM   35  C   UNL     1       2.158  29.162  51.474  1.00  0.00     0.050 C 
ENDBRANCH   1  28
TORSDOF 5
ENDMDL
MODEL 7
REMARK VINA RESULT:      -7.6      7.429     11.118
REMARK  5 active torsions:
REMARK  status: ('A' for Active; 'I' for Inactive)
REMARK    1  A    between atoms: C_4  and  N_5 
REMARK    2  A    between atoms: C_9  and  C_10 
REMARK    3  A    between atoms: C_13  and  O_14 
REMARK    4  A    between atoms: C_17  and  C_18 
REMARK       I    between atoms: C_18  and  N_19 
REMARK    5  A    between atoms: N_19  and  C_20 
ROOT
HETATM    1  N   UNL     1       4.809  34.213  62.694  1.00  0.00    -0.292 N 
HETATM    2  C   UNL     1       3.530  33.822  62.239  1.00  0.00     0.179 C 
HETATM    3  S   UNL     1       2.059  34.607  62.460  1.00  0.00    -0.040 SA
HETATM    4  N   UNL     1       3.465  32.653  61.531  1.00  0.00    -0.354 N 
HETATM    5  C   UNL     1       4.576  32.066  60.817  1.00  0.00     0.158 C 
HETATM    6  C   UNL     1       5.863  32.436  61.487  1.00  0.00     0.060 C 
HETATM    7  C   UNL     1       5.968  33.468  62.357  1.00  0.00     0.030 C 
HETATM    8  C   UNL     1       7.281  33.871  63.001  1.00  0.00     0.070 C 
HETATM    9  H   UNL     1       2.543  32.449  61.164  1.00  0.00     0.163 HD
ENDROOT
BRANCH   6  10
HETATM   10  C   UNL     1       7.013  31.567  61.084  1.00  0.00     0.257 C 
HETATM   11  N   UNL     1       7.399  31.729  59.772  1.00  0.00    -0.306 N 
HETATM   12  H   UNL     1       6.934  32.414  59.196  1.00  0.00     0.170 HD
HETATM   13  O   UNL     1       7.531  30.834  61.916  1.00  0.00    -0.267 OA
BRANCH  11  14
HETATM   14  C   UNL     1       8.259  30.860  59.122  1.00  0.00     0.160 A 
HETATM   15  N   UNL     1       8.016  29.574  58.853  1.00  0.00    -0.110 NA
HETATM   16  O   UNL     1       9.089  29.116  58.119  1.00  0.00    -0.216 OA
HETATM   17  C   UNL     1       9.974  30.128  57.939  1.00  0.00     0.078 A 
HETATM   18  C   UNL     1      11.155  29.818  57.115  1.00  0.00     0.079 C 
HETATM   19  C   UNL     1       9.514  31.246  58.587  1.00  0.00     0.087 A 
ENDBRANCH  11  14
ENDBRANCH   6  10
BRANCH   5  20
HETATM   20  C   UNL     1       4.462  32.406  59.339  1.00  0.00    -0.031 A 
HETATM   21  C   UNL     1       4.714  33.700  58.852  1.00  0.00     0.012 A 
HETATM   22  C   UNL     1       4.586  33.989  57.490  1.00  0.00     0.037 A 
HETATM   23  C   UNL     1       4.194  32.987  56.609  1.00  0.00     0.065 A 
HETATM   24  C   UNL     1       3.925  31.705  57.067  1.00  0.00     0.037 A 
HETATM   25  C   UNL     1       4.058  31.414  58.427  1.00  0.00     0.012 A 
BRANCH  23  26
HETATM   26  O   UNL     1       4.060  33.225  55.274  1.00  0.00    -0.361 OA
HETATM   27  H   UNL     1       3.734  34.132  55.157  1.00  0.00     0.217 HD
ENDBRANCH  23  26
ENDBRANCH   5  20
BRANCH   1  28
HETATM   28  C   UNL     1       4.886  35.308  63.628  1.00  0.00     0.048 A 
HETATM   29  C   UNL     1       5.201  36.584  63.121  1.00  0.00     0.037 A 
HETATM   30  C   UNL     1       5.308  37.694  63.966  1.00  0.00    -0.060 A 
HETATM   31  C   UNL     1       5.682  39.035  63.407  1.00  0.00     0.048 C 
HETATM   32  C   UNL     1       5.036  37.534  65.325  1.00  0.00     0.007 A 
HETATM   33  C   UNL     1       4.721  36.274  65.839  1.00  0.00     0.009 A 
HETATM   34  C   UNL     1       4.667  35.142  65.008  1.00  0.00    -0.035 A 
HETATM   35  C   UNL     1       4.397  33.813  65.657  1.00  0.00     0.050 C 
ENDBRANCH   1  28
TORSDOF 5
ENDMDL
MODEL 8
REMARK VINA RESULT:      -7.5      6.405     10.502
REMARK  5 active torsions:
REMARK  status: ('A' for Active; 'I' for Inactive)
REMARK    1  A    between atoms: C_4  and  N_5 
REMARK    2  A    between atoms: C_9  and  C_10 
REMARK    3  A    between atoms: C_13  and  O_14 
REMARK    4  A    between atoms: C_17  and  C_18 
REMARK       I    between atoms: C_18  and  N_19 
REMARK    5  A    between atoms: N_19  and  C_20 
ROOT
HETATM    1  N   UNL     1       4.530  33.994  61.413  1.00  0.00    -0.292 N 
HETATM    2  C   UNL     1       3.238  33.874  60.853  1.00  0.00     0.179 C 
HETATM    3  S   UNL     1       1.827  34.671  61.304  1.00  0.00    -0.040 SA
HETATM    4  N   UNL     1       3.103  32.994  59.814  1.00  0.00    -0.354 N 
HETATM    5  C   UNL     1       4.185  32.568  58.957  1.00  0.00     0.158 C 
HETATM    6  C   UNL     1       5.477  32.601  59.713  1.00  0.00     0.060 C 
HETATM    7  C   UNL     1       5.636  33.297  60.864  1.00  0.00     0.030 C 
HETATM    8  C   UNL     1       6.957  33.366  61.607  1.00  0.00     0.070 C 
HETATM    9  H   UNL     1       2.179  32.994  59.398  1.00  0.00     0.163 HD
ENDROOT
BRANCH   6  10
HETATM   10  C   UNL     1       6.566  31.808  59.063  1.00  0.00     0.257 C 
HETATM   11  N   UNL     1       6.151  30.587  58.578  1.00  0.00    -0.306 N 
HETATM   12  H   UNL     1       5.181  30.325  58.651  1.00  0.00     0.170 HD
HETATM   13  O   UNL     1       7.688  32.289  58.977  1.00  0.00    -0.267 OA
BRANCH  11  14
HETATM   14  C   UNL     1       7.029  29.595  58.172  1.00  0.00     0.160 A 
HETATM   15  N   UNL     1       8.325  29.522  58.486  1.00  0.00    -0.110 NA
HETATM   16  O   UNL     1       8.790  28.337  57.956  1.00  0.00    -0.216 OA
HETATM   17  C   UNL     1       7.774  27.694  57.330  1.00  0.00     0.078 A 
HETATM   18  C   UNL     1       8.093  26.374  56.761  1.00  0.00     0.079 C 
HETATM   19  C   UNL     1       6.642  28.468  57.405  1.00  0.00     0.087 A 
ENDBRANCH  11  14
ENDBRANCH   6  10
BRANCH   5  20
HETATM   20  C   UNL     1       4.143  33.362  57.659  1.00  0.00    -0.031 A 
HETATM   21  C   UNL     1       4.648  34.670  57.570  1.00  0.00     0.012 A 
HETATM   22  C   UNL     1       4.582  35.382  56.369  1.00  0.00     0.037 A 
HETATM   23  C   UNL     1       3.998  34.794  55.253  1.00  0.00     0.065 A 
HETATM   24  C   UNL     1       3.479  33.509  55.319  1.00  0.00     0.037 A 
HETATM   25  C   UNL     1       3.549  32.794  56.517  1.00  0.00     0.012 A 
BRANCH  23  26
HETATM   26  O   UNL     1       3.916  35.452  54.063  1.00  0.00    -0.361 OA
HETATM   27  H   UNL     1       4.283  34.879  53.371  1.00  0.00     0.217 HD
ENDBRANCH  23  26
ENDBRANCH   5  20
BRANCH   1  28
HETATM   28  C   UNL     1       4.665  34.732  62.644  1.00  0.00     0.048 A 
HETATM   29  C   UNL     1       4.506  34.028  63.854  1.00  0.00     0.037 A 
HETATM   30  C   UNL     1       4.609  34.677  65.089  1.00  0.00    -0.060 A 
HETATM   31  C   UNL     1       4.397  33.913  66.362  1.00  0.00     0.048 C 
HETATM   32  C   UNL     1       4.936  36.033  65.112  1.00  0.00     0.007 A 
HETATM   33  C   UNL     1       5.098  36.741  63.919  1.00  0.00     0.009 A 
HETATM   34  C   UNL     1       4.940  36.112  62.672  1.00  0.00    -0.035 A 
HETATM   35  C   UNL     1       5.056  36.966  61.441  1.00  0.00     0.050 C 
ENDBRANCH   1  28
TORSDOF 5
ENDMDL
MODEL 9
REMARK VINA RESULT:      -7.4      2.045      3.137
REMARK  5 active torsions:
REMARK  status: ('A' for Active; 'I' for Inactive)
REMARK    1  A    between atoms: C_4  and  N_5 
REMARK    2  A    between atoms: C_9  and  C_10 
REMARK    3  A    between atoms: C_13  and  O_14 
REMARK    4  A    between atoms: C_17  and  C_18 
REMARK       I    between atoms: C_18  and  N_19 
REMARK    5  A    between atoms: N_19  and  C_20 
ROOT
HETATM    1  N   UNL     1       5.646  30.244  56.262  1.00  0.00    -0.292 N 
HETATM    2  C   UNL     1       7.032  30.090  56.489  1.00  0.00     0.179 C 
HETATM    3  S   UNL     1       7.970  30.763  57.712  1.00  0.00    -0.040 SA
HETATM    4  N   UNL     1       7.710  29.298  55.603  1.00  0.00    -0.354 N 
HETATM    5  C   UNL     1       7.102  28.265  54.796  1.00  0.00     0.158 C 
HETATM    6  C   UNL     1       5.677  28.621  54.503  1.00  0.00     0.060 C 
HETATM    7  C   UNL     1       4.990  29.544  55.218  1.00  0.00     0.030 C 
HETATM    8  C   UNL     1       3.532  29.872  54.950  1.00  0.00     0.070 C 
HETATM    9  H   UNL     1       8.684  29.158  55.845  1.00  0.00     0.163 HD
ENDROOT
BRANCH   6  10
HETATM   10  C   UNL     1       5.094  27.846  53.364  1.00  0.00     0.257 C 
HETATM   11  N   UNL     1       5.346  28.401  52.128  1.00  0.00    -0.306 N 
HETATM   12  H   UNL     1       5.911  29.233  52.061  1.00  0.00     0.170 HD
HETATM   13  O   UNL     1       4.493  26.805  53.593  1.00  0.00    -0.267 OA
BRANCH  11  14
HETATM   14  C   UNL     1       4.697  28.000  50.971  1.00  0.00     0.160 A 
HETATM   15  N   UNL     1       3.676  28.635  50.389  1.00  0.00    -0.110 NA
HETATM   16  O   UNL     1       3.403  27.951  49.223  1.00  0.00    -0.216 OA
HETATM   17  C   UNL     1       4.265  26.911  49.100  1.00  0.00     0.078 A 
HETATM   18  C   UNL     1       4.147  26.112  47.868  1.00  0.00     0.079 C 
HETATM   19  C   UNL     1       5.083  26.875  50.202  1.00  0.00     0.087 A 
ENDBRANCH  11  14
ENDBRANCH   6  10
BRANCH   5  20
HETATM   20  C   UNL     1       7.340  26.911  55.447  1.00  0.00    -0.031 A 
HETATM   21  C   UNL     1       7.577  25.752  54.690  1.00  0.00     0.012 A 
HETATM   22  C   UNL     1       7.777  24.518  55.314  1.00  0.00     0.037 A 
HETATM   23  C   UNL     1       7.729  24.434  56.701  1.00  0.00     0.065 A 
HETATM   24  C   UNL     1       7.483  25.562  57.472  1.00  0.00     0.037 A 
HETATM   25  C   UNL     1       7.288  26.797  56.849  1.00  0.00     0.012 A 
BRANCH  23  26
HETATM   26  O   UNL     1       7.922  23.251  57.351  1.00  0.00    -0.361 OA
HETATM   27  H   UNL     1       7.173  22.667  57.149  1.00  0.00     0.217 HD
ENDBRANCH  23  26
ENDBRANCH   5  20
BRANCH   1  28
HETATM   28  C   UNL     1       4.944  31.241  57.030  1.00  0.00     0.048 A 
HETATM   29  C   UNL     1       4.404  30.855  58.273  1.00  0.00     0.037 A 
HETATM   30  C   UNL     1       3.697  31.763  59.070  1.00  0.00    -0.060 A 
HETATM   31  C   UNL     1       3.098  31.316  60.371  1.00  0.00     0.048 C 
HETATM   32  C   UNL     1       3.585  33.087  58.644  1.00  0.00     0.007 A 
HETATM   33  C   UNL     1       4.119  33.482  57.416  1.00  0.00     0.009 A 
HETATM   34  C   UNL     1       4.780  32.565  56.581  1.00  0.00    -0.035 A 
HETATM   35  C   UNL     1       5.254  33.058  55.242  1.00  0.00     0.050 C 
ENDBRANCH   1  28
TORSDOF 5
ENDMDL
MODEL 10
REMARK VINA RESULT:      -7.4     17.273     20.760
REMARK  5 active torsions:
REMARK  status: ('A' for Active; 'I' for Inactive)
REMARK    1  A    between atoms: C_4  and  N_5 
REMARK    2  A    between atoms: C_9  and  C_10 
REMARK    3  A    between atoms: C_13  and  O_14 
REMARK    4  A    between atoms: C_17  and  C_18 
REMARK       I    between atoms: C_18  and  N_19 
REMARK    5  A    between atoms: N_19  and  C_20 
ROOT
HETATM    1  N   UNL     1      12.626   9.718  53.718  1.00  0.00    -0.292 N 
HETATM    2  C   UNL     1      12.725   8.642  52.808  1.00  0.00     0.179 C 
HETATM    3  S   UNL     1      11.564   8.074  51.731  1.00  0.00    -0.040 SA
HETATM    4  N   UNL     1      13.912   7.962  52.795  1.00  0.00    -0.354 N 
HETATM    5  C   UNL     1      15.174   8.509  53.239  1.00  0.00     0.158 C 
HETATM    6  C   UNL     1      14.937   9.532  54.306  1.00  0.00     0.060 C 
HETATM    7  C   UNL     1      13.732  10.114  54.511  1.00  0.00     0.030 C 
HETATM    8  C   UNL     1      13.503  11.183  55.564  1.00  0.00     0.070 C 
HETATM    9  H   UNL     1      13.965   7.247  52.079  1.00  0.00     0.163 HD
ENDROOT
BRANCH   6  10
HETATM   10  C   UNL     1      16.163   9.853  55.103  1.00  0.00     0.257 C 
HETATM   11  N   UNL     1      16.422   8.950  56.111  1.00  0.00    -0.306 N 
HETATM   12  H   UNL     1      15.825   8.146  56.227  1.00  0.00     0.170 HD
HETATM   13  O   UNL     1      16.838  10.826  54.798  1.00  0.00    -0.267 OA
BRANCH  11  14
HETATM   14  C   UNL     1      17.343   9.184  57.119  1.00  0.00     0.160 A 
HETATM   15  N   UNL     1      18.365   8.387  57.444  1.00  0.00    -0.110 NA
HETATM   16  O   UNL     1      19.075   9.040  58.429  1.00  0.00    -0.216 OA
HETATM   17  C   UNL     1      18.485  10.233  58.692  1.00  0.00     0.078 A 
HETATM   18  C   UNL     1      19.160  11.087  59.683  1.00  0.00     0.079 C 
HETATM   19  C   UNL     1      17.360  10.357  57.914  1.00  0.00     0.087 A 
ENDBRANCH  11  14
ENDBRANCH   6  10
BRANCH   5  20
HETATM   20  C   UNL     1      15.976   8.968  52.030  1.00  0.00    -0.031 A 
HETATM   21  C   UNL     1      15.496   9.948  51.146  1.00  0.00     0.012 A 
HETATM   22  C   UNL     1      16.247  10.340  50.035  1.00  0.00     0.037 A 
HETATM   23  C   UNL     1      17.480   9.745  49.795  1.00  0.00     0.065 A 
HETATM   24  C   UNL     1      17.972   8.764  50.645  1.00  0.00     0.037 A 
HETATM   25  C   UNL     1      17.223   8.375  51.759  1.00  0.00     0.012 A 
BRANCH  23  26
HETATM   26  O   UNL     1      18.246  10.099  48.725  1.00  0.00    -0.361 OA
HETATM   27  H   UNL     1      17.718  10.673  48.147  1.00  0.00     0.217 HD
ENDBRANCH  23  26
ENDBRANCH   5  20
BRANCH   1  28
HETATM   28  C   UNL     1      11.327  10.310  53.922  1.00  0.00     0.048 A 
HETATM   29  C   UNL     1      10.424   9.639  54.768  1.00  0.00     0.037 A 
HETATM   30  C   UNL     1       9.140  10.143  55.005  1.00  0.00    -0.060 A 
HETATM   31  C   UNL     1       8.183   9.388  55.879  1.00  0.00     0.048 C 
HETATM   32  C   UNL     1       8.781  11.365  54.435  1.00  0.00     0.007 A 
HETATM   33  C   UNL     1       9.669  12.041  53.596  1.00  0.00     0.009 A 
HETATM   34  C   UNL     1      10.940  11.514  53.305  1.00  0.00    -0.035 A 
HETATM   35  C   UNL     1      11.801  12.269  52.331  1.00  0.00     0.050 C 
ENDBRANCH   1  28
TORSDOF 5
ENDMDL
