MODEL 1
REMARK VINA RESULT:      -9.8      0.000      0.000
REMARK  3 active torsions:
REMARK  status: ('A' for Active; 'I' for Inactive)
REMARK    1  A    between atoms: C_6  and  N_7 
REMARK       I    between atoms: N_7  and  C_8 
REMARK    2  A    between atoms: C_8  and  C_9 
REMARK    3  A    between atoms: C_9  and  C_10 
ROOT
HETATM    1  C   UNL     1       6.595  28.032  55.887  1.00  0.00     0.286 C 
HETATM    2  N   UNL     1       7.826  28.767  55.354  1.00  0.00    -0.056 N 
HETATM    3  H   UNL     1       8.251  28.139  54.639  1.00  0.00     0.278 HD
HETATM    4  H   UNL     1       7.554  29.628  54.865  1.00  0.00     0.278 HD
HETATM    5  C   UNL     1       8.800  29.036  56.455  1.00  0.00     0.209 C 
HETATM    6  C   UNL     1       8.109  29.937  57.502  1.00  0.00     0.115 C 
HETATM    7  N   UNL     1       6.817  29.404  57.940  1.00  0.00    -0.353 N 
HETATM    8  C   UNL     1       5.944  28.790  57.061  1.00  0.00     0.249 C 
HETATM    9  O   UNL     1       4.738  28.786  57.275  1.00  0.00    -0.271 OA
HETATM   10  C   UNL     1      10.053  29.700  55.900  1.00  0.00     0.035 C 
HETATM   11  C   UNL     1      11.030  29.988  57.041  1.00  0.00     0.002 C 
HETATM   12  C   UNL     1      10.384  30.793  58.173  1.00  0.00     0.002 C 
HETATM   13  C   UNL     1       9.069  30.179  58.668  1.00  0.00     0.027 C 
HETATM   14  H   UNL     1       6.331  29.901  58.685  1.00  0.00     0.163 HD
ENDROOT
BRANCH   1  15
HETATM   15  C   UNL     1       5.616  27.726  54.746  1.00  0.00     0.146 C 
BRANCH  15  16
HETATM   16  C   UNL     1       5.756  26.266  54.375  1.00  0.00     0.224 C 
HETATM   17  N   UNL     1       6.926  25.677  54.791  1.00  0.00    -0.327 N 
HETATM   18  H   UNL     1       7.511  26.183  55.446  1.00  0.00     0.169 HD
HETATM   19  O   UNL     1       4.811  25.708  53.816  1.00  0.00    -0.273 OA
BRANCH  17  20
HETATM   20  C   UNL     1       7.339  24.353  54.485  1.00  0.00     0.040 A 
HETATM   21  C   UNL     1       7.838  24.064  53.200  1.00  0.00    -0.035 A 
HETATM   22  C   UNL     1       8.243  22.747  52.900  1.00  0.00     0.015 A 
HETATM   23  C   UNL     1       7.986  25.112  52.131  1.00  0.00     0.050 C 
HETATM   24  C   UNL     1       8.144  21.721  53.845  1.00  0.00    -0.061 A 
HETATM   25  C   UNL     1       8.600  20.326  53.532  1.00  0.00     0.048 C 
HETATM   26  C   UNL     1       7.637  22.016  55.108  1.00  0.00     0.009 A 
HETATM   27  C   UNL     1       7.236  23.317  55.422  1.00  0.00     0.030 A 
ENDBRANCH  17  20
ENDBRANCH  15  16
ENDBRANCH   1  15
TORSDOF 3
ENDMDL
MODEL 2
REMARK VINA RESULT:      -9.5      3.063      6.272
REMARK  3 active torsions:
REMARK  status: ('A' for Active; 'I' for Inactive)
REMARK    1  A    between atoms: C_6  and  N_7 
REMARK       I    between atoms: N_7  and  C_8 
REMARK    2  A    between atoms: C_8  and  C_9 
REMARK    3  A    between atoms: C_9  and  C_10 
ROOT
HETATM    1  C   UNL     1       6.992  25.510  56.059  1.00  0.00     0.286 C 
HETATM    2  N   UNL     1       7.518  24.738  54.847  1.00  0.00    -0.056 N 
HETATM    3  H   UNL     1       6.882  24.975  54.055  1.00  0.00     0.278 HD
HETATM    4  H   UNL     1       8.454  25.068  54.582  1.00  0.00     0.278 HD
HETATM    5  C   UNL     1       7.499  23.267  55.108  1.00  0.00     0.209 C 
HETATM    6  C   UNL     1       8.424  22.978  56.311  1.00  0.00     0.115 C 
HETATM    7  N   UNL     1       8.116  23.812  57.474  1.00  0.00    -0.353 N 
HETATM    8  C   UNL     1       7.758  25.143  57.345  1.00  0.00     0.249 C 
HETATM    9  O   UNL     1       7.970  25.939  58.250  1.00  0.00    -0.271 OA
HETATM   10  C   UNL     1       7.953  22.506  53.870  1.00  0.00     0.035 C 
HETATM   11  C   UNL     1       7.949  21.005  54.160  1.00  0.00     0.002 C 
HETATM   12  C   UNL     1       8.764  20.649  55.406  1.00  0.00     0.002 C 
HETATM   13  C   UNL     1       8.376  21.483  56.633  1.00  0.00     0.027 C 
HETATM   14  H   UNL     1       8.632  23.632  58.333  1.00  0.00     0.163 HD
ENDROOT
BRANCH   1  15
HETATM   15  C   UNL     1       6.979  27.017  55.771  1.00  0.00     0.146 C 
BRANCH  15  16
HETATM   16  C   UNL     1       6.983  27.217  54.271  1.00  0.00     0.224 C 
HETATM   17  N   UNL     1       5.735  27.267  53.695  1.00  0.00    -0.327 N 
HETATM   18  H   UNL     1       4.930  27.346  54.304  1.00  0.00     0.169 HD
HETATM   19  O   UNL     1       8.062  27.395  53.704  1.00  0.00    -0.273 OA
BRANCH  17  20
HETATM   20  C   UNL     1       5.472  27.347  52.302  1.00  0.00     0.040 A 
HETATM   21  C   UNL     1       5.141  26.177  51.592  1.00  0.00    -0.035 A 
HETATM   22  C   UNL     1       4.884  26.262  50.208  1.00  0.00     0.015 A 
HETATM   23  C   UNL     1       5.021  24.831  52.254  1.00  0.00     0.050 C 
HETATM   24  C   UNL     1       4.966  27.479  49.525  1.00  0.00    -0.061 A 
HETATM   25  C   UNL     1       4.667  27.572  48.057  1.00  0.00     0.048 C 
HETATM   26  C   UNL     1       5.307  28.628  50.235  1.00  0.00     0.009 A 
HETATM   27  C   UNL     1       5.560  28.560  51.607  1.00  0.00     0.030 A 
ENDBRANCH  17  20
ENDBRANCH  15  16
ENDBRANCH   1  15
TORSDOF 3
ENDMDL
MODEL 3
REMARK VINA RESULT:      -9.4      4.083      7.409
REMARK  3 active torsions:
REMARK  status: ('A' for Active; 'I' for Inactive)
REMARK    1  A    between atoms: C_6  and  N_7 
REMARK       I    between atoms: N_7  and  C_8 
REMARK    2  A    between atoms: C_8  and  C_9 
REMARK    3  A    between atoms: C_9  and  C_10 
ROOT
HETATM    1  C   UNL     1       7.043  24.508  53.183  1.00  0.00     0.286 C 
HETATM    2  N   UNL     1       7.902  23.299  52.807  1.00  0.00    -0.056 N 
HETATM    3  H   UNL     1       7.497  22.920  51.924  1.00  0.00     0.278 HD
HETATM    4  H   UNL     1       8.864  23.588  52.589  1.00  0.00     0.278 HD
HETATM    5  C   UNL     1       7.861  22.265  53.884  1.00  0.00     0.209 C 
HETATM    6  C   UNL     1       8.435  22.890  55.176  1.00  0.00     0.115 C 
HETATM    7  N   UNL     1       7.797  24.162  55.519  1.00  0.00    -0.353 N 
HETATM    8  C   UNL     1       7.444  25.088  54.554  1.00  0.00     0.249 C 
HETATM    9  O   UNL     1       7.377  26.280  54.823  1.00  0.00    -0.271 OA
HETATM   10  C   UNL     1       8.658  21.037  53.467  1.00  0.00     0.035 C 
HETATM   11  C   UNL     1       8.625  19.998  54.588  1.00  0.00     0.002 C 
HETATM   12  C   UNL     1       9.083  20.573  55.932  1.00  0.00     0.002 C 
HETATM   13  C   UNL     1       8.351  21.866  56.309  1.00  0.00     0.027 C 
HETATM   14  H   UNL     1       8.066  24.602  56.397  1.00  0.00     0.163 HD
ENDROOT
BRANCH   1  15
HETATM   15  C   UNL     1       7.059  25.550  52.056  1.00  0.00     0.146 C 
BRANCH  15  16
HETATM   16  C   UNL     1       5.686  25.592  51.424  1.00  0.00     0.224 C 
HETATM   17  N   UNL     1       5.606  26.337  50.271  1.00  0.00    -0.327 N 
HETATM   18  H   UNL     1       6.469  26.645  49.840  1.00  0.00     0.169 HD
HETATM   19  O   UNL     1       4.786  24.914  51.924  1.00  0.00    -0.273 OA
BRANCH  17  20
HETATM   20  C   UNL     1       4.417  26.613  49.547  1.00  0.00     0.040 A 
HETATM   21  C   UNL     1       3.747  27.835  49.756  1.00  0.00    -0.035 A 
HETATM   22  C   UNL     1       2.564  28.102  49.036  1.00  0.00     0.015 A 
HETATM   23  C   UNL     1       4.256  28.890  50.700  1.00  0.00     0.050 C 
HETATM   24  C   UNL     1       2.034  27.175  48.134  1.00  0.00    -0.061 A 
HETATM   25  C   UNL     1       0.789  27.472  47.350  1.00  0.00     0.048 C 
HETATM   26  C   UNL     1       2.698  25.965  47.946  1.00  0.00     0.009 A 
HETATM   27  C   UNL     1       3.873  25.687  48.647  1.00  0.00     0.030 A 
ENDBRANCH  17  20
ENDBRANCH  15  16
ENDBRANCH   1  15
TORSDOF 3
ENDMDL
MODEL 4
REMARK VINA RESULT:      -9.4      1.550      1.954
REMARK  3 active torsions:
REMARK  status: ('A' for Active; 'I' for Inactive)
REMARK    1  A    between atoms: C_6  and  N_7 
REMARK       I    between atoms: N_7  and  C_8 
REMARK    2  A    between atoms: C_8  and  C_9 
REMARK    3  A    between atoms: C_9  and  C_10 
ROOT
HETATM    1  C   UNL     1       6.718  28.870  57.002  1.00  0.00     0.286 C 
HETATM    2  N   UNL     1       8.015  29.679  57.071  1.00  0.00    -0.056 N 
HETATM    3  H   UNL     1       8.787  29.007  56.870  1.00  0.00     0.278 HD
HETATM    4  H   UNL     1       8.043  30.390  56.330  1.00  0.00     0.278 HD
HETATM    5  C   UNL     1       8.191  30.282  58.427  1.00  0.00     0.209 C 
HETATM    6  C   UNL     1       7.005  31.236  58.690  1.00  0.00     0.115 C 
HETATM    7  N   UNL     1       5.707  30.599  58.463  1.00  0.00    -0.353 N 
HETATM    8  C   UNL     1       5.498  29.714  57.420  1.00  0.00     0.249 C 
HETATM    9  O   UNL     1       4.383  29.565  56.938  1.00  0.00    -0.271 OA
HETATM   10  C   UNL     1       9.519  31.021  58.508  1.00  0.00     0.035 C 
HETATM   11  C   UNL     1       9.675  31.650  59.893  1.00  0.00     0.002 C 
HETATM   12  C   UNL     1       8.481  32.533  60.270  1.00  0.00     0.002 C 
HETATM   13  C   UNL     1       7.134  31.823  60.096  1.00  0.00     0.027 C 
HETATM   14  H   UNL     1       4.872  31.138  58.685  1.00  0.00     0.163 HD
ENDROOT
BRANCH   1  15
HETATM   15  C   UNL     1       6.563  28.224  55.619  1.00  0.00     0.146 C 
BRANCH  15  16
HETATM   16  C   UNL     1       7.181  26.844  55.664  1.00  0.00     0.224 C 
HETATM   17  N   UNL     1       6.838  26.026  54.614  1.00  0.00    -0.327 N 
HETATM   18  H   UNL     1       6.363  26.440  53.820  1.00  0.00     0.169 HD
HETATM   19  O   UNL     1       7.981  26.587  56.565  1.00  0.00    -0.273 OA
BRANCH  17  20
HETATM   20  C   UNL     1       7.204  24.661  54.476  1.00  0.00     0.040 A 
HETATM   21  C   UNL     1       7.643  24.184  53.226  1.00  0.00    -0.035 A 
HETATM   22  C   UNL     1       8.001  22.827  53.095  1.00  0.00     0.015 A 
HETATM   23  C   UNL     1       7.774  25.073  52.018  1.00  0.00     0.050 C 
HETATM   24  C   UNL     1       7.915  21.942  54.174  1.00  0.00    -0.061 A 
HETATM   25  C   UNL     1       8.322  20.504  54.039  1.00  0.00     0.048 C 
HETATM   26  C   UNL     1       7.467  22.422  55.402  1.00  0.00     0.009 A 
HETATM   27  C   UNL     1       7.113  23.765  55.549  1.00  0.00     0.030 A 
ENDBRANCH  17  20
ENDBRANCH  15  16
ENDBRANCH   1  15
TORSDOF 3
ENDMDL
MODEL 5
REMARK VINA RESULT:      -9.1      3.215      6.487
REMARK  3 active torsions:
REMARK  status: ('A' for Active; 'I' for Inactive)
REMARK    1  A    between atoms: C_6  and  N_7 
REMARK       I    between atoms: N_7  and  C_8 
REMARK    2  A    between atoms: C_8  and  C_9 
REMARK    3  A    between atoms: C_9  and  C_10 
ROOT
HETATM    1  C   UNL     1       7.053  25.120  56.002  1.00  0.00     0.286 C 
HETATM    2  N   UNL     1       7.498  24.354  54.755  1.00  0.00    -0.056 N 
HETATM    3  H   UNL     1       6.816  24.599  54.006  1.00  0.00     0.278 HD
HETATM    4  H   UNL     1       8.418  24.681  54.434  1.00  0.00     0.278 HD
HETATM    5  C   UNL     1       7.488  22.881  55.006  1.00  0.00     0.209 C 
HETATM    6  C   UNL     1       8.484  22.578  56.147  1.00  0.00     0.115 C 
HETATM    7  N   UNL     1       8.254  23.406  57.332  1.00  0.00    -0.353 N 
HETATM    8  C   UNL     1       7.896  24.739  57.235  1.00  0.00     0.249 C 
HETATM    9  O   UNL     1       8.168  25.528  58.131  1.00  0.00    -0.271 OA
HETATM   10  C   UNL     1       7.860  22.127  53.737  1.00  0.00     0.035 C 
HETATM   11  C   UNL     1       7.866  20.623  54.016  1.00  0.00     0.002 C 
HETATM   12  C   UNL     1       8.756  20.254  55.207  1.00  0.00     0.002 C 
HETATM   13  C   UNL     1       8.450  21.082  56.461  1.00  0.00     0.027 C 
HETATM   14  H   UNL     1       8.822  23.218  58.157  1.00  0.00     0.163 HD
ENDROOT
BRANCH   1  15
HETATM   15  C   UNL     1       7.030  26.629  55.726  1.00  0.00     0.146 C 
BRANCH  15  16
HETATM   16  C   UNL     1       6.887  26.839  54.235  1.00  0.00     0.224 C 
HETATM   17  N   UNL     1       5.590  26.858  53.778  1.00  0.00    -0.327 N 
HETATM   18  H   UNL     1       4.844  26.909  54.461  1.00  0.00     0.169 HD
HETATM   19  O   UNL     1       7.903  27.051  53.570  1.00  0.00    -0.273 OA
BRANCH  17  20
HETATM   20  C   UNL     1       5.195  26.940  52.417  1.00  0.00     0.040 A 
HETATM   21  C   UNL     1       4.685  28.154  51.917  1.00  0.00    -0.035 A 
HETATM   22  C   UNL     1       4.291  28.229  50.566  1.00  0.00     0.015 A 
HETATM   23  C   UNL     1       4.566  29.395  52.760  1.00  0.00     0.050 C 
HETATM   24  C   UNL     1       4.380  27.122  49.717  1.00  0.00    -0.061 A 
HETATM   25  C   UNL     1       3.984  27.211  48.272  1.00  0.00     0.048 C 
HETATM   26  C   UNL     1       4.874  25.923  50.226  1.00  0.00     0.009 A 
HETATM   27  C   UNL     1       5.273  25.834  51.561  1.00  0.00     0.030 A 
ENDBRANCH  17  20
ENDBRANCH  15  16
ENDBRANCH   1  15
TORSDOF 3
ENDMDL
MODEL 6
REMARK VINA RESULT:      -9.1      4.041      6.907
REMARK  3 active torsions:
REMARK  status: ('A' for Active; 'I' for Inactive)
REMARK    1  A    between atoms: C_6  and  N_7 
REMARK       I    between atoms: N_7  and  C_8 
REMARK    2  A    between atoms: C_8  and  C_9 
REMARK    3  A    between atoms: C_9  and  C_10 
ROOT
HETATM    1  C   UNL     1       5.522  27.498  51.211  1.00  0.00     0.286 C 
HETATM    2  N   UNL     1       4.574  26.371  50.795  1.00  0.00    -0.056 N 
HETATM    3  H   UNL     1       5.035  25.482  51.088  1.00  0.00     0.278 HD
HETATM    4  H   UNL     1       3.689  26.429  51.313  1.00  0.00     0.278 HD
HETATM    5  C   UNL     1       4.357  26.380  49.317  1.00  0.00     0.209 C 
HETATM    6  C   UNL     1       3.710  27.730  48.932  1.00  0.00     0.115 C 
HETATM    7  N   UNL     1       4.452  28.880  49.452  1.00  0.00    -0.353 N 
HETATM    8  C   UNL     1       5.030  28.869  50.709  1.00  0.00     0.249 C 
HETATM    9  O   UNL     1       5.209  29.912  51.326  1.00  0.00    -0.271 OA
HETATM   10  C   UNL     1       3.473  25.211  48.906  1.00  0.00     0.035 C 
HETATM   11  C   UNL     1       3.242  25.247  47.395  1.00  0.00     0.002 C 
HETATM   12  C   UNL     1       2.696  26.597  46.920  1.00  0.00     0.002 C 
HETATM   13  C   UNL     1       3.529  27.785  47.415  1.00  0.00     0.027 C 
HETATM   14  H   UNL     1       4.133  29.808  49.181  1.00  0.00     0.163 HD
ENDROOT
BRANCH   1  15
HETATM   15  C   UNL     1       5.771  27.459  52.724  1.00  0.00     0.146 C 
BRANCH  15  16
HETATM   16  C   UNL     1       5.821  26.012  53.163  1.00  0.00     0.224 C 
HETATM   17  N   UNL     1       7.084  25.531  53.414  1.00  0.00    -0.327 N 
HETATM   18  H   UNL     1       7.848  26.194  53.462  1.00  0.00     0.169 HD
HETATM   19  O   UNL     1       4.759  25.412  53.337  1.00  0.00    -0.273 OA
BRANCH  17  20
HETATM   20  C   UNL     1       7.406  24.188  53.741  1.00  0.00     0.040 A 
HETATM   21  C   UNL     1       7.379  23.778  55.088  1.00  0.00    -0.035 A 
HETATM   22  C   UNL     1       7.703  22.444  55.408  1.00  0.00     0.015 A 
HETATM   23  C   UNL     1       6.990  24.701  56.211  1.00  0.00     0.050 C 
HETATM   24  C   UNL     1       8.066  21.524  54.419  1.00  0.00    -0.061 A 
HETATM   25  C   UNL     1       8.385  20.097  54.758  1.00  0.00     0.048 C 
HETATM   26  C   UNL     1       8.101  21.944  53.091  1.00  0.00     0.009 A 
HETATM   27  C   UNL     1       7.779  23.261  52.758  1.00  0.00     0.030 A 
ENDBRANCH  17  20
ENDBRANCH  15  16
ENDBRANCH   1  15
TORSDOF 3
ENDMDL
MODEL 7
REMARK VINA RESULT:      -9.0      1.577      7.750
REMARK  3 active torsions:
REMARK  status: ('A' for Active; 'I' for Inactive)
REMARK    1  A    between atoms: C_6  and  N_7 
REMARK       I    between atoms: N_7  and  C_8 
REMARK    2  A    between atoms: C_8  and  C_9 
REMARK    3  A    between atoms: C_9  and  C_10 
ROOT
HETATM    1  C   UNL     1       7.453  25.098  54.406  1.00  0.00     0.286 C 
HETATM    2  N   UNL     1       7.090  23.891  55.273  1.00  0.00    -0.056 N 
HETATM    3  H   UNL     1       7.177  24.209  56.263  1.00  0.00     0.278 HD
HETATM    4  H   UNL     1       6.108  23.624  55.135  1.00  0.00     0.278 HD
HETATM    5  C   UNL     1       8.020  22.752  55.010  1.00  0.00     0.209 C 
HETATM    6  C   UNL     1       7.881  22.347  53.526  1.00  0.00     0.115 C 
HETATM    7  N   UNL     1       8.027  23.483  52.615  1.00  0.00    -0.353 N 
HETATM    8  C   UNL     1       7.504  24.730  52.910  1.00  0.00     0.249 C 
HETATM    9  O   UNL     1       7.194  25.507  52.017  1.00  0.00    -0.271 OA
HETATM   10  C   UNL     1       7.698  21.584  55.931  1.00  0.00     0.035 C 
HETATM   11  C   UNL     1       8.643  20.419  55.635  1.00  0.00     0.002 C 
HETATM   12  C   UNL     1       8.638  20.025  54.155  1.00  0.00     0.002 C 
HETATM   13  C   UNL     1       8.866  21.218  53.219  1.00  0.00     0.027 C 
HETATM   14  H   UNL     1       8.022  23.289  51.615  1.00  0.00     0.163 HD
ENDROOT
BRANCH   1  15
HETATM   15  C   UNL     1       6.518  26.276  54.708  1.00  0.00     0.146 C 
BRANCH  15  16
HETATM   16  C   UNL     1       7.032  26.992  55.938  1.00  0.00     0.224 C 
HETATM   17  N   UNL     1       7.310  28.326  55.753  1.00  0.00    -0.327 N 
HETATM   18  H   UNL     1       6.995  28.766  54.896  1.00  0.00     0.169 HD
HETATM   19  O   UNL     1       7.088  26.371  57.000  1.00  0.00    -0.273 OA
BRANCH  17  20
HETATM   20  C   UNL     1       7.893  29.189  56.716  1.00  0.00     0.040 A 
HETATM   21  C   UNL     1       7.061  29.997  57.516  1.00  0.00    -0.035 A 
HETATM   22  C   UNL     1       7.646  30.855  58.469  1.00  0.00     0.015 A 
HETATM   23  C   UNL     1       5.559  29.965  57.417  1.00  0.00     0.050 C 
HETATM   24  C   UNL     1       9.033  30.933  58.627  1.00  0.00    -0.061 A 
HETATM   25  C   UNL     1       9.652  31.828  59.660  1.00  0.00     0.048 C 
HETATM   26  C   UNL     1       9.846  30.140  57.821  1.00  0.00     0.009 A 
HETATM   27  C   UNL     1       9.282  29.281  56.875  1.00  0.00     0.030 A 
ENDBRANCH  17  20
ENDBRANCH  15  16
ENDBRANCH   1  15
TORSDOF 3
ENDMDL
MODEL 8
REMARK VINA RESULT:      -8.9      2.464      4.092
REMARK  3 active torsions:
REMARK  status: ('A' for Active; 'I' for Inactive)
REMARK    1  A    between atoms: C_6  and  N_7 
REMARK       I    between atoms: N_7  and  C_8 
REMARK    2  A    between atoms: C_8  and  C_9 
REMARK    3  A    between atoms: C_9  and  C_10 
ROOT
HETATM    1  C   UNL     1       6.058  28.147  55.695  1.00  0.00     0.286 C 
HETATM    2  N   UNL     1       4.804  27.756  54.911  1.00  0.00    -0.056 N 
HETATM    3  H   UNL     1       4.978  26.795  54.546  1.00  0.00     0.278 HD
HETATM    4  H   UNL     1       3.990  27.691  55.534  1.00  0.00     0.278 HD
HETATM    5  C   UNL     1       4.567  28.706  53.783  1.00  0.00     0.209 C 
HETATM    6  C   UNL     1       4.353  30.117  54.375  1.00  0.00     0.115 C 
HETATM    7  N   UNL     1       5.421  30.510  55.296  1.00  0.00    -0.353 N 
HETATM    8  C   UNL     1       5.996  29.610  56.176  1.00  0.00     0.249 C 
HETATM    9  O   UNL     1       6.497  29.993  57.225  1.00  0.00    -0.271 OA
HETATM   10  C   UNL     1       3.361  28.265  52.966  1.00  0.00     0.035 C 
HETATM   11  C   UNL     1       3.118  29.258  51.828  1.00  0.00     0.002 C 
HETATM   12  C   UNL     1       2.999  30.700  52.329  1.00  0.00     0.002 C 
HETATM   13  C   UNL     1       4.165  31.117  53.233  1.00  0.00     0.027 C 
HETATM   14  H   UNL     1       5.394  31.456  55.673  1.00  0.00     0.163 HD
ENDROOT
BRANCH   1  15
HETATM   15  C   UNL     1       6.316  27.147  56.829  1.00  0.00     0.146 C 
BRANCH  15  16
HETATM   16  C   UNL     1       6.278  25.749  56.251  1.00  0.00     0.224 C 
HETATM   17  N   UNL     1       7.456  25.332  55.676  1.00  0.00    -0.327 N 
HETATM   18  H   UNL     1       8.287  25.890  55.830  1.00  0.00     0.169 HD
HETATM   19  O   UNL     1       5.256  25.078  56.401  1.00  0.00    -0.273 OA
BRANCH  17  20
HETATM   20  C   UNL     1       7.648  24.109  54.982  1.00  0.00     0.040 A 
HETATM   21  C   UNL     1       7.777  24.122  53.579  1.00  0.00    -0.035 A 
HETATM   22  C   UNL     1       7.964  22.904  52.895  1.00  0.00     0.015 A 
HETATM   23  C   UNL     1       7.750  25.393  52.773  1.00  0.00     0.050 C 
HETATM   24  C   UNL     1       8.008  21.684  53.576  1.00  0.00    -0.061 A 
HETATM   25  C   UNL     1       8.234  20.391  52.848  1.00  0.00     0.048 C 
HETATM   26  C   UNL     1       7.867  21.682  54.961  1.00  0.00     0.009 A 
HETATM   27  C   UNL     1       7.685  22.881  55.654  1.00  0.00     0.030 A 
ENDBRANCH  17  20
ENDBRANCH  15  16
ENDBRANCH   1  15
TORSDOF 3
ENDMDL
MODEL 9
REMARK VINA RESULT:      -8.2      2.622      7.652
REMARK  3 active torsions:
REMARK  status: ('A' for Active; 'I' for Inactive)
REMARK    1  A    between atoms: C_6  and  N_7 
REMARK       I    between atoms: N_7  and  C_8 
REMARK    2  A    between atoms: C_8  and  C_9 
REMARK    3  A    between atoms: C_9  and  C_10 
ROOT
HETATM    1  C   UNL     1       7.525  25.117  55.887  1.00  0.00     0.286 C 
HETATM    2  N   UNL     1       7.924  24.466  54.561  1.00  0.00    -0.056 N 
HETATM    3  H   UNL     1       7.336  24.918  53.828  1.00  0.00     0.278 HD
HETATM    4  H   UNL     1       8.901  24.681  54.328  1.00  0.00     0.278 HD
HETATM    5  C   UNL     1       7.670  22.994  54.596  1.00  0.00     0.209 C 
HETATM    6  C   UNL     1       8.533  22.382  55.721  1.00  0.00     0.115 C 
HETATM    7  N   UNL     1       8.360  23.067  57.003  1.00  0.00    -0.353 N 
HETATM    8  C   UNL     1       8.220  24.441  57.085  1.00  0.00     0.249 C 
HETATM    9  O   UNL     1       8.553  25.046  58.095  1.00  0.00    -0.271 OA
HETATM   10  C   UNL     1       8.000  22.370  53.248  1.00  0.00     0.035 C 
HETATM   11  C   UNL     1       7.755  20.861  53.307  1.00  0.00     0.002 C 
HETATM   12  C   UNL     1       8.500  20.194  54.467  1.00  0.00     0.002 C 
HETATM   13  C   UNL     1       8.247  20.882  55.814  1.00  0.00     0.027 C 
HETATM   14  H   UNL     1       8.838  22.678  57.814  1.00  0.00     0.163 HD
ENDROOT
BRANCH   1  15
HETATM   15  C   UNL     1       7.753  26.633  55.830  1.00  0.00     0.146 C 
BRANCH  15  16
HETATM   16  C   UNL     1       6.406  27.317  55.753  1.00  0.00     0.224 C 
HETATM   17  N   UNL     1       6.451  28.630  55.346  1.00  0.00    -0.327 N 
HETATM   18  H   UNL     1       7.321  28.985  54.968  1.00  0.00     0.169 HD
HETATM   19  O   UNL     1       5.394  26.651  55.974  1.00  0.00    -0.273 OA
BRANCH  17  20
HETATM   20  C   UNL     1       5.341  29.514  55.288  1.00  0.00     0.040 A 
HETATM   21  C   UNL     1       5.052  30.336  56.396  1.00  0.00    -0.035 A 
HETATM   22  C   UNL     1       3.947  31.209  56.334  1.00  0.00     0.015 A 
HETATM   23  C   UNL     1       5.893  30.343  57.644  1.00  0.00     0.050 C 
HETATM   24  C   UNL     1       3.125  31.266  55.205  1.00  0.00    -0.061 A 
HETATM   25  C   UNL     1       1.965  32.215  55.131  1.00  0.00     0.048 C 
HETATM   26  C   UNL     1       3.413  30.440  54.120  1.00  0.00     0.009 A 
HETATM   27  C   UNL     1       4.506  29.572  54.165  1.00  0.00     0.030 A 
ENDBRANCH  17  20
ENDBRANCH  15  16
ENDBRANCH   1  15
TORSDOF 3
ENDMDL
MODEL 10
REMARK VINA RESULT:      -8.2      1.781      7.281
REMARK  3 active torsions:
REMARK  status: ('A' for Active; 'I' for Inactive)
REMARK    1  A    between atoms: C_6  and  N_7 
REMARK       I    between atoms: N_7  and  C_8 
REMARK    2  A    between atoms: C_8  and  C_9 
REMARK    3  A    between atoms: C_9  and  C_10 
ROOT
HETATM    1  C   UNL     1       5.294  26.763  54.824  1.00  0.00     0.286 C 
HETATM    2  N   UNL     1       6.498  26.548  53.905  1.00  0.00    -0.056 N 
HETATM    3  H   UNL     1       6.254  26.999  52.997  1.00  0.00     0.278 HD
HETATM    4  H   UNL     1       7.325  27.040  54.265  1.00  0.00     0.278 HD
HETATM    5  C   UNL     1       6.760  25.090  53.708  1.00  0.00     0.209 C 
HETATM    6  C   UNL     1       7.078  24.465  55.084  1.00  0.00     0.115 C 
HETATM    7  N   UNL     1       6.064  24.777  56.094  1.00  0.00    -0.353 N 
HETATM    8  C   UNL     1       5.461  26.020  56.164  1.00  0.00     0.249 C 
HETATM    9  O   UNL     1       5.015  26.442  57.224  1.00  0.00    -0.271 OA
HETATM   10  C   UNL     1       7.912  24.888  52.733  1.00  0.00     0.035 C 
HETATM   11  C   UNL     1       8.182  23.393  52.559  1.00  0.00     0.002 C 
HETATM   12  C   UNL     1       8.405  22.680  53.896  1.00  0.00     0.002 C 
HETATM   13  C   UNL     1       7.294  22.961  54.915  1.00  0.00     0.027 C 
HETATM   14  H   UNL     1       6.161  24.342  57.009  1.00  0.00     0.163 HD
ENDROOT
BRANCH   1  15
HETATM   15  C   UNL     1       5.008  28.260  54.992  1.00  0.00     0.146 C 
BRANCH  15  16
HETATM   16  C   UNL     1       6.157  28.884  55.753  1.00  0.00     0.224 C 
HETATM   17  N   UNL     1       5.845  29.304  57.024  1.00  0.00    -0.327 N 
HETATM   18  H   UNL     1       4.957  29.017  57.418  1.00  0.00     0.169 HD
HETATM   19  O   UNL     1       7.271  28.899  55.227  1.00  0.00    -0.273 OA
BRANCH  17  20
HETATM   20  C   UNL     1       6.716  30.005  57.899  1.00  0.00     0.040 A 
HETATM   21  C   UNL     1       6.376  31.307  58.316  1.00  0.00    -0.035 A 
HETATM   22  C   UNL     1       7.246  32.000  59.182  1.00  0.00     0.015 A 
HETATM   23  C   UNL     1       5.101  31.988  57.897  1.00  0.00     0.050 C 
HETATM   24  C   UNL     1       8.444  31.430  59.622  1.00  0.00    -0.061 A 
HETATM   25  C   UNL     1       9.356  32.160  60.565  1.00  0.00     0.048 C 
HETATM   26  C   UNL     1       8.776  30.147  59.193  1.00  0.00     0.009 A 
HETATM   27  C   UNL     1       7.923  29.446  58.339  1.00  0.00     0.030 A 
ENDBRANCH  17  20
ENDBRANCH  15  16
ENDBRANCH   1  15
TORSDOF 3
ENDMDL
