MODEL 1
REMARK VINA RESULT:      -9.2      0.000      0.000
REMARK  5 active torsions:
REMARK  status: ('A' for Active; 'I' for Inactive)
REMARK    1  A    between atoms: C_6  and  N_7 
REMARK       I    between atoms: N_7  and  C_8 
REMARK    2  A    between atoms: C_8  and  C_9 
REMARK    3  A    between atoms: C_9  and  O_10 
REMARK    4  A    between atoms: O_10  and  C_11 
REMARK    5  A    between atoms: C_19  and  C_20 
ROOT
HETATM    1  C   UNL     1       7.591  21.329  54.835  1.00  0.00     0.073 C 
HETATM    2  C   UNL     1       7.841  22.565  55.619  1.00  0.00     0.065 A 
HETATM    3  N   UNL     1       8.425  22.485  56.821  1.00  0.00    -0.177 NA
HETATM    4  N   UNL     1       8.515  23.765  57.220  1.00  0.00    -0.262 N 
HETATM    5  H   UNL     1       8.934  23.981  58.121  1.00  0.00     0.191 HD
HETATM    6  C   UNL     1       7.988  24.665  56.330  1.00  0.00     0.137 A 
HETATM    7  C   UNL     1       7.548  23.912  55.259  1.00  0.00     0.046 A 
ENDROOT
BRANCH   6   8
HETATM    8  N   UNL     1       7.945  26.029  56.553  1.00  0.00    -0.309 N 
HETATM    9  C   UNL     1       6.800  26.669  56.996  1.00  0.00     0.252 C 
HETATM   10  O   UNL     1       5.730  26.105  57.227  1.00  0.00    -0.270 OA
HETATM   11  H   UNL     1       8.767  26.584  56.333  1.00  0.00     0.170 HD
BRANCH   9  12
HETATM   12  C   UNL     1       6.988  28.174  57.244  1.00  0.00     0.217 C 
HETATM   13  C   UNL     1       5.617  28.838  57.336  1.00  0.00     0.050 C 
BRANCH  12  14
HETATM   14  O   UNL     1       7.661  28.433  58.476  1.00  0.00    -0.337 OA
BRANCH  14  15
HETATM   15  C   UNL     1       8.488  29.522  58.524  1.00  0.00     0.070 A 
HETATM   16  C   UNL     1       9.474  29.550  57.534  1.00  0.00     0.037 A 
HETATM   17  C   UNL     1      10.388  30.604  57.471  1.00  0.00     0.003 A 
HETATM   18  C   UNL     1      10.311  31.645  58.391  1.00  0.00     0.000 A 
HETATM   19  C   UNL     1       9.319  31.632  59.371  1.00  0.00     0.003 A 
HETATM   20  C   UNL     1       8.407  30.575  59.437  1.00  0.00     0.037 A 
ENDBRANCH  14  15
ENDBRANCH  12  14
ENDBRANCH   9  12
ENDBRANCH   6   8
BRANCH   7  21
HETATM   21  C   UNL     1       6.949  24.447  54.053  1.00  0.00    -0.020 A 
HETATM   22  C   UNL     1       5.590  24.788  54.028  1.00  0.00     0.014 A 
HETATM   23  C   UNL     1       5.017  25.324  52.871  1.00  0.00     0.020 A 
HETATM   24  C   UNL     1       5.806  25.525  51.740  1.00  0.00     0.011 A 
HETATM   25 BR   UNL     1       5.035  26.258  50.178  1.00  0.00    -0.051 Br
HETATM   26  C   UNL     1       7.160  25.193  51.754  1.00  0.00     0.020 A 
HETATM   27  C   UNL     1       7.730  24.655  52.910  1.00  0.00     0.014 A 
ENDBRANCH   7  21
TORSDOF 5
ENDMDL
MODEL 2
REMARK VINA RESULT:      -8.7      2.653      4.040
REMARK  5 active torsions:
REMARK  status: ('A' for Active; 'I' for Inactive)
REMARK    1  A    between atoms: C_6  and  N_7 
REMARK       I    between atoms: N_7  and  C_8 
REMARK    2  A    between atoms: C_8  and  C_9 
REMARK    3  A    between atoms: C_9  and  O_10 
REMARK    4  A    between atoms: O_10  and  C_11 
REMARK    5  A    between atoms: C_19  and  C_20 
ROOT
HETATM    1  C   UNL     1       5.143  26.379  50.550  1.00  0.00     0.073 C 
HETATM    2  C   UNL     1       5.664  27.205  51.669  1.00  0.00     0.065 A 
HETATM    3  N   UNL     1       5.441  28.525  51.683  1.00  0.00    -0.177 NA
HETATM    4  N   UNL     1       6.018  28.936  52.825  1.00  0.00    -0.262 N 
HETATM    5  H   UNL     1       5.986  29.920  53.078  1.00  0.00     0.191 HD
HETATM    6  C   UNL     1       6.626  27.933  53.535  1.00  0.00     0.137 A 
HETATM    7  C   UNL     1       6.402  26.779  52.811  1.00  0.00     0.046 A 
ENDROOT
BRANCH   6   8
HETATM    8  N   UNL     1       7.309  28.137  54.721  1.00  0.00    -0.309 N 
HETATM    9  C   UNL     1       6.657  28.422  55.908  1.00  0.00     0.252 C 
HETATM   10  O   UNL     1       5.436  28.524  56.027  1.00  0.00    -0.270 OA
HETATM   11  H   UNL     1       8.324  28.128  54.704  1.00  0.00     0.170 HD
BRANCH   9  12
HETATM   12  C   UNL     1       7.598  28.545  57.117  1.00  0.00     0.217 C 
HETATM   13  C   UNL     1       8.434  27.272  57.228  1.00  0.00     0.050 C 
BRANCH  12  14
HETATM   14  O   UNL     1       8.511  29.633  56.975  1.00  0.00    -0.337 OA
BRANCH  14  15
HETATM   15  C   UNL     1       8.604  30.515  58.017  1.00  0.00     0.070 A 
HETATM   16  C   UNL     1       7.388  30.817  58.637  1.00  0.00     0.037 A 
HETATM   17  C   UNL     1       7.340  31.707  59.711  1.00  0.00     0.003 A 
HETATM   18  C   UNL     1       8.512  32.291  60.181  1.00  0.00     0.000 A 
HETATM   19  C   UNL     1       9.731  31.983  59.578  1.00  0.00     0.003 A 
HETATM   20  C   UNL     1       9.779  31.094  58.500  1.00  0.00     0.037 A 
ENDBRANCH  14  15
ENDBRANCH  12  14
ENDBRANCH   9  12
ENDBRANCH   6   8
BRANCH   7  21
HETATM   21  C   UNL     1       6.833  25.451  53.202  1.00  0.00    -0.020 A 
HETATM   22  C   UNL     1       6.422  24.905  54.426  1.00  0.00     0.014 A 
HETATM   23  C   UNL     1       6.820  23.617  54.794  1.00  0.00     0.020 A 
HETATM   24  C   UNL     1       7.625  22.872  53.934  1.00  0.00     0.011 A 
HETATM   25 BR   UNL     1       8.157  21.126  54.426  1.00  0.00    -0.051 Br
HETATM   26  C   UNL     1       8.037  23.403  52.713  1.00  0.00     0.020 A 
HETATM   27  C   UNL     1       7.641  24.691  52.348  1.00  0.00     0.014 A 
ENDBRANCH   7  21
TORSDOF 5
ENDMDL
MODEL 3
REMARK VINA RESULT:      -8.7      1.741      3.385
REMARK  5 active torsions:
REMARK  status: ('A' for Active; 'I' for Inactive)
REMARK    1  A    between atoms: C_6  and  N_7 
REMARK       I    between atoms: N_7  and  C_8 
REMARK    2  A    between atoms: C_8  and  C_9 
REMARK    3  A    between atoms: C_9  and  O_10 
REMARK    4  A    between atoms: O_10  and  C_11 
REMARK    5  A    between atoms: C_19  and  C_20 
ROOT
HETATM    1  C   UNL     1       8.057  21.797  54.896  1.00  0.00     0.073 C 
HETATM    2  C   UNL     1       7.858  22.987  55.761  1.00  0.00     0.065 A 
HETATM    3  N   UNL     1       8.280  22.966  57.032  1.00  0.00    -0.177 NA
HETATM    4  N   UNL     1       7.966  24.188  57.495  1.00  0.00    -0.262 N 
HETATM    5  H   UNL     1       8.190  24.433  58.456  1.00  0.00     0.191 HD
HETATM    6  C   UNL     1       7.336  24.987  56.576  1.00  0.00     0.137 A 
HETATM    7  C   UNL     1       7.260  24.235  55.421  1.00  0.00     0.046 A 
ENDROOT
BRANCH   6   8
HETATM    8  N   UNL     1       6.896  26.270  56.850  1.00  0.00    -0.309 N 
HETATM    9  C   UNL     1       7.761  27.286  57.218  1.00  0.00     0.252 C 
HETATM   10  O   UNL     1       8.980  27.154  57.340  1.00  0.00    -0.270 OA
HETATM   11  H   UNL     1       5.897  26.455  56.830  1.00  0.00     0.170 HD
BRANCH   9  12
HETATM   12  C   UNL     1       7.074  28.646  57.409  1.00  0.00     0.217 C 
HETATM   13  C   UNL     1       7.807  29.426  58.498  1.00  0.00     0.050 C 
BRANCH  12  14
HETATM   14  O   UNL     1       7.122  29.440  56.224  1.00  0.00    -0.337 OA
BRANCH  14  15
HETATM   15  C   UNL     1       6.008  29.451  55.429  1.00  0.00     0.070 A 
HETATM   16  C   UNL     1       5.089  30.462  55.725  1.00  0.00     0.037 A 
HETATM   17  C   UNL     1       3.907  30.585  54.993  1.00  0.00     0.003 A 
HETATM   18  C   UNL     1       3.642  29.703  53.950  1.00  0.00     0.000 A 
HETATM   19  C   UNL     1       4.561  28.703  53.637  1.00  0.00     0.003 A 
HETATM   20  C   UNL     1       5.744  28.577  54.373  1.00  0.00     0.037 A 
ENDBRANCH  14  15
ENDBRANCH  12  14
ENDBRANCH   9  12
ENDBRANCH   6   8
BRANCH   7  21
HETATM   21  C   UNL     1       6.700  24.691  54.164  1.00  0.00    -0.020 A 
HETATM   22  C   UNL     1       5.311  24.779  53.997  1.00  0.00     0.014 A 
HETATM   23  C   UNL     1       4.773  25.239  52.793  1.00  0.00     0.020 A 
HETATM   24  C   UNL     1       5.624  25.615  51.755  1.00  0.00     0.011 A 
HETATM   25 BR   UNL     1       4.897  26.245  50.129  1.00  0.00    -0.051 Br
HETATM   26  C   UNL     1       7.007  25.535  51.910  1.00  0.00     0.020 A 
HETATM   27  C   UNL     1       7.544  25.073  53.114  1.00  0.00     0.014 A 
ENDBRANCH   7  21
TORSDOF 5
ENDMDL
MODEL 4
REMARK VINA RESULT:      -8.6      3.312      7.649
REMARK  5 active torsions:
REMARK  status: ('A' for Active; 'I' for Inactive)
REMARK    1  A    between atoms: C_6  and  N_7 
REMARK       I    between atoms: N_7  and  C_8 
REMARK    2  A    between atoms: C_8  and  C_9 
REMARK    3  A    between atoms: C_9  and  O_10 
REMARK    4  A    between atoms: O_10  and  C_11 
REMARK    5  A    between atoms: C_19  and  C_20 
ROOT
HETATM    1  C   UNL     1       4.055  30.581  54.327  1.00  0.00     0.073 C 
HETATM    2  C   UNL     1       4.426  29.147  54.435  1.00  0.00     0.065 A 
HETATM    3  N   UNL     1       3.774  28.233  53.705  1.00  0.00    -0.177 NA
HETATM    4  N   UNL     1       4.374  27.076  54.029  1.00  0.00    -0.262 N 
HETATM    5  H   UNL     1       4.060  26.209  53.599  1.00  0.00     0.191 HD
HETATM    6  C   UNL     1       5.373  27.207  54.959  1.00  0.00     0.137 A 
HETATM    7  C   UNL     1       5.443  28.557  55.240  1.00  0.00     0.046 A 
ENDROOT
BRANCH   6   8
HETATM    8  N   UNL     1       6.099  26.141  55.461  1.00  0.00    -0.309 N 
HETATM    9  C   UNL     1       7.185  25.607  54.789  1.00  0.00     0.252 C 
HETATM   10  O   UNL     1       7.603  26.012  53.704  1.00  0.00    -0.270 OA
HETATM   11  H   UNL     1       5.790  25.706  56.325  1.00  0.00     0.170 HD
BRANCH   9  12
HETATM   12  C   UNL     1       7.890  24.475  55.553  1.00  0.00     0.217 C 
HETATM   13  C   UNL     1       8.101  24.909  57.002  1.00  0.00     0.050 C 
BRANCH  12  14
HETATM   14  O   UNL     1       7.106  23.282  55.584  1.00  0.00    -0.337 OA
BRANCH  14  15
HETATM   15  C   UNL     1       7.660  22.152  55.048  1.00  0.00     0.070 A 
HETATM   16  C   UNL     1       7.729  22.141  53.652  1.00  0.00     0.037 A 
HETATM   17  C   UNL     1       8.269  21.046  52.975  1.00  0.00     0.003 A 
HETATM   18  C   UNL     1       8.756  19.958  53.694  1.00  0.00     0.000 A 
HETATM   19  C   UNL     1       8.706  19.968  55.087  1.00  0.00     0.003 A 
HETATM   20  C   UNL     1       8.162  21.064  55.764  1.00  0.00     0.037 A 
ENDBRANCH  14  15
ENDBRANCH  12  14
ENDBRANCH   9  12
ENDBRANCH   6   8
BRANCH   7  21
HETATM   21  C   UNL     1       6.390  29.173  56.148  1.00  0.00    -0.020 A 
HETATM   22  C   UNL     1       5.939  29.849  57.290  1.00  0.00     0.014 A 
HETATM   23  C   UNL     1       6.852  30.424  58.177  1.00  0.00     0.020 A 
HETATM   24  C   UNL     1       8.219  30.319  57.925  1.00  0.00     0.011 A 
HETATM   25 BR   UNL     1       9.456  31.088  59.128  1.00  0.00    -0.051 Br
HETATM   26  C   UNL     1       8.680  29.645  56.794  1.00  0.00     0.020 A 
HETATM   27  C   UNL     1       7.765  29.073  55.907  1.00  0.00     0.014 A 
ENDBRANCH   7  21
TORSDOF 5
ENDMDL
MODEL 5
REMARK VINA RESULT:      -8.4      3.445      5.230
REMARK  5 active torsions:
REMARK  status: ('A' for Active; 'I' for Inactive)
REMARK    1  A    between atoms: C_6  and  N_7 
REMARK       I    between atoms: N_7  and  C_8 
REMARK    2  A    between atoms: C_8  and  C_9 
REMARK    3  A    between atoms: C_9  and  O_10 
REMARK    4  A    between atoms: O_10  and  C_11 
REMARK    5  A    between atoms: C_19  and  C_20 
ROOT
HETATM    1  C   UNL     1       4.611  26.328  49.451  1.00  0.00     0.073 C 
HETATM    2  C   UNL     1       4.886  27.291  50.547  1.00  0.00     0.065 A 
HETATM    3  N   UNL     1       4.416  28.543  50.467  1.00  0.00    -0.177 NA
HETATM    4  N   UNL     1       4.823  29.112  51.614  1.00  0.00    -0.262 N 
HETATM    5  H   UNL     1       4.587  30.083  51.804  1.00  0.00     0.191 HD
HETATM    6  C   UNL     1       5.558  28.280  52.419  1.00  0.00     0.137 A 
HETATM    7  C   UNL     1       5.608  27.071  51.755  1.00  0.00     0.046 A 
ENDROOT
BRANCH   6   8
HETATM    8  N   UNL     1       6.104  28.669  53.630  1.00  0.00    -0.309 N 
HETATM    9  C   UNL     1       5.321  28.949  54.737  1.00  0.00     0.252 C 
HETATM   10  O   UNL     1       4.091  28.886  54.756  1.00  0.00    -0.270 OA
HETATM   11  H   UNL     1       7.109  28.803  53.689  1.00  0.00     0.170 HD
BRANCH   9  12
HETATM   12  C   UNL     1       6.131  29.296  55.996  1.00  0.00     0.217 C 
HETATM   13  C   UNL     1       5.736  30.692  56.473  1.00  0.00     0.050 C 
BRANCH  12  14
HETATM   14  O   UNL     1       5.861  28.396  57.070  1.00  0.00    -0.337 OA
BRANCH  14  15
HETATM   15  C   UNL     1       6.364  27.127  56.969  1.00  0.00     0.070 A 
HETATM   16  C   UNL     1       7.720  27.010  57.283  1.00  0.00     0.037 A 
HETATM   17  C   UNL     1       8.361  25.772  57.217  1.00  0.00     0.003 A 
HETATM   18  C   UNL     1       7.643  24.638  56.849  1.00  0.00     0.000 A 
HETATM   19  C   UNL     1       6.285  24.744  56.550  1.00  0.00     0.003 A 
HETATM   20  C   UNL     1       5.645  25.985  56.613  1.00  0.00     0.037 A 
ENDBRANCH  14  15
ENDBRANCH  12  14
ENDBRANCH   9  12
ENDBRANCH   6   8
BRANCH   7  21
HETATM   21  C   UNL     1       6.253  25.872  52.252  1.00  0.00    -0.020 A 
HETATM   22  C   UNL     1       5.491  24.838  52.815  1.00  0.00     0.014 A 
HETATM   23  C   UNL     1       6.111  23.673  53.274  1.00  0.00     0.020 A 
HETATM   24  C   UNL     1       7.494  23.539  53.167  1.00  0.00     0.011 A 
HETATM   25 BR   UNL     1       8.332  21.960  53.780  1.00  0.00    -0.051 Br
HETATM   26  C   UNL     1       8.262  24.558  52.606  1.00  0.00     0.020 A 
HETATM   27  C   UNL     1       7.642  25.723  52.149  1.00  0.00     0.014 A 
ENDBRANCH   7  21
TORSDOF 5
ENDMDL
MODEL 6
REMARK VINA RESULT:      -8.3      2.998      4.466
REMARK  5 active torsions:
REMARK  status: ('A' for Active; 'I' for Inactive)
REMARK    1  A    between atoms: C_6  and  N_7 
REMARK       I    between atoms: N_7  and  C_8 
REMARK    2  A    between atoms: C_8  and  C_9 
REMARK    3  A    between atoms: C_9  and  O_10 
REMARK    4  A    between atoms: O_10  and  C_11 
REMARK    5  A    between atoms: C_19  and  C_20 
ROOT
HETATM    1  C   UNL     1       4.999  26.498  49.692  1.00  0.00     0.073 C 
HETATM    2  C   UNL     1       5.218  27.474  50.789  1.00  0.00     0.065 A 
HETATM    3  N   UNL     1       4.855  28.753  50.625  1.00  0.00    -0.177 NA
HETATM    4  N   UNL     1       5.169  29.328  51.798  1.00  0.00    -0.262 N 
HETATM    5  H   UNL     1       4.986  30.319  51.936  1.00  0.00     0.191 HD
HETATM    6  C   UNL     1       5.741  28.472  52.704  1.00  0.00     0.137 A 
HETATM    7  C   UNL     1       5.777  27.242  52.079  1.00  0.00     0.046 A 
ENDROOT
BRANCH   6   8
HETATM    8  N   UNL     1       6.172  28.860  53.960  1.00  0.00    -0.309 N 
HETATM    9  C   UNL     1       5.296  29.301  54.938  1.00  0.00     0.252 C 
HETATM   10  O   UNL     1       4.076  29.394  54.791  1.00  0.00    -0.270 OA
HETATM   11  H   UNL     1       7.169  28.870  54.151  1.00  0.00     0.170 HD
BRANCH   9  12
HETATM   12  C   UNL     1       5.973  29.616  56.280  1.00  0.00     0.217 C 
HETATM   13  C   UNL     1       4.962  29.418  57.406  1.00  0.00     0.050 C 
BRANCH  12  14
HETATM   14  O   UNL     1       7.070  28.741  56.544  1.00  0.00    -0.337 OA
BRANCH  14  15
HETATM   15  C   UNL     1       8.245  29.312  56.951  1.00  0.00     0.070 A 
HETATM   16  C   UNL     1       9.268  29.285  55.999  1.00  0.00     0.037 A 
HETATM   17  C   UNL     1      10.521  29.830  56.286  1.00  0.00     0.003 A 
HETATM   18  C   UNL     1      10.754  30.418  57.526  1.00  0.00     0.000 A 
HETATM   19  C   UNL     1       9.733  30.463  58.475  1.00  0.00     0.003 A 
HETATM   20  C   UNL     1       8.480  29.914  58.188  1.00  0.00     0.037 A 
ENDBRANCH  14  15
ENDBRANCH  12  14
ENDBRANCH   9  12
ENDBRANCH   6   8
BRANCH   7  21
HETATM   21  C   UNL     1       6.269  26.016  52.676  1.00  0.00    -0.020 A 
HETATM   22  C   UNL     1       7.407  25.382  52.158  1.00  0.00     0.014 A 
HETATM   23  C   UNL     1       7.894  24.213  52.747  1.00  0.00     0.020 A 
HETATM   24  C   UNL     1       7.245  23.679  53.859  1.00  0.00     0.011 A 
HETATM   25 BR   UNL     1       7.907  22.102  54.662  1.00  0.00    -0.051 Br
HETATM   26  C   UNL     1       6.115  24.302  54.386  1.00  0.00     0.020 A 
HETATM   27  C   UNL     1       5.628  25.470  53.794  1.00  0.00     0.014 A 
ENDBRANCH   7  21
TORSDOF 5
ENDMDL
MODEL 7
REMARK VINA RESULT:      -8.3      4.379      7.382
REMARK  5 active torsions:
REMARK  status: ('A' for Active; 'I' for Inactive)
REMARK    1  A    between atoms: C_6  and  N_7 
REMARK       I    between atoms: N_7  and  C_8 
REMARK    2  A    between atoms: C_8  and  C_9 
REMARK    3  A    between atoms: C_9  and  O_10 
REMARK    4  A    between atoms: O_10  and  C_11 
REMARK    5  A    between atoms: C_19  and  C_20 
ROOT
HETATM    1  C   UNL     1       3.408  31.559  54.310  1.00  0.00     0.073 C 
HETATM    2  C   UNL     1       3.739  30.129  54.529  1.00  0.00     0.065 A 
HETATM    3  N   UNL     1       3.769  29.634  55.773  1.00  0.00    -0.177 NA
HETATM    4  N   UNL     1       4.070  28.337  55.596  1.00  0.00    -0.262 N 
HETATM    5  H   UNL     1       4.151  27.725  56.404  1.00  0.00     0.191 HD
HETATM    6  C   UNL     1       4.258  27.982  54.285  1.00  0.00     0.137 A 
HETATM    7  C   UNL     1       4.036  29.133  53.554  1.00  0.00     0.046 A 
ENDROOT
BRANCH   6   8
HETATM    8  N   UNL     1       4.608  26.707  53.877  1.00  0.00    -0.309 N 
HETATM    9  C   UNL     1       5.721  26.051  54.376  1.00  0.00     0.252 C 
HETATM   10  O   UNL     1       6.495  26.525  55.208  1.00  0.00    -0.270 OA
HETATM   11  H   UNL     1       4.057  26.262  53.149  1.00  0.00     0.170 HD
BRANCH   9  12
HETATM   12  C   UNL     1       5.887  24.621  53.841  1.00  0.00     0.217 C 
HETATM   13  C   UNL     1       5.264  24.533  52.450  1.00  0.00     0.050 C 
BRANCH  12  14
HETATM   14  O   UNL     1       7.261  24.257  53.707  1.00  0.00    -0.337 OA
BRANCH  14  15
HETATM   15  C   UNL     1       7.589  22.947  53.930  1.00  0.00     0.070 A 
HETATM   16  C   UNL     1       7.485  22.538  55.262  1.00  0.00     0.037 A 
HETATM   17  C   UNL     1       7.794  21.227  55.630  1.00  0.00     0.003 A 
HETATM   18  C   UNL     1       8.198  20.312  54.661  1.00  0.00     0.000 A 
HETATM   19  C   UNL     1       8.288  20.709  53.328  1.00  0.00     0.003 A 
HETATM   20  C   UNL     1       7.982  22.022  52.961  1.00  0.00     0.037 A 
ENDBRANCH  14  15
ENDBRANCH  12  14
ENDBRANCH   9  12
ENDBRANCH   6   8
BRANCH   7  21
HETATM   21  C   UNL     1       4.087  29.226  52.109  1.00  0.00    -0.020 A 
HETATM   22  C   UNL     1       2.907  29.171  51.354  1.00  0.00     0.014 A 
HETATM   23  C   UNL     1       2.954  29.282  49.961  1.00  0.00     0.020 A 
HETATM   24  C   UNL     1       4.181  29.455  49.324  1.00  0.00     0.011 A 
HETATM   25 BR   UNL     1       4.246  29.615  47.442  1.00  0.00    -0.051 Br
HETATM   26  C   UNL     1       5.361  29.516  50.065  1.00  0.00     0.020 A 
HETATM   27  C   UNL     1       5.313  29.401  51.456  1.00  0.00     0.014 A 
ENDBRANCH   7  21
TORSDOF 5
ENDMDL
MODEL 8
REMARK VINA RESULT:      -8.2      1.382      2.134
REMARK  5 active torsions:
REMARK  status: ('A' for Active; 'I' for Inactive)
REMARK    1  A    between atoms: C_6  and  N_7 
REMARK       I    between atoms: N_7  and  C_8 
REMARK    2  A    between atoms: C_8  and  C_9 
REMARK    3  A    between atoms: C_9  and  O_10 
REMARK    4  A    between atoms: O_10  and  C_11 
REMARK    5  A    between atoms: C_19  and  C_20 
ROOT
HETATM    1  C   UNL     1       8.096  22.407  55.515  1.00  0.00     0.073 C 
HETATM    2  C   UNL     1       7.978  23.726  56.186  1.00  0.00     0.065 A 
HETATM    3  N   UNL     1       8.452  23.886  57.428  1.00  0.00    -0.177 NA
HETATM    4  N   UNL     1       8.203  25.178  57.703  1.00  0.00    -0.262 N 
HETATM    5  H   UNL     1       8.476  25.561  58.605  1.00  0.00     0.191 HD
HETATM    6  C   UNL     1       7.564  25.850  56.693  1.00  0.00     0.137 A 
HETATM    7  C   UNL     1       7.411  24.930  55.675  1.00  0.00     0.046 A 
ENDROOT
BRANCH   6   8
HETATM    8  N   UNL     1       7.183  27.177  56.775  1.00  0.00    -0.309 N 
HETATM    9  C   UNL     1       8.094  28.195  57.000  1.00  0.00     0.252 C 
HETATM   10  O   UNL     1       9.305  28.027  57.149  1.00  0.00    -0.270 OA
HETATM   11  H   UNL     1       6.194  27.403  56.721  1.00  0.00     0.170 HD
BRANCH   9  12
HETATM   12  C   UNL     1       7.470  29.598  56.988  1.00  0.00     0.217 C 
HETATM   13  C   UNL     1       6.258  29.596  56.059  1.00  0.00     0.050 C 
BRANCH  12  14
HETATM   14  O   UNL     1       7.005  29.988  58.280  1.00  0.00    -0.337 OA
BRANCH  14  15
HETATM   15  C   UNL     1       7.824  30.791  59.027  1.00  0.00     0.070 A 
HETATM   16  C   UNL     1       7.246  31.284  60.200  1.00  0.00     0.037 A 
HETATM   17  C   UNL     1       7.971  32.120  61.052  1.00  0.00     0.003 A 
HETATM   18  C   UNL     1       9.285  32.456  60.742  1.00  0.00     0.000 A 
HETATM   19  C   UNL     1       9.873  31.954  59.582  1.00  0.00     0.003 A 
HETATM   20  C   UNL     1       9.147  31.121  58.726  1.00  0.00     0.037 A 
ENDBRANCH  14  15
ENDBRANCH  12  14
ENDBRANCH   9  12
ENDBRANCH   6   8
BRANCH   7  21
HETATM   21  C   UNL     1       6.817  25.206  54.382  1.00  0.00    -0.020 A 
HETATM   22  C   UNL     1       7.623  25.566  53.294  1.00  0.00     0.014 A 
HETATM   23  C   UNL     1       7.052  25.812  52.042  1.00  0.00     0.020 A 
HETATM   24  C   UNL     1       5.673  25.692  51.878  1.00  0.00     0.011 A 
HETATM   25 BR   UNL     1       4.900  26.016  50.184  1.00  0.00    -0.051 Br
HETATM   26  C   UNL     1       4.861  25.331  52.952  1.00  0.00     0.020 A 
HETATM   27  C   UNL     1       5.433  25.088  54.203  1.00  0.00     0.014 A 
ENDBRANCH   7  21
TORSDOF 5
ENDMDL
MODEL 9
REMARK VINA RESULT:      -7.9      5.024      8.073
REMARK  5 active torsions:
REMARK  status: ('A' for Active; 'I' for Inactive)
REMARK    1  A    between atoms: C_6  and  N_7 
REMARK       I    between atoms: N_7  and  C_8 
REMARK    2  A    between atoms: C_8  and  C_9 
REMARK    3  A    between atoms: C_9  and  O_10 
REMARK    4  A    between atoms: O_10  and  C_11 
REMARK    5  A    between atoms: C_19  and  C_20 
ROOT
HETATM    1  C   UNL     1       2.303  28.495  47.629  1.00  0.00     0.073 C 
HETATM    2  C   UNL     1       3.175  27.637  48.470  1.00  0.00     0.065 A 
HETATM    3  N   UNL     1       3.102  26.304  48.361  1.00  0.00    -0.177 NA
HETATM    4  N   UNL     1       4.026  25.860  49.229  1.00  0.00    -0.262 N 
HETATM    5  H   UNL     1       4.175  24.860  49.337  1.00  0.00     0.191 HD
HETATM    6  C   UNL     1       4.675  26.857  49.911  1.00  0.00     0.137 A 
HETATM    7  C   UNL     1       4.149  28.039  49.428  1.00  0.00     0.046 A 
ENDROOT
BRANCH   6   8
HETATM    8  N   UNL     1       5.639  26.626  50.876  1.00  0.00    -0.309 N 
HETATM    9  C   UNL     1       5.560  25.562  51.759  1.00  0.00     0.252 C 
HETATM   10  O   UNL     1       4.646  24.738  51.778  1.00  0.00    -0.270 OA
HETATM   11  H   UNL     1       6.402  27.290  50.971  1.00  0.00     0.170 HD
BRANCH   9  12
HETATM   12  C   UNL     1       6.767  25.450  52.703  1.00  0.00     0.217 C 
HETATM   13  C   UNL     1       7.229  26.852  53.091  1.00  0.00     0.050 C 
BRANCH  12  14
HETATM   14  O   UNL     1       6.438  24.769  53.913  1.00  0.00    -0.337 OA
BRANCH  14  15
HETATM   15  C   UNL     1       7.061  23.573  54.151  1.00  0.00     0.070 A 
HETATM   16  C   UNL     1       7.484  22.897  53.004  1.00  0.00     0.037 A 
HETATM   17  C   UNL     1       8.130  21.663  53.104  1.00  0.00     0.003 A 
HETATM   18  C   UNL     1       8.368  21.104  54.356  1.00  0.00     0.000 A 
HETATM   19  C   UNL     1       7.964  21.781  55.506  1.00  0.00     0.003 A 
HETATM   20  C   UNL     1       7.314  23.015  55.405  1.00  0.00     0.037 A 
ENDBRANCH  14  15
ENDBRANCH  12  14
ENDBRANCH   9  12
ENDBRANCH   6   8
BRANCH   7  21
HETATM   21  C   UNL     1       4.566  29.366  49.836  1.00  0.00    -0.020 A 
HETATM   22  C   UNL     1       5.491  30.085  49.067  1.00  0.00     0.014 A 
HETATM   23  C   UNL     1       5.877  31.373  49.448  1.00  0.00     0.020 A 
HETATM   24  C   UNL     1       5.332  31.945  50.597  1.00  0.00     0.011 A 
HETATM   25 BR   UNL     1       5.845  33.690  51.109  1.00  0.00    -0.051 Br
HETATM   26  C   UNL     1       4.408  31.241  51.368  1.00  0.00     0.020 A 
HETATM   27  C   UNL     1       4.025  29.952  50.987  1.00  0.00     0.014 A 
ENDBRANCH   7  21
TORSDOF 5
ENDMDL
MODEL 10
REMARK VINA RESULT:      -7.7      1.765      2.949
REMARK  5 active torsions:
REMARK  status: ('A' for Active; 'I' for Inactive)
REMARK    1  A    between atoms: C_6  and  N_7 
REMARK       I    between atoms: N_7  and  C_8 
REMARK    2  A    between atoms: C_8  and  C_9 
REMARK    3  A    between atoms: C_9  and  O_10 
REMARK    4  A    between atoms: O_10  and  C_11 
REMARK    5  A    between atoms: C_19  and  C_20 
ROOT
HETATM    1  C   UNL     1       7.869  21.602  54.746  1.00  0.00     0.073 C 
HETATM    2  C   UNL     1       7.850  22.813  55.606  1.00  0.00     0.065 A 
HETATM    3  N   UNL     1       8.343  22.754  56.850  1.00  0.00    -0.177 NA
HETATM    4  N   UNL     1       8.190  24.005  57.315  1.00  0.00    -0.262 N 
HETATM    5  H   UNL     1       8.495  24.231  58.258  1.00  0.00     0.191 HD
HETATM    6  C   UNL     1       7.594  24.862  56.425  1.00  0.00     0.137 A 
HETATM    7  C   UNL     1       7.369  24.115  55.286  1.00  0.00     0.046 A 
ENDROOT
BRANCH   6   8
HETATM    8  N   UNL     1       7.309  26.186  56.708  1.00  0.00    -0.309 N 
HETATM    9  C   UNL     1       6.042  26.608  57.071  1.00  0.00     0.252 C 
HETATM   10  O   UNL     1       5.063  25.868  57.173  1.00  0.00    -0.270 OA
HETATM   11  H   UNL     1       8.045  26.876  56.593  1.00  0.00     0.170 HD
BRANCH   9  12
HETATM   12  C   UNL     1       5.960  28.105  57.406  1.00  0.00     0.217 C 
HETATM   13  C   UNL     1       7.374  28.676  57.482  1.00  0.00     0.050 C 
BRANCH  12  14
HETATM   14  O   UNL     1       5.265  28.841  56.400  1.00  0.00    -0.337 OA
BRANCH  14  15
HETATM   15  C   UNL     1       4.808  30.087  56.735  1.00  0.00     0.070 A 
HETATM   16  C   UNL     1       5.052  31.075  55.778  1.00  0.00     0.037 A 
HETATM   17  C   UNL     1       4.641  32.392  55.995  1.00  0.00     0.003 A 
HETATM   18  C   UNL     1       3.970  32.725  57.169  1.00  0.00     0.000 A 
HETATM   19  C   UNL     1       3.709  31.740  58.121  1.00  0.00     0.003 A 
HETATM   20  C   UNL     1       4.124  30.423  57.905  1.00  0.00     0.037 A 
ENDBRANCH  14  15
ENDBRANCH  12  14
ENDBRANCH   9  12
ENDBRANCH   6   8
BRANCH   7  21
HETATM   21  C   UNL     1       6.787  24.620  54.058  1.00  0.00    -0.020 A 
HETATM   22  C   UNL     1       7.605  24.946  52.968  1.00  0.00     0.014 A 
HETATM   23  C   UNL     1       7.043  25.412  51.777  1.00  0.00     0.020 A 
HETATM   24  C   UNL     1       5.659  25.549  51.675  1.00  0.00     0.011 A 
HETATM   25 BR   UNL     1       4.896  26.171  50.062  1.00  0.00    -0.051 Br
HETATM   26  C   UNL     1       4.835  25.224  52.751  1.00  0.00     0.020 A 
HETATM   27  C   UNL     1       5.399  24.760  53.942  1.00  0.00     0.014 A 
ENDBRANCH   7  21
TORSDOF 5
ENDMDL
