MODEL 1
REMARK VINA RESULT:      -8.8      0.000      0.000
REMARK  5 active torsions:
REMARK  status: ('A' for Active; 'I' for Inactive)
REMARK    1  A    between atoms: C_4  and  C_5 
REMARK    2  A    between atoms: C_5  and  C_6 
REMARK    3  A    between atoms: C_6  and  C_7 
REMARK       I    between atoms: C_7  and  N_8 
REMARK    4  A    between atoms: N_8  and  C_9 
REMARK    5  A    between atoms: C_11  and  C_12 
ROOT
HETATM    1  C   UNL     1       7.607  25.528  54.526  1.00  0.00     0.035 A 
HETATM    2  C   UNL     1       7.921  24.202  54.845  1.00  0.00     0.042 A 
HETATM    3  C   UNL     1       8.118  23.236  53.842  1.00  0.00    -0.021 A 
HETATM    4  C   UNL     1       7.995  23.629  52.502  1.00  0.00     0.012 A 
HETATM    5  C   UNL     1       7.687  24.949  52.172  1.00  0.00     0.003 A 
HETATM    6  C   UNL     1       7.495  25.893  53.180  1.00  0.00     0.029 A 
ENDROOT
BRANCH   1   7
HETATM    7  N   UNL     1       7.382  26.538  55.482  1.00  0.00    -0.327 N 
HETATM    8  C   UNL     1       6.196  27.180  55.781  1.00  0.00     0.222 C 
HETATM    9  O   UNL     1       5.094  26.958  55.288  1.00  0.00    -0.273 OA
HETATM   10  H   UNL     1       8.183  26.803  56.049  1.00  0.00     0.169 HD
BRANCH   8  11
HETATM   11  C   UNL     1       6.357  28.259  56.837  1.00  0.00     0.110 C 
BRANCH  11  12
HETATM   12  C   UNL     1       7.537  27.987  57.760  1.00  0.00     0.074 C 
BRANCH  12  13
HETATM   13  C   UNL     1       8.580  29.051  57.788  1.00  0.00     0.053 A 
HETATM   14  O   UNL     1       8.503  30.000  58.767  1.00  0.00    -0.320 OA
HETATM   15  C   UNL     1       9.557  30.846  58.592  1.00  0.00     0.049 A 
HETATM   16  C   UNL     1       9.677  31.964  59.548  1.00  0.00     0.076 C 
HETATM   17  C   UNL     1      10.312  30.445  57.512  1.00  0.00     0.035 A 
HETATM   18  C   UNL     1       9.683  29.289  56.993  1.00  0.00     0.035 A 
ENDBRANCH  12  13
ENDBRANCH  11  12
ENDBRANCH   8  11
ENDBRANCH   1   7
BRANCH   3  19
HETATM   19  C   UNL     1       8.448  21.853  54.170  1.00  0.00     0.010 A 
HETATM   20  C   UNL     1       8.528  20.699  53.353  1.00  0.00     0.152 A 
HETATM   21  N   UNL     1       8.860  19.597  54.032  1.00  0.00    -0.187 NA
HETATM   22  N   UNL     1       8.998  20.040  55.291  1.00  0.00    -0.289 N 
HETATM   23  H   UNL     1       9.257  19.373  56.011  1.00  0.00     0.188 HD
HETATM   24  C   UNL     1       8.758  21.376  55.427  1.00  0.00     0.123 A 
ENDBRANCH   3  19
TORSDOF 5
ENDMDL
MODEL 2
REMARK VINA RESULT:      -8.5      3.204      8.892
REMARK  5 active torsions:
REMARK  status: ('A' for Active; 'I' for Inactive)
REMARK    1  A    between atoms: C_4  and  C_5 
REMARK    2  A    between atoms: C_5  and  C_6 
REMARK    3  A    between atoms: C_6  and  C_7 
REMARK       I    between atoms: C_7  and  N_8 
REMARK    4  A    between atoms: N_8  and  C_9 
REMARK    5  A    between atoms: C_11  and  C_12 
ROOT
HETATM    1  C   UNL     1       8.504  28.748  57.258  1.00  0.00     0.035 A 
HETATM    2  C   UNL     1       8.195  29.447  58.430  1.00  0.00     0.042 A 
HETATM    3  C   UNL     1       9.048  30.447  58.931  1.00  0.00    -0.021 A 
HETATM    4  C   UNL     1      10.226  30.734  58.228  1.00  0.00     0.012 A 
HETATM    5  C   UNL     1      10.541  30.047  57.056  1.00  0.00     0.003 A 
HETATM    6  C   UNL     1       9.683  29.059  56.573  1.00  0.00     0.029 A 
ENDROOT
BRANCH   1   7
HETATM    7  N   UNL     1       7.701  27.726  56.714  1.00  0.00    -0.327 N 
HETATM    8  C   UNL     1       7.583  26.417  57.137  1.00  0.00     0.222 C 
HETATM    9  O   UNL     1       8.136  25.904  58.106  1.00  0.00    -0.273 OA
HETATM   10  H   UNL     1       7.106  27.993  55.934  1.00  0.00     0.169 HD
BRANCH   8  11
HETATM   11  C   UNL     1       6.658  25.592  56.261  1.00  0.00     0.110 C 
BRANCH  11  12
HETATM   12  C   UNL     1       7.056  24.122  56.233  1.00  0.00     0.074 C 
BRANCH  12  13
HETATM   13  C   UNL     1       7.411  23.586  54.887  1.00  0.00     0.053 A 
HETATM   14  O   UNL     1       7.555  22.235  54.752  1.00  0.00    -0.320 OA
HETATM   15  C   UNL     1       7.867  21.992  53.448  1.00  0.00     0.049 A 
HETATM   16  C   UNL     1       8.071  20.581  53.065  1.00  0.00     0.076 C 
HETATM   17  C   UNL     1       7.919  23.175  52.745  1.00  0.00     0.035 A 
HETATM   18  C   UNL     1       7.626  24.203  53.672  1.00  0.00     0.035 A 
ENDBRANCH  12  13
ENDBRANCH  11  12
ENDBRANCH   8  11
ENDBRANCH   1   7
BRANCH   3  19
HETATM   19  C   UNL     1       8.729  31.179  60.152  1.00  0.00     0.010 A 
HETATM   20  C   UNL     1       9.134  30.970  61.493  1.00  0.00     0.152 A 
HETATM   21  N   UNL     1       8.619  31.863  62.343  1.00  0.00    -0.187 NA
HETATM   22  N   UNL     1       7.882  32.655  61.549  1.00  0.00    -0.289 N 
HETATM   23  H   UNL     1       7.382  33.430  61.972  1.00  0.00     0.188 HD
HETATM   24  C   UNL     1       7.909  32.286  60.236  1.00  0.00     0.123 A 
ENDBRANCH   3  19
TORSDOF 5
ENDMDL
MODEL 3
REMARK VINA RESULT:      -8.2      2.846      8.021
REMARK  5 active torsions:
REMARK  status: ('A' for Active; 'I' for Inactive)
REMARK    1  A    between atoms: C_4  and  C_5 
REMARK    2  A    between atoms: C_5  and  C_6 
REMARK    3  A    between atoms: C_6  and  C_7 
REMARK       I    between atoms: C_7  and  N_8 
REMARK    4  A    between atoms: N_8  and  C_9 
REMARK    5  A    between atoms: C_11  and  C_12 
ROOT
HETATM    1  C   UNL     1       6.605  27.433  55.660  1.00  0.00     0.035 A 
HETATM    2  C   UNL     1       7.807  28.085  55.958  1.00  0.00     0.042 A 
HETATM    3  C   UNL     1       7.873  29.079  56.951  1.00  0.00    -0.021 A 
HETATM    4  C   UNL     1       6.700  29.408  57.645  1.00  0.00     0.012 A 
HETATM    5  C   UNL     1       5.498  28.761  57.359  1.00  0.00     0.003 A 
HETATM    6  C   UNL     1       5.452  27.778  56.372  1.00  0.00     0.029 A 
ENDROOT
BRANCH   1   7
HETATM    7  N   UNL     1       6.470  26.442  54.668  1.00  0.00    -0.327 N 
HETATM    8  C   UNL     1       6.403  25.073  54.834  1.00  0.00     0.222 C 
HETATM    9  O   UNL     1       6.409  24.459  55.896  1.00  0.00    -0.273 OA
HETATM   10  H   UNL     1       6.373  26.776  53.712  1.00  0.00     0.169 HD
BRANCH   8  11
HETATM   11  C   UNL     1       6.315  24.320  53.518  1.00  0.00     0.110 C 
BRANCH  11  12
HETATM   12  C   UNL     1       7.674  23.805  53.061  1.00  0.00     0.074 C 
BRANCH  12  13
HETATM   13  C   UNL     1       8.003  22.416  53.491  1.00  0.00     0.053 A 
HETATM   14  O   UNL     1       8.439  22.228  54.772  1.00  0.00    -0.320 OA
HETATM   15  C   UNL     1       8.664  20.893  54.928  1.00  0.00     0.049 A 
HETATM   16  C   UNL     1       9.147  20.450  56.251  1.00  0.00     0.076 C 
HETATM   17  C   UNL     1       8.370  20.223  53.761  1.00  0.00     0.035 A 
HETATM   18  C   UNL     1       7.945  21.204  52.834  1.00  0.00     0.035 A 
ENDBRANCH  12  13
ENDBRANCH  11  12
ENDBRANCH   8  11
ENDBRANCH   1   7
BRANCH   3  19
HETATM   19  C   UNL     1       9.124  29.759  57.266  1.00  0.00     0.010 A 
HETATM   20  C   UNL     1       9.383  30.907  58.055  1.00  0.00     0.152 A 
HETATM   21  N   UNL     1      10.679  31.231  58.102  1.00  0.00    -0.187 NA
HETATM   22  N   UNL     1      11.260  30.288  57.345  1.00  0.00    -0.289 N 
HETATM   23  H   UNL     1      12.267  30.318  57.226  1.00  0.00     0.188 HD
HETATM   24  C   UNL     1      10.376  29.391  56.819  1.00  0.00     0.123 A 
ENDBRANCH   3  19
TORSDOF 5
ENDMDL
MODEL 4
REMARK VINA RESULT:      -8.1      5.586     11.121
REMARK  5 active torsions:
REMARK  status: ('A' for Active; 'I' for Inactive)
REMARK    1  A    between atoms: C_4  and  C_5 
REMARK    2  A    between atoms: C_5  and  C_6 
REMARK    3  A    between atoms: C_6  and  C_7 
REMARK       I    between atoms: C_7  and  N_8 
REMARK    4  A    between atoms: N_8  and  C_9 
REMARK    5  A    between atoms: C_11  and  C_12 
ROOT
HETATM    1  C   UNL     1       7.257  31.765  61.933  1.00  0.00     0.035 A 
HETATM    2  C   UNL     1       5.958  32.261  62.082  1.00  0.00     0.042 A 
HETATM    3  C   UNL     1       5.606  33.074  63.176  1.00  0.00    -0.021 A 
HETATM    4  C   UNL     1       6.592  33.382  64.123  1.00  0.00     0.012 A 
HETATM    5  C   UNL     1       7.892  32.896  63.982  1.00  0.00     0.003 A 
HETATM    6  C   UNL     1       8.222  32.093  62.891  1.00  0.00     0.029 A 
ENDROOT
BRANCH   1   7
HETATM    7  N   UNL     1       7.668  30.936  60.872  1.00  0.00    -0.327 N 
HETATM    8  C   UNL     1       8.381  31.286  59.742  1.00  0.00     0.222 C 
HETATM    9  O   UNL     1       8.829  32.396  59.469  1.00  0.00    -0.273 OA
HETATM   10  H   UNL     1       7.445  29.948  60.964  1.00  0.00     0.169 HD
BRANCH   8  11
HETATM   11  C   UNL     1       8.589  30.124  58.788  1.00  0.00     0.110 C 
BRANCH  11  12
HETATM   12  C   UNL     1       7.282  29.656  58.161  1.00  0.00     0.074 C 
BRANCH  12  13
HETATM   13  C   UNL     1       7.364  28.373  57.405  1.00  0.00     0.053 A 
HETATM   14  O   UNL     1       8.035  27.331  57.980  1.00  0.00    -0.320 OA
HETATM   15  C   UNL     1       7.965  26.282  57.114  1.00  0.00     0.049 A 
HETATM   16  C   UNL     1       8.630  25.031  57.531  1.00  0.00     0.076 C 
HETATM   17  C   UNL     1       7.251  26.640  55.992  1.00  0.00     0.035 A 
HETATM   18  C   UNL     1       6.865  27.988  56.178  1.00  0.00     0.035 A 
ENDBRANCH  12  13
ENDBRANCH  11  12
ENDBRANCH   8  11
ENDBRANCH   1   7
BRANCH   3  19
HETATM   19  C   UNL     1       4.252  33.594  63.334  1.00  0.00     0.010 A 
HETATM   20  C   UNL     1       3.118  33.503  62.488  1.00  0.00     0.152 A 
HETATM   21  N   UNL     1       2.043  34.122  62.984  1.00  0.00    -0.187 NA
HETATM   22  N   UNL     1       2.480  34.611  64.155  1.00  0.00    -0.289 N 
HETATM   23  H   UNL     1       1.829  35.133  64.733  1.00  0.00     0.188 HD
HETATM   24  C   UNL     1       3.791  34.329  64.407  1.00  0.00     0.123 A 
ENDBRANCH   3  19
TORSDOF 5
ENDMDL
MODEL 5
REMARK VINA RESULT:      -8.1      3.558      6.479
REMARK  5 active torsions:
REMARK  status: ('A' for Active; 'I' for Inactive)
REMARK    1  A    between atoms: C_4  and  C_5 
REMARK    2  A    between atoms: C_5  and  C_6 
REMARK    3  A    between atoms: C_6  and  C_7 
REMARK       I    between atoms: C_7  and  N_8 
REMARK    4  A    between atoms: N_8  and  C_9 
REMARK    5  A    between atoms: C_11  and  C_12 
ROOT
HETATM    1  C   UNL     1       7.039  25.271  54.942  1.00  0.00     0.035 A 
HETATM    2  C   UNL     1       7.347  23.955  54.581  1.00  0.00     0.042 A 
HETATM    3  C   UNL     1       8.113  23.126  55.421  1.00  0.00    -0.021 A 
HETATM    4  C   UNL     1       8.566  23.648  56.641  1.00  0.00     0.012 A 
HETATM    5  C   UNL     1       8.261  24.957  57.013  1.00  0.00     0.003 A 
HETATM    6  C   UNL     1       7.500  25.763  56.167  1.00  0.00     0.029 A 
ENDROOT
BRANCH   1   7
HETATM    7  N   UNL     1       6.292  26.154  54.140  1.00  0.00    -0.327 N 
HETATM    8  C   UNL     1       5.178  25.875  53.372  1.00  0.00     0.222 C 
HETATM    9  O   UNL     1       4.602  24.796  53.277  1.00  0.00    -0.273 OA
HETATM   10  H   UNL     1       6.585  27.128  54.154  1.00  0.00     0.169 HD
BRANCH   8  11
HETATM   11  C   UNL     1       4.677  27.079  52.595  1.00  0.00     0.110 C 
BRANCH  11  12
HETATM   12  C   UNL     1       5.635  27.483  51.482  1.00  0.00     0.074 C 
BRANCH  12  13
HETATM   13  C   UNL     1       5.114  27.299  50.098  1.00  0.00     0.053 A 
HETATM   14  O   UNL     1       4.359  26.191  49.838  1.00  0.00    -0.320 OA
HETATM   15  C   UNL     1       3.996  26.250  48.526  1.00  0.00     0.049 A 
HETATM   16  C   UNL     1       3.165  25.141  48.016  1.00  0.00     0.076 C 
HETATM   17  C   UNL     1       4.506  27.388  47.944  1.00  0.00     0.035 A 
HETATM   18  C   UNL     1       5.228  28.065  48.956  1.00  0.00     0.035 A 
ENDBRANCH  12  13
ENDBRANCH  11  12
ENDBRANCH   8  11
ENDBRANCH   1   7
BRANCH   3  19
HETATM   19  C   UNL     1       8.435  21.752  55.049  1.00  0.00     0.010 A 
HETATM   20  C   UNL     1       8.332  21.079  53.807  1.00  0.00     0.152 A 
HETATM   21  N   UNL     1       8.725  19.804  53.866  1.00  0.00    -0.187 NA
HETATM   22  N   UNL     1       9.086  19.652  55.150  1.00  0.00    -0.289 N 
HETATM   23  H   UNL     1       9.431  18.746  55.450  1.00  0.00     0.188 HD
HETATM   24  C   UNL     1       8.927  20.782  55.898  1.00  0.00     0.123 A 
ENDBRANCH   3  19
TORSDOF 5
ENDMDL
MODEL 6
REMARK VINA RESULT:      -8.1      3.896      7.065
REMARK  5 active torsions:
REMARK  status: ('A' for Active; 'I' for Inactive)
REMARK    1  A    between atoms: C_4  and  C_5 
REMARK    2  A    between atoms: C_5  and  C_6 
REMARK    3  A    between atoms: C_6  and  C_7 
REMARK       I    between atoms: C_7  and  N_8 
REMARK    4  A    between atoms: N_8  and  C_9 
REMARK    5  A    between atoms: C_11  and  C_12 
ROOT
HETATM    1  C   UNL     1       5.995  25.002  53.927  1.00  0.00     0.035 A 
HETATM    2  C   UNL     1       6.617  23.781  53.643  1.00  0.00     0.042 A 
HETATM    3  C   UNL     1       7.264  23.039  54.648  1.00  0.00    -0.021 A 
HETATM    4  C   UNL     1       7.274  23.550  55.953  1.00  0.00     0.012 A 
HETATM    5  C   UNL     1       6.653  24.763  56.248  1.00  0.00     0.003 A 
HETATM    6  C   UNL     1       6.016  25.484  55.239  1.00  0.00     0.029 A 
ENDROOT
BRANCH   1   7
HETATM    7  N   UNL     1       5.345  25.799  52.964  1.00  0.00    -0.327 N 
HETATM    8  C   UNL     1       5.675  27.074  52.549  1.00  0.00     0.222 C 
HETATM    9  O   UNL     1       6.635  27.743  52.920  1.00  0.00    -0.273 OA
HETATM   10  H   UNL     1       4.555  25.370  52.488  1.00  0.00     0.169 HD
BRANCH   8  11
HETATM   11  C   UNL     1       4.701  27.636  51.529  1.00  0.00     0.110 C 
BRANCH  11  12
HETATM   12  C   UNL     1       5.275  27.619  50.119  1.00  0.00     0.074 C 
BRANCH  12  13
HETATM   13  C   UNL     1       4.347  27.127  49.061  1.00  0.00     0.053 A 
HETATM   14  O   UNL     1       3.043  27.529  49.115  1.00  0.00    -0.320 OA
HETATM   15  C   UNL     1       2.404  26.964  48.052  1.00  0.00     0.049 A 
HETATM   16  C   UNL     1       0.965  27.263  47.906  1.00  0.00     0.076 C 
HETATM   17  C   UNL     1       3.288  26.208  47.315  1.00  0.00     0.035 A 
HETATM   18  C   UNL     1       4.540  26.311  47.965  1.00  0.00     0.035 A 
ENDBRANCH  12  13
ENDBRANCH  11  12
ENDBRANCH   8  11
ENDBRANCH   1   7
BRANCH   3  19
HETATM   19  C   UNL     1       7.911  21.765  54.356  1.00  0.00     0.010 A 
HETATM   20  C   UNL     1       8.061  21.058  53.137  1.00  0.00     0.152 A 
HETATM   21  N   UNL     1       8.722  19.904  53.277  1.00  0.00    -0.187 NA
HETATM   22  N   UNL     1       9.003  19.867  54.589  1.00  0.00    -0.289 N 
HETATM   23  H   UNL     1       9.516  19.069  54.949  1.00  0.00     0.188 HD
HETATM   24  C   UNL     1       8.537  20.949  55.277  1.00  0.00     0.123 A 
ENDBRANCH   3  19
TORSDOF 5
ENDMDL
MODEL 7
REMARK VINA RESULT:      -8.1      5.025      8.244
REMARK  5 active torsions:
REMARK  status: ('A' for Active; 'I' for Inactive)
REMARK    1  A    between atoms: C_4  and  C_5 
REMARK    2  A    between atoms: C_5  and  C_6 
REMARK    3  A    between atoms: C_6  and  C_7 
REMARK       I    between atoms: C_7  and  N_8 
REMARK    4  A    between atoms: N_8  and  C_9 
REMARK    5  A    between atoms: C_11  and  C_12 
ROOT
HETATM    1  C   UNL     1       5.524  26.822  51.212  1.00  0.00     0.035 A 
HETATM    2  C   UNL     1       4.865  26.342  50.074  1.00  0.00     0.042 A 
HETATM    3  C   UNL     1       3.925  27.131  49.386  1.00  0.00    -0.021 A 
HETATM    4  C   UNL     1       3.658  28.421  49.864  1.00  0.00     0.012 A 
HETATM    5  C   UNL     1       4.312  28.912  50.994  1.00  0.00     0.003 A 
HETATM    6  C   UNL     1       5.241  28.116  51.663  1.00  0.00     0.029 A 
ENDROOT
BRANCH   1   7
HETATM    7  N   UNL     1       6.461  26.078  51.954  1.00  0.00    -0.327 N 
HETATM    8  C   UNL     1       6.230  25.253  53.036  1.00  0.00     0.222 C 
HETATM    9  O   UNL     1       5.142  24.980  53.535  1.00  0.00    -0.273 OA
HETATM   10  H   UNL     1       7.425  26.125  51.632  1.00  0.00     0.169 HD
BRANCH   8  11
HETATM   11  C   UNL     1       7.504  24.661  53.613  1.00  0.00     0.110 C 
BRANCH  11  12
HETATM   12  C   UNL     1       8.014  23.486  52.790  1.00  0.00     0.074 C 
BRANCH  12  13
HETATM   13  C   UNL     1       8.203  22.215  53.546  1.00  0.00     0.053 A 
HETATM   14  O   UNL     1       8.198  22.274  54.911  1.00  0.00    -0.320 OA
HETATM   15  C   UNL     1       8.377  21.003  55.369  1.00  0.00     0.049 A 
HETATM   16  C   UNL     1       8.406  20.823  56.834  1.00  0.00     0.076 C 
HETATM   17  C   UNL     1       8.490  20.129  54.310  1.00  0.00     0.035 A 
HETATM   18  C   UNL     1       8.379  20.910  53.135  1.00  0.00     0.035 A 
ENDBRANCH  12  13
ENDBRANCH  11  12
ENDBRANCH   8  11
ENDBRANCH   1   7
BRANCH   3  19
HETATM   19  C   UNL     1       3.239  26.634  48.198  1.00  0.00     0.010 A 
HETATM   20  C   UNL     1       3.347  25.399  47.512  1.00  0.00     0.152 A 
HETATM   21  N   UNL     1       2.544  25.318  46.447  1.00  0.00    -0.187 NA
HETATM   22  N   UNL     1       1.911  26.501  46.447  1.00  0.00    -0.289 N 
HETATM   23  H   UNL     1       1.230  26.684  45.717  1.00  0.00     0.188 HD
HETATM   24  C   UNL     1       2.294  27.324  47.466  1.00  0.00     0.123 A 
ENDBRANCH   3  19
TORSDOF 5
ENDMDL
MODEL 8
REMARK VINA RESULT:      -8.0      1.700      2.620
REMARK  5 active torsions:
REMARK  status: ('A' for Active; 'I' for Inactive)
REMARK    1  A    between atoms: C_4  and  C_5 
REMARK    2  A    between atoms: C_5  and  C_6 
REMARK    3  A    between atoms: C_6  and  C_7 
REMARK       I    between atoms: C_7  and  N_8 
REMARK    4  A    between atoms: N_8  and  C_9 
REMARK    5  A    between atoms: C_11  and  C_12 
ROOT
HETATM    1  C   UNL     1       7.279  25.403  55.759  1.00  0.00     0.035 A 
HETATM    2  C   UNL     1       7.338  24.262  54.953  1.00  0.00     0.042 A 
HETATM    3  C   UNL     1       8.200  23.193  55.259  1.00  0.00    -0.021 A 
HETATM    4  C   UNL     1       9.008  23.293  56.400  1.00  0.00     0.012 A 
HETATM    5  C   UNL     1       8.954  24.425  57.214  1.00  0.00     0.003 A 
HETATM    6  C   UNL     1       8.093  25.473  56.895  1.00  0.00     0.029 A 
ENDROOT
BRANCH   1   7
HETATM    7  N   UNL     1       6.450  26.512  55.498  1.00  0.00    -0.327 N 
HETATM    8  C   UNL     1       5.270  26.861  56.126  1.00  0.00     0.222 C 
HETATM    9  O   UNL     1       4.738  26.281  57.068  1.00  0.00    -0.273 OA
HETATM   10  H   UNL     1       6.778  27.157  54.784  1.00  0.00     0.169 HD
BRANCH   8  11
HETATM   11  C   UNL     1       4.626  28.099  55.529  1.00  0.00     0.110 C 
BRANCH  11  12
HETATM   12  C   UNL     1       5.649  29.183  55.216  1.00  0.00     0.074 C 
BRANCH  12  13
HETATM   13  C   UNL     1       6.669  29.420  56.277  1.00  0.00     0.053 A 
HETATM   14  O   UNL     1       7.980  29.198  55.968  1.00  0.00    -0.320 OA
HETATM   15  C   UNL     1       8.710  29.489  57.081  1.00  0.00     0.049 A 
HETATM   16  C   UNL     1      10.173  29.318  56.980  1.00  0.00     0.076 C 
HETATM   17  C   UNL     1       7.879  29.902  58.099  1.00  0.00     0.035 A 
HETATM   18  C   UNL     1       6.563  29.857  57.582  1.00  0.00     0.035 A 
ENDBRANCH  12  13
ENDBRANCH  11  12
ENDBRANCH   8  11
ENDBRANCH   1   7
BRANCH   3  19
HETATM   19  C   UNL     1       8.262  22.000  54.421  1.00  0.00     0.010 A 
HETATM   20  C   UNL     1       8.695  20.683  54.713  1.00  0.00     0.152 A 
HETATM   21  N   UNL     1       8.603  19.856  53.667  1.00  0.00    -0.187 NA
HETATM   22  N   UNL     1       8.107  20.640  52.697  1.00  0.00    -0.289 N 
HETATM   23  H   UNL     1       7.941  20.230  51.784  1.00  0.00     0.188 HD
HETATM   24  C   UNL     1       7.891  21.927  53.094  1.00  0.00     0.123 A 
ENDBRANCH   3  19
TORSDOF 5
ENDMDL
MODEL 9
REMARK VINA RESULT:      -7.9      4.282      7.660
REMARK  5 active torsions:
REMARK  status: ('A' for Active; 'I' for Inactive)
REMARK    1  A    between atoms: C_4  and  C_5 
REMARK    2  A    between atoms: C_5  and  C_6 
REMARK    3  A    between atoms: C_6  and  C_7 
REMARK       I    between atoms: C_7  and  N_8 
REMARK    4  A    between atoms: N_8  and  C_9 
REMARK    5  A    between atoms: C_11  and  C_12 
ROOT
HETATM    1  C   UNL     1       4.688  26.761  53.136  1.00  0.00     0.035 A 
HETATM    2  C   UNL     1       4.996  26.640  51.777  1.00  0.00     0.042 A 
HETATM    3  C   UNL     1       4.534  27.578  50.835  1.00  0.00    -0.021 A 
HETATM    4  C   UNL     1       3.752  28.649  51.289  1.00  0.00     0.012 A 
HETATM    5  C   UNL     1       3.443  28.782  52.643  1.00  0.00     0.003 A 
HETATM    6  C   UNL     1       3.910  27.843  53.561  1.00  0.00     0.029 A 
ENDROOT
BRANCH   1   7
HETATM    7  N   UNL     1       5.106  25.849  54.124  1.00  0.00    -0.327 N 
HETATM    8  C   UNL     1       6.041  26.041  55.123  1.00  0.00     0.222 C 
HETATM    9  O   UNL     1       6.661  27.073  55.361  1.00  0.00    -0.273 OA
HETATM   10  H   UNL     1       4.636  24.947  54.128  1.00  0.00     0.169 HD
BRANCH   8  11
HETATM   11  C   UNL     1       6.268  24.801  55.969  1.00  0.00     0.110 C 
BRANCH  11  12
HETATM   12  C   UNL     1       7.688  24.268  55.834  1.00  0.00     0.074 C 
BRANCH  12  13
HETATM   13  C   UNL     1       7.793  22.816  55.511  1.00  0.00     0.053 A 
HETATM   14  O   UNL     1       7.923  22.458  54.200  1.00  0.00    -0.320 OA
HETATM   15  C   UNL     1       8.008  21.098  54.161  1.00  0.00     0.049 A 
HETATM   16  C   UNL     1       8.155  20.480  52.829  1.00  0.00     0.076 C 
HETATM   17  C   UNL     1       7.940  20.582  55.436  1.00  0.00     0.035 A 
HETATM   18  C   UNL     1       7.801  21.689  56.307  1.00  0.00     0.035 A 
ENDBRANCH  12  13
ENDBRANCH  11  12
ENDBRANCH   8  11
ENDBRANCH   1   7
BRANCH   3  19
HETATM   19  C   UNL     1       4.855  27.456  49.418  1.00  0.00     0.010 A 
HETATM   20  C   UNL     1       4.557  26.432  48.484  1.00  0.00     0.152 A 
HETATM   21  N   UNL     1       5.033  26.684  47.260  1.00  0.00    -0.187 NA
HETATM   22  N   UNL     1       5.636  27.874  47.402  1.00  0.00    -0.289 N 
HETATM   23  H   UNL     1       6.083  28.288  46.590  1.00  0.00     0.188 HD
HETATM   24  C   UNL     1       5.564  28.374  48.670  1.00  0.00     0.123 A 
ENDBRANCH   3  19
TORSDOF 5
ENDMDL
MODEL 10
REMARK VINA RESULT:      -7.6      3.447      8.604
REMARK  5 active torsions:
REMARK  status: ('A' for Active; 'I' for Inactive)
REMARK    1  A    between atoms: C_4  and  C_5 
REMARK    2  A    between atoms: C_5  and  C_6 
REMARK    3  A    between atoms: C_6  and  C_7 
REMARK       I    between atoms: C_7  and  N_8 
REMARK    4  A    between atoms: N_8  and  C_9 
REMARK    5  A    between atoms: C_11  and  C_12 
ROOT
HETATM    1  C   UNL     1       5.533  27.010  55.330  1.00  0.00     0.035 A 
HETATM    2  C   UNL     1       4.651  28.051  55.021  1.00  0.00     0.042 A 
HETATM    3  C   UNL     1       4.527  29.176  55.856  1.00  0.00    -0.021 A 
HETATM    4  C   UNL     1       5.312  29.237  57.015  1.00  0.00     0.012 A 
HETATM    5  C   UNL     1       6.198  28.207  57.331  1.00  0.00     0.003 A 
HETATM    6  C   UNL     1       6.308  27.100  56.491  1.00  0.00     0.029 A 
ENDROOT
BRANCH   1   7
HETATM    7  N   UNL     1       5.692  25.851  54.545  1.00  0.00    -0.327 N 
HETATM    8  C   UNL     1       6.698  25.563  53.643  1.00  0.00     0.222 C 
HETATM    9  O   UNL     1       7.676  26.258  53.385  1.00  0.00    -0.273 OA
HETATM   10  H   UNL     1       5.002  25.118  54.684  1.00  0.00     0.169 HD
BRANCH   8  11
HETATM   11  C   UNL     1       6.500  24.232  52.940  1.00  0.00     0.110 C 
BRANCH  11  12
HETATM   12  C   UNL     1       7.822  23.530  52.660  1.00  0.00     0.074 C 
BRANCH  12  13
HETATM   13  C   UNL     1       8.050  22.275  53.433  1.00  0.00     0.053 A 
HETATM   14  O   UNL     1       8.097  22.360  54.795  1.00  0.00    -0.320 OA
HETATM   15  C   UNL     1       8.303  21.099  55.269  1.00  0.00     0.049 A 
HETATM   16  C   UNL     1       8.390  20.946  56.735  1.00  0.00     0.076 C 
HETATM   17  C   UNL     1       8.383  20.206  54.223  1.00  0.00     0.035 A 
HETATM   18  C   UNL     1       8.221  20.963  53.040  1.00  0.00     0.035 A 
ENDBRANCH  12  13
ENDBRANCH  11  12
ENDBRANCH   8  11
ENDBRANCH   1   7
BRANCH   3  19
HETATM   19  C   UNL     1       3.610  30.265  55.536  1.00  0.00     0.010 A 
HETATM   20  C   UNL     1       2.821  31.091  56.375  1.00  0.00     0.152 A 
HETATM   21  N   UNL     1       2.096  31.986  55.698  1.00  0.00    -0.187 NA
HETATM   22  N   UNL     1       2.419  31.741  54.419  1.00  0.00    -0.289 N 
HETATM   23  H   UNL     1       1.988  32.308  53.696  1.00  0.00     0.188 HD
HETATM   24  C   UNL     1       3.312  30.721  54.268  1.00  0.00     0.123 A 
ENDBRANCH   3  19
TORSDOF 5
ENDMDL
