MODEL 1
REMARK VINA RESULT:     -10.4      0.000      0.000
REMARK  5 active torsions:
REMARK  status: ('A' for Active; 'I' for Inactive)
REMARK    1  A    between atoms: C_4  and  N_5 
REMARK       I    between atoms: N_5  and  C_6 
REMARK       I    between atoms: C_6  and  N_7 
REMARK    2  A    between atoms: N_7  and  C_8 
REMARK    3  A    between atoms: C_17  and  C_18 
REMARK       I    between atoms: C_18  and  N_19 
REMARK    4  A    between atoms: N_19  and  C_20 
REMARK    5  A    between atoms: C_20  and  C_21 
ROOT
HETATM    1  C   UNL     1       9.910  29.325  55.193  1.00  0.00     0.072 C 
HETATM    2  C   UNL     1       8.800  29.271  56.182  1.00  0.00     0.056 C 
HETATM    3  N   UNL     1       9.023  29.790  57.458  1.00  0.00    -0.228 NA
HETATM    4  C   UNL     1       7.970  29.585  58.212  1.00  0.00     0.175 C 
HETATM    5  S   UNL     1       6.619  28.936  57.419  1.00  0.00    -0.044 SA
HETATM    6  C   UNL     1       7.551  28.698  56.000  1.00  0.00     0.100 C 
ENDROOT
BRANCH   4   7
HETATM    7  N   UNL     1       7.979  29.863  59.557  1.00  0.00    -0.287 N 
HETATM    8  C   UNL     1       7.611  31.063  60.136  1.00  0.00     0.326 C 
HETATM    9  N   UNL     1       7.569  30.956  61.519  1.00  0.00    -0.309 N 
HETATM   10  O   UNL     1       7.333  32.087  59.524  1.00  0.00    -0.247 OA
HETATM   11  H   UNL     1       7.954  30.115  61.921  1.00  0.00     0.170 HD
HETATM   12  H   UNL     1       8.073  29.038  60.125  1.00  0.00     0.172 HD
BRANCH   9  13
HETATM   13  C   UNL     1       7.088  31.921  62.435  1.00  0.00     0.037 A 
HETATM   14  C   UNL     1       5.760  32.357  62.493  1.00  0.00     0.053 A 
HETATM   15  C   UNL     1       5.369  33.297  63.448  1.00  0.00     0.036 A 
HETATM   16 CL   UNL     1       3.730  33.823  63.508  1.00  0.00    -0.084 Cl
HETATM   17  C   UNL     1       6.288  33.811  64.357  1.00  0.00     0.024 A 
HETATM   18  C   UNL     1       7.612  33.383  64.311  1.00  0.00     0.004 A 
HETATM   19  C   UNL     1       8.008  32.444  63.353  1.00  0.00     0.029 A 
ENDBRANCH   9  13
ENDBRANCH   4   7
BRANCH   6  20
HETATM   20  C   UNL     1       7.032  27.942  54.872  1.00  0.00     0.260 C 
HETATM   21  N   UNL     1       7.505  26.653  54.781  1.00  0.00    -0.352 N 
HETATM   22  H   UNL     1       8.084  26.303  55.536  1.00  0.00     0.163 HD
HETATM   23  O   UNL     1       6.277  28.412  54.028  1.00  0.00    -0.267 OA
BRANCH  21  24
HETATM   24  C   UNL     1       7.374  25.847  53.593  1.00  0.00     0.161 C 
BRANCH  24  25
HETATM   25  C   UNL     1       7.556  24.382  53.916  1.00  0.00    -0.040 A 
HETATM   26  C   UNL     1       7.433  23.924  55.238  1.00  0.00     0.012 A 
HETATM   27  C   UNL     1       7.608  22.571  55.537  1.00  0.00     0.043 A 
HETATM   28  C   UNL     1       7.904  21.673  54.518  1.00  0.00     0.116 A 
HETATM   29  F   UNL     1       8.081  20.377  54.812  1.00  0.00    -0.206 F 
HETATM   30  C   UNL     1       8.016  22.098  53.202  1.00  0.00     0.043 A 
HETATM   31  C   UNL     1       7.830  23.447  52.899  1.00  0.00     0.012 A 
ENDBRANCH  24  25
ENDBRANCH  21  24
ENDBRANCH   6  20
TORSDOF 5
ENDMDL
MODEL 2
REMARK VINA RESULT:     -10.3      4.701     10.785
REMARK  5 active torsions:
REMARK  status: ('A' for Active; 'I' for Inactive)
REMARK    1  A    between atoms: C_4  and  N_5 
REMARK       I    between atoms: N_5  and  C_6 
REMARK       I    between atoms: C_6  and  N_7 
REMARK    2  A    between atoms: N_7  and  C_8 
REMARK    3  A    between atoms: C_17  and  C_18 
REMARK       I    between atoms: C_18  and  N_19 
REMARK    4  A    between atoms: N_19  and  C_20 
REMARK    5  A    between atoms: C_20  and  C_21 
ROOT
HETATM    1  C   UNL     1       5.623  32.088  58.263  1.00  0.00     0.072 C 
HETATM    2  C   UNL     1       6.425  30.850  58.070  1.00  0.00     0.056 C 
HETATM    3  N   UNL     1       5.853  29.794  57.360  1.00  0.00    -0.228 NA
HETATM    4  C   UNL     1       6.668  28.766  57.359  1.00  0.00     0.175 C 
HETATM    5  S   UNL     1       8.197  29.045  58.036  1.00  0.00    -0.044 SA
HETATM    6  C   UNL     1       7.689  30.591  58.577  1.00  0.00     0.100 C 
ENDROOT
BRANCH   4   7
HETATM    7  N   UNL     1       6.290  27.544  56.858  1.00  0.00    -0.287 N 
HETATM    8  C   UNL     1       6.937  26.847  55.855  1.00  0.00     0.326 C 
HETATM    9  N   UNL     1       6.402  25.575  55.709  1.00  0.00    -0.309 N 
HETATM   10  O   UNL     1       7.875  27.270  55.193  1.00  0.00    -0.247 OA
HETATM   11  H   UNL     1       5.544  25.383  56.204  1.00  0.00     0.170 HD
HETATM   12  H   UNL     1       5.608  27.081  57.435  1.00  0.00     0.172 HD
BRANCH   9  13
HETATM   13  C   UNL     1       6.900  24.527  54.900  1.00  0.00     0.037 A 
HETATM   14  C   UNL     1       7.228  23.254  55.377  1.00  0.00     0.053 A 
HETATM   15  C   UNL     1       7.693  22.272  54.500  1.00  0.00     0.036 A 
HETATM   16 CL   UNL     1       8.091  20.708  55.102  1.00  0.00    -0.084 Cl
HETATM   17  C   UNL     1       7.833  22.540  53.142  1.00  0.00     0.024 A 
HETATM   18  C   UNL     1       7.507  23.803  52.655  1.00  0.00     0.004 A 
HETATM   19  C   UNL     1       7.045  24.790  53.531  1.00  0.00     0.029 A 
ENDBRANCH   9  13
ENDBRANCH   4   7
BRANCH   6  20
HETATM   20  C   UNL     1       8.510  31.386  59.474  1.00  0.00     0.260 C 
HETATM   21  N   UNL     1       8.387  31.057  60.805  1.00  0.00    -0.352 N 
HETATM   22  H   UNL     1       7.828  30.246  61.046  1.00  0.00     0.163 HD
HETATM   23  O   UNL     1       9.220  32.315  59.103  1.00  0.00    -0.267 OA
BRANCH  21  24
HETATM   24  C   UNL     1       8.856  31.904  61.873  1.00  0.00     0.161 C 
BRANCH  24  25
HETATM   25  C   UNL     1       7.716  32.301  62.782  1.00  0.00    -0.040 A 
HETATM   26  C   UNL     1       6.396  31.939  62.468  1.00  0.00     0.012 A 
HETATM   27  C   UNL     1       5.342  32.311  63.305  1.00  0.00     0.043 A 
HETATM   28  C   UNL     1       5.602  33.043  64.458  1.00  0.00     0.116 A 
HETATM   29  F   UNL     1       4.587  33.406  65.253  1.00  0.00    -0.206 F 
HETATM   30  C   UNL     1       6.899  33.400  64.798  1.00  0.00     0.043 A 
HETATM   31  C   UNL     1       7.956  33.019  63.970  1.00  0.00     0.012 A 
ENDBRANCH  24  25
ENDBRANCH  21  24
ENDBRANCH   6  20
TORSDOF 5
ENDMDL
MODEL 3
REMARK VINA RESULT:      -9.8      2.506      3.438
REMARK  5 active torsions:
REMARK  status: ('A' for Active; 'I' for Inactive)
REMARK    1  A    between atoms: C_4  and  N_5 
REMARK       I    between atoms: N_5  and  C_6 
REMARK       I    between atoms: C_6  and  N_7 
REMARK    2  A    between atoms: N_7  and  C_8 
REMARK    3  A    between atoms: C_17  and  C_18 
REMARK       I    between atoms: C_18  and  N_19 
REMARK    4  A    between atoms: N_19  and  C_20 
REMARK    5  A    between atoms: C_20  and  C_21 
ROOT
HETATM    1  C   UNL     1       5.269  28.510  52.285  1.00  0.00     0.072 C 
HETATM    2  C   UNL     1       5.287  28.222  53.744  1.00  0.00     0.056 C 
HETATM    3  N   UNL     1       5.266  29.298  54.632  1.00  0.00    -0.228 NA
HETATM    4  C   UNL     1       5.367  28.859  55.864  1.00  0.00     0.175 C 
HETATM    5  S   UNL     1       5.317  27.174  56.047  1.00  0.00    -0.044 SA
HETATM    6  C   UNL     1       5.383  26.976  54.345  1.00  0.00     0.100 C 
ENDROOT
BRANCH   4   7
HETATM    7  N   UNL     1       5.521  29.717  56.926  1.00  0.00    -0.287 N 
HETATM    8  C   UNL     1       6.601  29.748  57.789  1.00  0.00     0.326 C 
HETATM    9  N   UNL     1       6.527  30.841  58.640  1.00  0.00    -0.309 N 
HETATM   10  O   UNL     1       7.522  28.941  57.797  1.00  0.00    -0.247 OA
HETATM   11  H   UNL     1       5.659  31.356  58.643  1.00  0.00     0.170 HD
HETATM   12  H   UNL     1       4.871  30.484  56.905  1.00  0.00     0.172 HD
BRANCH   9  13
HETATM   13  C   UNL     1       7.519  31.288  59.544  1.00  0.00     0.037 A 
HETATM   14  C   UNL     1       7.288  31.543  60.900  1.00  0.00     0.053 A 
HETATM   15  C   UNL     1       8.335  31.960  61.725  1.00  0.00     0.036 A 
HETATM   16 CL   UNL     1       8.036  32.269  63.393  1.00  0.00    -0.084 Cl
HETATM   17  C   UNL     1       9.619  32.125  61.216  1.00  0.00     0.024 A 
HETATM   18  C   UNL     1       9.861  31.871  59.869  1.00  0.00     0.004 A 
HETATM   19  C   UNL     1       8.815  31.457  59.038  1.00  0.00     0.029 A 
ENDBRANCH   9  13
ENDBRANCH   4   7
BRANCH   6  20
HETATM   20  C   UNL     1       5.576  25.668  53.742  1.00  0.00     0.260 C 
HETATM   21  N   UNL     1       6.890  25.270  53.647  1.00  0.00    -0.352 N 
HETATM   22  H   UNL     1       7.597  25.854  54.078  1.00  0.00     0.163 HD
HETATM   23  O   UNL     1       4.661  24.982  53.299  1.00  0.00    -0.267 OA
BRANCH  21  24
HETATM   24  C   UNL     1       7.323  24.175  52.815  1.00  0.00     0.161 C 
BRANCH  24  25
HETATM   25  C   UNL     1       7.598  22.945  53.649  1.00  0.00    -0.040 A 
HETATM   26  C   UNL     1       7.868  21.714  53.032  1.00  0.00     0.012 A 
HETATM   27  C   UNL     1       8.116  20.575  53.803  1.00  0.00     0.043 A 
HETATM   28  C   UNL     1       8.096  20.665  55.190  1.00  0.00     0.116 A 
HETATM   29  F   UNL     1       8.324  19.568  55.926  1.00  0.00    -0.206 F 
HETATM   30  C   UNL     1       7.846  21.874  55.823  1.00  0.00     0.043 A 
HETATM   31  C   UNL     1       7.610  23.015  55.056  1.00  0.00     0.012 A 
ENDBRANCH  24  25
ENDBRANCH  21  24
ENDBRANCH   6  20
TORSDOF 5
ENDMDL
MODEL 4
REMARK VINA RESULT:      -9.5      5.003     10.852
REMARK  5 active torsions:
REMARK  status: ('A' for Active; 'I' for Inactive)
REMARK    1  A    between atoms: C_4  and  N_5 
REMARK       I    between atoms: N_5  and  C_6 
REMARK       I    between atoms: C_6  and  N_7 
REMARK    2  A    between atoms: N_7  and  C_8 
REMARK    3  A    between atoms: C_17  and  C_18 
REMARK       I    between atoms: C_18  and  N_19 
REMARK    4  A    between atoms: N_19  and  C_20 
REMARK    5  A    between atoms: C_20  and  C_21 
ROOT
HETATM    1  C   UNL     1       9.451  30.219  58.734  1.00  0.00     0.072 C 
HETATM    2  C   UNL     1       8.241  29.583  58.148  1.00  0.00     0.056 C 
HETATM    3  N   UNL     1       8.380  28.345  57.518  1.00  0.00    -0.228 NA
HETATM    4  C   UNL     1       7.234  27.980  56.997  1.00  0.00     0.175 C 
HETATM    5  S   UNL     1       5.913  28.976  57.365  1.00  0.00    -0.044 SA
HETATM    6  C   UNL     1       6.961  30.116  58.101  1.00  0.00     0.100 C 
ENDROOT
BRANCH   4   7
HETATM    7  N   UNL     1       7.127  26.872  56.192  1.00  0.00    -0.287 N 
HETATM    8  C   UNL     1       7.832  25.692  56.343  1.00  0.00     0.326 C 
HETATM    9  N   UNL     1       7.364  24.718  55.473  1.00  0.00    -0.309 N 
HETATM   10  O   UNL     1       8.734  25.507  57.149  1.00  0.00    -0.247 OA
HETATM   11  H   UNL     1       6.719  25.019  54.758  1.00  0.00     0.170 HD
HETATM   12  H   UNL     1       6.321  26.903  55.590  1.00  0.00     0.172 HD
BRANCH   9  13
HETATM   13  C   UNL     1       7.728  23.351  55.446  1.00  0.00     0.037 A 
HETATM   14  C   UNL     1       7.859  22.596  54.276  1.00  0.00     0.053 A 
HETATM   15  C   UNL     1       8.248  21.257  54.343  1.00  0.00     0.036 A 
HETATM   16 CL   UNL     1       8.406  20.340  52.893  1.00  0.00    -0.084 Cl
HETATM   17  C   UNL     1       8.513  20.654  55.568  1.00  0.00     0.024 A 
HETATM   18  C   UNL     1       8.388  21.396  56.739  1.00  0.00     0.004 A 
HETATM   19  C   UNL     1       7.997  22.737  56.677  1.00  0.00     0.029 A 
ENDBRANCH   9  13
ENDBRANCH   4   7
BRANCH   6  20
HETATM   20  C   UNL     1       6.486  31.426  58.512  1.00  0.00     0.260 C 
HETATM   21  N   UNL     1       6.403  31.603  59.875  1.00  0.00    -0.352 N 
HETATM   22  H   UNL     1       6.761  30.868  60.474  1.00  0.00     0.163 HD
HETATM   23  O   UNL     1       6.132  32.298  57.726  1.00  0.00    -0.267 OA
BRANCH  21  24
HETATM   24  C   UNL     1       5.675  32.686  60.486  1.00  0.00     0.161 C 
BRANCH  24  25
HETATM   25  C   UNL     1       6.170  32.940  61.891  1.00  0.00    -0.040 A 
HETATM   26  C   UNL     1       7.425  32.462  62.300  1.00  0.00     0.012 A 
HETATM   27  C   UNL     1       7.880  32.692  63.601  1.00  0.00     0.043 A 
HETATM   28  C   UNL     1       7.085  33.400  64.494  1.00  0.00     0.116 A 
HETATM   29  F   UNL     1       7.521  33.610  65.743  1.00  0.00    -0.206 F 
HETATM   30  C   UNL     1       5.848  33.897  64.108  1.00  0.00     0.043 A 
HETATM   31  C   UNL     1       5.396  33.679  62.806  1.00  0.00     0.012 A 
ENDBRANCH  24  25
ENDBRANCH  21  24
ENDBRANCH   6  20
TORSDOF 5
ENDMDL
MODEL 5
REMARK VINA RESULT:      -9.1      5.718      9.393
REMARK  5 active torsions:
REMARK  status: ('A' for Active; 'I' for Inactive)
REMARK    1  A    between atoms: C_4  and  N_5 
REMARK       I    between atoms: N_5  and  C_6 
REMARK       I    between atoms: C_6  and  N_7 
REMARK    2  A    between atoms: N_7  and  C_8 
REMARK    3  A    between atoms: C_17  and  C_18 
REMARK       I    between atoms: C_18  and  N_19 
REMARK    4  A    between atoms: N_19  and  C_20 
REMARK    5  A    between atoms: C_20  and  C_21 
ROOT
HETATM    1  C   UNL     1       5.533  28.783  57.351  1.00  0.00     0.072 C 
HETATM    2  C   UNL     1       6.112  28.423  56.029  1.00  0.00     0.056 C 
HETATM    3  N   UNL     1       5.556  28.995  54.884  1.00  0.00    -0.228 NA
HETATM    4  C   UNL     1       6.136  28.505  53.815  1.00  0.00     0.175 C 
HETATM    5  S   UNL     1       7.465  27.492  54.105  1.00  0.00    -0.044 SA
HETATM    6  C   UNL     1       7.133  27.517  55.787  1.00  0.00     0.100 C 
ENDROOT
BRANCH   4   7
HETATM    7  N   UNL     1       5.678  28.785  52.551  1.00  0.00    -0.287 N 
HETATM    8  C   UNL     1       4.912  27.945  51.765  1.00  0.00     0.326 C 
HETATM    9  N   UNL     1       4.474  28.596  50.621  1.00  0.00    -0.309 N 
HETATM   10  O   UNL     1       4.628  26.786  52.038  1.00  0.00    -0.247 OA
HETATM   11  H   UNL     1       4.883  29.498  50.426  1.00  0.00     0.170 HD
HETATM   12  H   UNL     1       5.764  29.759  52.312  1.00  0.00     0.172 HD
BRANCH   9  13
HETATM   13  C   UNL     1       3.549  28.114  49.665  1.00  0.00     0.037 A 
HETATM   14  C   UNL     1       3.736  26.955  48.906  1.00  0.00     0.053 A 
HETATM   15  C   UNL     1       2.756  26.540  48.001  1.00  0.00     0.036 A 
HETATM   16 CL   UNL     1       3.000  25.110  47.073  1.00  0.00    -0.084 Cl
HETATM   17  C   UNL     1       1.581  27.268  47.843  1.00  0.00     0.024 A 
HETATM   18  C   UNL     1       1.383  28.423  48.595  1.00  0.00     0.004 A 
HETATM   19  C   UNL     1       2.363  28.842  49.500  1.00  0.00     0.029 A 
ENDBRANCH   9  13
ENDBRANCH   4   7
BRANCH   6  20
HETATM   20  C   UNL     1       7.830  26.636  56.708  1.00  0.00     0.260 C 
HETATM   21  N   UNL     1       7.952  25.335  56.275  1.00  0.00    -0.352 N 
HETATM   22  H   UNL     1       7.647  25.116  55.334  1.00  0.00     0.163 HD
HETATM   23  O   UNL     1       8.235  26.988  57.811  1.00  0.00    -0.267 OA
BRANCH  21  24
HETATM   24  C   UNL     1       8.318  24.246  57.145  1.00  0.00     0.161 C 
BRANCH  24  25
HETATM   25  C   UNL     1       8.522  22.974  56.354  1.00  0.00    -0.040 A 
HETATM   26  C   UNL     1       8.367  21.722  56.969  1.00  0.00     0.012 A 
HETATM   27  C   UNL     1       8.561  20.546  56.239  1.00  0.00     0.043 A 
HETATM   28  C   UNL     1       8.908  20.619  54.895  1.00  0.00     0.116 A 
HETATM   29  F   UNL     1       9.104  19.489  54.202  1.00  0.00    -0.206 F 
HETATM   30  C   UNL     1       9.052  21.845  54.261  1.00  0.00     0.043 A 
HETATM   31  C   UNL     1       8.847  23.020  54.984  1.00  0.00     0.012 A 
ENDBRANCH  24  25
ENDBRANCH  21  24
ENDBRANCH   6  20
TORSDOF 5
ENDMDL
MODEL 6
REMARK VINA RESULT:      -9.0      5.897      9.467
REMARK  5 active torsions:
REMARK  status: ('A' for Active; 'I' for Inactive)
REMARK    1  A    between atoms: C_4  and  N_5 
REMARK       I    between atoms: N_5  and  C_6 
REMARK       I    between atoms: C_6  and  N_7 
REMARK    2  A    between atoms: N_7  and  C_8 
REMARK    3  A    between atoms: C_17  and  C_18 
REMARK       I    between atoms: C_18  and  N_19 
REMARK    4  A    between atoms: N_19  and  C_20 
REMARK    5  A    between atoms: C_20  and  C_21 
ROOT
HETATM    1  C   UNL     1       6.366  28.660  57.044  1.00  0.00     0.072 C 
HETATM    2  C   UNL     1       5.835  27.940  55.855  1.00  0.00     0.056 C 
HETATM    3  N   UNL     1       5.053  28.650  54.944  1.00  0.00    -0.228 NA
HETATM    4  C   UNL     1       4.610  27.841  54.012  1.00  0.00     0.175 C 
HETATM    5  S   UNL     1       5.224  26.262  54.063  1.00  0.00    -0.044 SA
HETATM    6  C   UNL     1       5.981  26.591  55.566  1.00  0.00     0.100 C 
ENDROOT
BRANCH   4   7
HETATM    7  N   UNL     1       3.695  28.252  53.074  1.00  0.00    -0.287 N 
HETATM    8  C   UNL     1       3.959  28.487  51.737  1.00  0.00     0.326 C 
HETATM    9  N   UNL     1       2.786  28.719  51.032  1.00  0.00    -0.309 N 
HETATM   10  O   UNL     1       5.069  28.471  51.223  1.00  0.00    -0.247 OA
HETATM   11  H   UNL     1       1.947  28.850  51.577  1.00  0.00     0.170 HD
HETATM   12  H   UNL     1       2.744  28.164  53.392  1.00  0.00     0.172 HD
BRANCH   9  13
HETATM   13  C   UNL     1       2.643  28.841  49.630  1.00  0.00     0.037 A 
HETATM   14  C   UNL     1       1.880  27.976  48.839  1.00  0.00     0.053 A 
HETATM   15  C   UNL     1       1.776  28.187  47.463  1.00  0.00     0.036 A 
HETATM   16 CL   UNL     1       0.831  27.113  46.503  1.00  0.00    -0.084 Cl
HETATM   17  C   UNL     1       2.424  29.259  46.857  1.00  0.00     0.024 A 
HETATM   18  C   UNL     1       3.184  30.128  47.634  1.00  0.00     0.004 A 
HETATM   19  C   UNL     1       3.293  29.918  49.013  1.00  0.00     0.029 A 
ENDBRANCH   9  13
ENDBRANCH   4   7
BRANCH   6  20
HETATM   20  C   UNL     1       6.589  25.534  56.355  1.00  0.00     0.260 C 
HETATM   21  N   UNL     1       7.836  25.144  55.924  1.00  0.00    -0.352 N 
HETATM   22  H   UNL     1       8.268  25.671  55.174  1.00  0.00     0.163 HD
HETATM   23  O   UNL     1       6.032  24.983  57.298  1.00  0.00    -0.267 OA
BRANCH  21  24
HETATM   24  C   UNL     1       8.473  23.924  56.354  1.00  0.00     0.161 C 
BRANCH  24  25
HETATM   25  C   UNL     1       8.386  22.866  55.279  1.00  0.00    -0.040 A 
HETATM   26  C   UNL     1       8.038  23.214  53.965  1.00  0.00     0.012 A 
HETATM   27  C   UNL     1       7.952  22.234  52.973  1.00  0.00     0.043 A 
HETATM   28  C   UNL     1       8.213  20.907  53.290  1.00  0.00     0.116 A 
HETATM   29  F   UNL     1       8.119  19.969  52.338  1.00  0.00    -0.206 F 
HETATM   30  C   UNL     1       8.573  20.539  54.579  1.00  0.00     0.043 A 
HETATM   31  C   UNL     1       8.673  21.517  55.569  1.00  0.00     0.012 A 
ENDBRANCH  24  25
ENDBRANCH  21  24
ENDBRANCH   6  20
TORSDOF 5
ENDMDL
MODEL 7
REMARK VINA RESULT:      -8.9      6.734      9.708
REMARK  5 active torsions:
REMARK  status: ('A' for Active; 'I' for Inactive)
REMARK    1  A    between atoms: C_4  and  N_5 
REMARK       I    between atoms: N_5  and  C_6 
REMARK       I    between atoms: C_6  and  N_7 
REMARK    2  A    between atoms: N_7  and  C_8 
REMARK    3  A    between atoms: C_17  and  C_18 
REMARK       I    between atoms: C_18  and  N_19 
REMARK    4  A    between atoms: N_19  and  C_20 
REMARK    5  A    between atoms: C_20  and  C_21 
ROOT
HETATM    1  C   UNL     1       3.587  30.458  55.410  1.00  0.00     0.072 C 
HETATM    2  C   UNL     1       4.166  29.278  54.713  1.00  0.00     0.056 C 
HETATM    3  N   UNL     1       5.021  28.439  55.428  1.00  0.00    -0.228 NA
HETATM    4  C   UNL     1       5.495  27.507  54.636  1.00  0.00     0.175 C 
HETATM    5  S   UNL     1       4.833  27.468  53.076  1.00  0.00    -0.044 SA
HETATM    6  C   UNL     1       3.998  28.935  53.380  1.00  0.00     0.100 C 
ENDROOT
BRANCH   4   7
HETATM    7  N   UNL     1       6.476  26.638  55.049  1.00  0.00    -0.287 N 
HETATM    8  C   UNL     1       6.377  25.260  55.070  1.00  0.00     0.326 C 
HETATM    9  N   UNL     1       7.599  24.678  55.374  1.00  0.00    -0.309 N 
HETATM   10  O   UNL     1       5.361  24.621  54.831  1.00  0.00    -0.247 OA
HETATM   11  H   UNL     1       8.330  25.297  55.692  1.00  0.00     0.170 HD
HETATM   12  H   UNL     1       7.375  27.080  55.138  1.00  0.00     0.172 HD
BRANCH   9  13
HETATM   13  C   UNL     1       7.923  23.301  55.334  1.00  0.00     0.037 A 
HETATM   14  C   UNL     1       8.030  22.553  54.157  1.00  0.00     0.053 A 
HETATM   15  C   UNL     1       8.379  21.202  54.211  1.00  0.00     0.036 A 
HETATM   16 CL   UNL     1       8.508  20.294  52.753  1.00  0.00    -0.084 Cl
HETATM   17  C   UNL     1       8.628  20.580  55.431  1.00  0.00     0.024 A 
HETATM   18  C   UNL     1       8.526  21.316  56.609  1.00  0.00     0.004 A 
HETATM   19  C   UNL     1       8.175  22.669  56.559  1.00  0.00     0.029 A 
ENDBRANCH   9  13
ENDBRANCH   4   7
BRANCH   6  20
HETATM   20  C   UNL     1       3.314  29.650  52.316  1.00  0.00     0.260 C 
HETATM   21  N   UNL     1       2.401  28.895  51.615  1.00  0.00    -0.352 N 
HETATM   22  H   UNL     1       2.207  27.956  51.942  1.00  0.00     0.163 HD
HETATM   23  O   UNL     1       3.553  30.815  52.017  1.00  0.00    -0.267 OA
BRANCH  21  24
HETATM   24  C   UNL     1       1.852  29.302  50.346  1.00  0.00     0.161 C 
BRANCH  24  25
HETATM   25  C   UNL     1       2.103  28.249  49.291  1.00  0.00    -0.040 A 
HETATM   26  C   UNL     1       3.364  27.644  49.176  1.00  0.00     0.012 A 
HETATM   27  C   UNL     1       3.597  26.674  48.197  1.00  0.00     0.043 A 
HETATM   28  C   UNL     1       2.573  26.308  47.332  1.00  0.00     0.116 A 
HETATM   29  F   UNL     1       2.804  25.386  46.388  1.00  0.00    -0.206 F 
HETATM   30  C   UNL     1       1.313  26.881  47.435  1.00  0.00     0.043 A 
HETATM   31  C   UNL     1       1.074  27.840  48.420  1.00  0.00     0.012 A 
ENDBRANCH  24  25
ENDBRANCH  21  24
ENDBRANCH   6  20
TORSDOF 5
ENDMDL
MODEL 8
REMARK VINA RESULT:      -8.9      4.694     10.087
REMARK  5 active torsions:
REMARK  status: ('A' for Active; 'I' for Inactive)
REMARK    1  A    between atoms: C_4  and  N_5 
REMARK       I    between atoms: N_5  and  C_6 
REMARK       I    between atoms: C_6  and  N_7 
REMARK    2  A    between atoms: N_7  and  C_8 
REMARK    3  A    between atoms: C_17  and  C_18 
REMARK       I    between atoms: C_18  and  N_19 
REMARK    4  A    between atoms: N_19  and  C_20 
REMARK    5  A    between atoms: C_20  and  C_21 
ROOT
HETATM    1  C   UNL     1       2.518  32.617  55.619  1.00  0.00     0.072 C 
HETATM    2  C   UNL     1       3.329  31.419  55.965  1.00  0.00     0.056 C 
HETATM    3  N   UNL     1       3.379  30.366  55.052  1.00  0.00    -0.228 NA
HETATM    4  C   UNL     1       4.069  29.371  55.557  1.00  0.00     0.175 C 
HETATM    5  S   UNL     1       4.830  29.688  57.039  1.00  0.00    -0.044 SA
HETATM    6  C   UNL     1       4.017  31.194  57.148  1.00  0.00     0.100 C 
ENDROOT
BRANCH   4   7
HETATM    7  N   UNL     1       4.148  28.153  54.928  1.00  0.00    -0.287 N 
HETATM    8  C   UNL     1       5.308  27.547  54.483  1.00  0.00     0.326 C 
HETATM    9  N   UNL     1       5.059  26.252  54.052  1.00  0.00    -0.309 N 
HETATM   10  O   UNL     1       6.419  28.060  54.487  1.00  0.00    -0.247 OA
HETATM   11  H   UNL     1       4.091  25.982  53.959  1.00  0.00     0.170 HD
HETATM   12  H   UNL     1       3.298  27.620  55.003  1.00  0.00     0.172 HD
BRANCH   9  13
HETATM   13  C   UNL     1       6.014  25.278  53.679  1.00  0.00     0.037 A 
HETATM   14  C   UNL     1       6.389  24.196  54.483  1.00  0.00     0.053 A 
HETATM   15  C   UNL     1       7.325  23.268  54.023  1.00  0.00     0.036 A 
HETATM   16 CL   UNL     1       7.776  21.941  55.024  1.00  0.00    -0.084 Cl
HETATM   17  C   UNL     1       7.896  23.400  52.761  1.00  0.00     0.024 A 
HETATM   18  C   UNL     1       7.528  24.471  51.951  1.00  0.00     0.004 A 
HETATM   19  C   UNL     1       6.593  25.404  52.409  1.00  0.00     0.029 A 
ENDBRANCH   9  13
ENDBRANCH   4   7
BRANCH   6  20
HETATM   20  C   UNL     1       4.060  31.990  58.363  1.00  0.00     0.260 C 
HETATM   21  N   UNL     1       5.321  32.389  58.741  1.00  0.00    -0.352 N 
HETATM   22  H   UNL     1       6.092  32.190  58.114  1.00  0.00     0.163 HD
HETATM   23  O   UNL     1       3.071  32.251  59.040  1.00  0.00    -0.267 OA
BRANCH  21  24
HETATM   24  C   UNL     1       5.624  32.905  60.053  1.00  0.00     0.161 C 
BRANCH  24  25
HETATM   25  C   UNL     1       6.814  32.188  60.649  1.00  0.00    -0.040 A 
HETATM   26  C   UNL     1       7.162  32.386  61.994  1.00  0.00     0.012 A 
HETATM   27  C   UNL     1       8.266  31.728  62.543  1.00  0.00     0.043 A 
HETATM   28  C   UNL     1       9.021  30.871  61.752  1.00  0.00     0.116 A 
HETATM   29  F   UNL     1      10.085  30.250  62.280  1.00  0.00    -0.206 F 
HETATM   30  C   UNL     1       8.688  30.647  60.423  1.00  0.00     0.043 A 
HETATM   31  C   UNL     1       7.580  31.294  59.875  1.00  0.00     0.012 A 
ENDBRANCH  24  25
ENDBRANCH  21  24
ENDBRANCH   6  20
TORSDOF 5
ENDMDL
MODEL 9
REMARK VINA RESULT:      -8.9      1.705      2.340
REMARK  5 active torsions:
REMARK  status: ('A' for Active; 'I' for Inactive)
REMARK    1  A    between atoms: C_4  and  N_5 
REMARK       I    between atoms: N_5  and  C_6 
REMARK       I    between atoms: C_6  and  N_7 
REMARK    2  A    between atoms: N_7  and  C_8 
REMARK    3  A    between atoms: C_17  and  C_18 
REMARK       I    between atoms: C_18  and  N_19 
REMARK    4  A    between atoms: N_19  and  C_20 
REMARK    5  A    between atoms: C_20  and  C_21 
ROOT
HETATM    1  C   UNL     1       7.940  25.428  57.398  1.00  0.00     0.072 C 
HETATM    2  C   UNL     1       8.080  26.852  56.992  1.00  0.00     0.056 C 
HETATM    3  N   UNL     1       8.392  27.794  57.973  1.00  0.00    -0.228 NA
HETATM    4  C   UNL     1       8.395  28.996  57.451  1.00  0.00     0.175 C 
HETATM    5  S   UNL     1       8.206  29.062  55.767  1.00  0.00    -0.044 SA
HETATM    6  C   UNL     1       7.875  27.380  55.726  1.00  0.00     0.100 C 
ENDROOT
BRANCH   4   7
HETATM    7  N   UNL     1       8.525  30.122  58.228  1.00  0.00    -0.287 N 
HETATM    8  C   UNL     1       7.512  30.729  58.945  1.00  0.00     0.326 C 
HETATM    9  N   UNL     1       8.013  31.736  59.758  1.00  0.00    -0.309 N 
HETATM   10  O   UNL     1       6.329  30.416  58.901  1.00  0.00    -0.247 OA
HETATM   11  H   UNL     1       8.974  32.004  59.610  1.00  0.00     0.170 HD
HETATM   12  H   UNL     1       9.486  30.359  58.412  1.00  0.00     0.172 HD
BRANCH   9  13
HETATM   13  C   UNL     1       7.308  32.468  60.743  1.00  0.00     0.037 A 
HETATM   14  C   UNL     1       7.734  32.614  62.067  1.00  0.00     0.053 A 
HETATM   15  C   UNL     1       6.985  33.375  62.967  1.00  0.00     0.036 A 
HETATM   16 CL   UNL     1       7.523  33.548  64.594  1.00  0.00    -0.084 Cl
HETATM   17  C   UNL     1       5.811  34.002  62.563  1.00  0.00     0.024 A 
HETATM   18  C   UNL     1       5.379  33.865  61.246  1.00  0.00     0.004 A 
HETATM   19  C   UNL     1       6.124  33.101  60.343  1.00  0.00     0.029 A 
ENDBRANCH   9  13
ENDBRANCH   4   7
BRANCH   6  20
HETATM   20  C   UNL     1       7.398  26.732  54.517  1.00  0.00     0.260 C 
HETATM   21  N   UNL     1       6.719  25.554  54.728  1.00  0.00    -0.352 N 
HETATM   22  H   UNL     1       6.521  25.283  55.685  1.00  0.00     0.163 HD
HETATM   23  O   UNL     1       7.620  27.154  53.387  1.00  0.00    -0.267 OA
BRANCH  21  24
HETATM   24  C   UNL     1       6.441  24.605  53.679  1.00  0.00     0.161 C 
BRANCH  24  25
HETATM   25  C   UNL     1       7.140  23.291  53.946  1.00  0.00    -0.040 A 
HETATM   26  C   UNL     1       7.660  22.534  52.884  1.00  0.00     0.012 A 
HETATM   27  C   UNL     1       8.301  21.318  53.131  1.00  0.00     0.043 A 
HETATM   28  C   UNL     1       8.424  20.855  54.436  1.00  0.00     0.116 A 
HETATM   29  F   UNL     1       9.031  19.683  54.666  1.00  0.00    -0.206 F 
HETATM   30  C   UNL     1       7.932  21.593  55.503  1.00  0.00     0.043 A 
HETATM   31  C   UNL     1       7.303  22.814  55.261  1.00  0.00     0.012 A 
ENDBRANCH  24  25
ENDBRANCH  21  24
ENDBRANCH   6  20
TORSDOF 5
ENDMDL
MODEL 10
REMARK VINA RESULT:      -8.8      1.775      2.220
REMARK  5 active torsions:
REMARK  status: ('A' for Active; 'I' for Inactive)
REMARK    1  A    between atoms: C_4  and  N_5 
REMARK       I    between atoms: N_5  and  C_6 
REMARK       I    between atoms: C_6  and  N_7 
REMARK    2  A    between atoms: N_7  and  C_8 
REMARK    3  A    between atoms: C_17  and  C_18 
REMARK       I    between atoms: C_18  and  N_19 
REMARK    4  A    between atoms: N_19  and  C_20 
REMARK    5  A    between atoms: C_20  and  C_21 
ROOT
HETATM    1  C   UNL     1       8.956  28.114  57.179  1.00  0.00     0.072 C 
HETATM    2  C   UNL     1       8.012  29.213  57.515  1.00  0.00     0.056 C 
HETATM    3  N   UNL     1       8.459  30.240  58.348  1.00  0.00    -0.228 NA
HETATM    4  C   UNL     1       7.475  31.070  58.598  1.00  0.00     0.175 C 
HETATM    5  S   UNL     1       6.041  30.784  57.739  1.00  0.00    -0.044 SA
HETATM    6  C   UNL     1       6.682  29.313  57.136  1.00  0.00     0.100 C 
ENDROOT
BRANCH   4   7
HETATM    7  N   UNL     1       7.603  32.088  59.511  1.00  0.00    -0.287 N 
HETATM    8  C   UNL     1       6.816  32.270  60.634  1.00  0.00     0.326 C 
HETATM    9  N   UNL     1       7.318  33.287  61.433  1.00  0.00    -0.309 N 
HETATM   10  O   UNL     1       5.822  31.614  60.913  1.00  0.00    -0.247 OA
HETATM   11  H   UNL     1       8.054  33.853  61.039  1.00  0.00     0.170 HD
HETATM   12  H   UNL     1       8.470  32.589  59.417  1.00  0.00     0.172 HD
BRANCH   9  13
HETATM   13  C   UNL     1       6.877  33.652  62.727  1.00  0.00     0.037 A 
HETATM   14  C   UNL     1       5.798  34.506  62.977  1.00  0.00     0.053 A 
HETATM   15  C   UNL     1       5.418  34.793  64.290  1.00  0.00     0.036 A 
HETATM   16 CL   UNL     1       4.086  35.845  64.583  1.00  0.00    -0.084 Cl
HETATM   17  C   UNL     1       6.100  34.234  65.366  1.00  0.00     0.024 A 
HETATM   18  C   UNL     1       7.175  33.382  65.128  1.00  0.00     0.004 A 
HETATM   19  C   UNL     1       7.561  33.094  63.815  1.00  0.00     0.029 A 
ENDBRANCH   9  13
ENDBRANCH   4   7
BRANCH   6  20
HETATM   20  C   UNL     1       5.851  28.367  56.411  1.00  0.00     0.260 C 
HETATM   21  N   UNL     1       5.604  27.191  57.081  1.00  0.00    -0.352 N 
HETATM   22  H   UNL     1       5.925  27.111  58.039  1.00  0.00     0.163 HD
HETATM   23  O   UNL     1       5.438  28.558  55.272  1.00  0.00    -0.267 OA
BRANCH  21  24
HETATM   24  C   UNL     1       5.081  26.011  56.438  1.00  0.00     0.161 C 
BRANCH  24  25
HETATM   25  C   UNL     1       6.203  25.135  55.931  1.00  0.00    -0.040 A 
HETATM   26  C   UNL     1       6.238  24.730  54.587  1.00  0.00     0.012 A 
HETATM   27  C   UNL     1       7.272  23.915  54.121  1.00  0.00     0.043 A 
HETATM   28  C   UNL     1       8.272  23.504  54.993  1.00  0.00     0.116 A 
HETATM   29  F   UNL     1       9.257  22.713  54.544  1.00  0.00    -0.206 F 
HETATM   30  C   UNL     1       8.268  23.902  56.322  1.00  0.00     0.043 A 
HETATM   31  C   UNL     1       7.243  24.727  56.789  1.00  0.00     0.012 A 
ENDBRANCH  24  25
ENDBRANCH  21  24
ENDBRANCH   6  20
TORSDOF 5
ENDMDL
