MODEL 1
REMARK VINA RESULT:      -9.4      0.000      0.000
REMARK  9 active torsions:
REMARK  status: ('A' for Active; 'I' for Inactive)
REMARK    1  A    between atoms: C_5  and  C_6 
REMARK    2  A    between atoms: C_6  and  N_7 
REMARK       I    between atoms: N_7  and  C_8 
REMARK    3  A    between atoms: C_8  and  C_9 
REMARK    4  A    between atoms: C_10  and  S_11 
REMARK    5  A    between atoms: S_11  and  C_12 
REMARK    6  A    between atoms: C_12  and  C_13 
REMARK       I    between atoms: C_13  and  N_14 
REMARK    7  A    between atoms: N_14  and  C_15 
REMARK    8  A    between atoms: C_16  and  O_17 
REMARK    9  A    between atoms: C_20  and  O_21 
ROOT
HETATM    1  C   UNL     1       6.255  28.347  55.214  1.00  0.00     0.067 A 
HETATM    2  C   UNL     1       6.609  28.488  56.557  1.00  0.00     0.109 A 
HETATM    3  N   UNL     1       5.800  29.123  57.454  1.00  0.00    -0.253 NA
HETATM    4  C   UNL     1       4.649  29.668  56.997  1.00  0.00     0.118 A 
HETATM    5  C   UNL     1       4.234  29.594  55.683  1.00  0.00     0.020 A 
HETATM    6  C   UNL     1       5.048  28.920  54.780  1.00  0.00     0.021 A 
ENDROOT
BRANCH   2   7
HETATM    7  S   UNL     1       8.114  27.886  57.295  1.00  0.00    -0.100 SA
BRANCH   7   8
HETATM    8  C   UNL     1       9.169  29.344  57.071  1.00  0.00     0.184 C 
BRANCH   8   9
HETATM    9  C   UNL     1       9.134  30.370  58.198  1.00  0.00     0.231 C 
HETATM   10  N   UNL     1       8.178  30.156  59.176  1.00  0.00    -0.324 N 
HETATM   11  H   UNL     1       7.761  29.225  59.171  1.00  0.00     0.169 HD
HETATM   12  O   UNL     1      10.030  31.215  58.253  1.00  0.00    -0.272 OA
BRANCH  10  13
HETATM   13  C   UNL     1       8.027  30.910  60.363  1.00  0.00     0.068 A 
HETATM   14  C   UNL     1       7.114  31.967  60.532  1.00  0.00     0.097 A 
HETATM   15  C   UNL     1       7.137  32.713  61.724  1.00  0.00     0.075 A 
HETATM   16  C   UNL     1       8.034  32.395  62.746  1.00  0.00     0.070 A 
HETATM   17  C   UNL     1       8.867  31.287  62.608  1.00  0.00     0.039 A 
HETATM   18  C   UNL     1       8.857  30.544  61.429  1.00  0.00     0.035 A 
BRANCH  14  19
HETATM   19  O   UNL     1       6.156  32.126  59.565  1.00  0.00    -0.354 OA
HETATM   20  C   UNL     1       4.838  32.446  59.982  1.00  0.00     0.210 C 
ENDBRANCH  14  19
BRANCH  16  21
HETATM   21  O   UNL     1       8.160  33.059  63.936  1.00  0.00    -0.356 OA
HETATM   22  C   UNL     1       6.957  33.560  64.508  1.00  0.00     0.210 C 
ENDBRANCH  16  21
ENDBRANCH  10  13
ENDBRANCH   8   9
ENDBRANCH   7   8
ENDBRANCH   2   7
BRANCH   1  23
HETATM   23  C   UNL     1       7.096  27.643  54.215  1.00  0.00     0.254 C 
HETATM   24  N   UNL     1       6.782  26.315  54.015  1.00  0.00    -0.353 N 
HETATM   25  H   UNL     1       6.151  25.837  54.645  1.00  0.00     0.163 HD
HETATM   26  O   UNL     1       7.979  28.224  53.602  1.00  0.00    -0.268 OA
BRANCH  24  27
HETATM   27  C   UNL     1       7.525  25.497  53.081  1.00  0.00     0.161 C 
BRANCH  27  28
HETATM   28  C   UNL     1       7.713  24.103  53.623  1.00  0.00    -0.041 A 
HETATM   29  C   UNL     1       7.927  23.030  52.746  1.00  0.00     0.009 A 
HETATM   30  C   UNL     1       8.121  21.737  53.236  1.00  0.00     0.007 A 
HETATM   31  C   UNL     1       8.099  21.491  54.612  1.00  0.00    -0.062 A 
HETATM   32  C   UNL     1       8.357  20.113  55.150  1.00  0.00     0.048 C 
HETATM   33  C   UNL     1       7.890  22.561  55.490  1.00  0.00     0.007 A 
HETATM   34  C   UNL     1       7.694  23.854  55.000  1.00  0.00     0.009 A 
ENDBRANCH  27  28
ENDBRANCH  24  27
ENDBRANCH   1  23
TORSDOF 9
ENDMDL
MODEL 2
REMARK VINA RESULT:      -9.3      2.323      4.123
REMARK  9 active torsions:
REMARK  status: ('A' for Active; 'I' for Inactive)
REMARK    1  A    between atoms: C_5  and  C_6 
REMARK    2  A    between atoms: C_6  and  N_7 
REMARK       I    between atoms: N_7  and  C_8 
REMARK    3  A    between atoms: C_8  and  C_9 
REMARK    4  A    between atoms: C_10  and  S_11 
REMARK    5  A    between atoms: S_11  and  C_12 
REMARK    6  A    between atoms: C_12  and  C_13 
REMARK       I    between atoms: C_13  and  N_14 
REMARK    7  A    between atoms: N_14  and  C_15 
REMARK    8  A    between atoms: C_16  and  O_17 
REMARK    9  A    between atoms: C_20  and  O_21 
ROOT
HETATM    1  C   UNL     1       8.887  29.241  57.517  1.00  0.00     0.067 A 
HETATM    2  C   UNL     1       8.698  30.415  58.247  1.00  0.00     0.109 A 
HETATM    3  N   UNL     1       9.691  31.338  58.402  1.00  0.00    -0.253 NA
HETATM    4  C   UNL     1      10.901  31.065  57.863  1.00  0.00     0.118 A 
HETATM    5  C   UNL     1      11.181  29.920  57.146  1.00  0.00     0.020 A 
HETATM    6  C   UNL     1      10.157  28.997  56.967  1.00  0.00     0.021 A 
ENDROOT
BRANCH   2   7
HETATM    7  S   UNL     1       7.189  30.885  59.068  1.00  0.00    -0.100 SA
BRANCH   7   8
HETATM    8  C   UNL     1       7.811  32.238  60.104  1.00  0.00     0.184 C 
BRANCH   8   9
HETATM    9  C   UNL     1       7.463  32.155  61.586  1.00  0.00     0.231 C 
HETATM   10  N   UNL     1       6.953  33.312  62.148  1.00  0.00    -0.324 N 
HETATM   11  H   UNL     1       6.644  34.015  61.476  1.00  0.00     0.169 HD
HETATM   12  O   UNL     1       7.510  31.055  62.140  1.00  0.00    -0.272 OA
BRANCH  10  13
HETATM   13  C   UNL     1       6.464  33.443  63.468  1.00  0.00     0.068 A 
HETATM   14  C   UNL     1       5.110  33.344  63.837  1.00  0.00     0.097 A 
HETATM   15  C   UNL     1       4.737  33.605  65.167  1.00  0.00     0.075 A 
HETATM   16  C   UNL     1       5.699  33.930  66.126  1.00  0.00     0.070 A 
HETATM   17  C   UNL     1       7.047  33.930  65.774  1.00  0.00     0.039 A 
HETATM   18  C   UNL     1       7.427  33.679  64.457  1.00  0.00     0.035 A 
BRANCH  14  19
HETATM   19  O   UNL     1       4.239  32.866  62.893  1.00  0.00    -0.354 OA
HETATM   20  C   UNL     1       3.069  33.624  62.625  1.00  0.00     0.210 C 
ENDBRANCH  14  19
BRANCH  16  21
HETATM   21  O   UNL     1       5.452  34.222  67.441  1.00  0.00    -0.356 OA
HETATM   22  C   UNL     1       6.591  34.347  68.284  1.00  0.00     0.210 C 
ENDBRANCH  16  21
ENDBRANCH  10  13
ENDBRANCH   8   9
ENDBRANCH   7   8
ENDBRANCH   2   7
BRANCH   1  23
HETATM   23  C   UNL     1       7.826  28.225  57.307  1.00  0.00     0.254 C 
HETATM   24  N   UNL     1       7.173  28.301  56.095  1.00  0.00    -0.353 N 
HETATM   25  H   UNL     1       7.297  29.106  55.495  1.00  0.00     0.163 HD
HETATM   26  O   UNL     1       7.585  27.373  58.149  1.00  0.00    -0.268 OA
BRANCH  24  27
HETATM   27  C   UNL     1       6.105  27.386  55.756  1.00  0.00     0.161 C 
BRANCH  27  28
HETATM   28  C   UNL     1       6.649  26.162  55.065  1.00  0.00    -0.041 A 
HETATM   29  C   UNL     1       7.312  26.282  53.835  1.00  0.00     0.009 A 
HETATM   30  C   UNL     1       7.837  25.158  53.194  1.00  0.00     0.007 A 
HETATM   31  C   UNL     1       7.704  23.890  53.768  1.00  0.00    -0.062 A 
HETATM   32  C   UNL     1       8.308  22.683  53.112  1.00  0.00     0.048 C 
HETATM   33  C   UNL     1       7.046  23.767  54.998  1.00  0.00     0.007 A 
HETATM   34  C   UNL     1       6.519  24.891  55.639  1.00  0.00     0.009 A 
ENDBRANCH  27  28
ENDBRANCH  24  27
ENDBRANCH   1  23
TORSDOF 9
ENDMDL
MODEL 3
REMARK VINA RESULT:      -9.2      3.610      8.208
REMARK  9 active torsions:
REMARK  status: ('A' for Active; 'I' for Inactive)
REMARK    1  A    between atoms: C_5  and  C_6 
REMARK    2  A    between atoms: C_6  and  N_7 
REMARK       I    between atoms: N_7  and  C_8 
REMARK    3  A    between atoms: C_8  and  C_9 
REMARK    4  A    between atoms: C_10  and  S_11 
REMARK    5  A    between atoms: S_11  and  C_12 
REMARK    6  A    between atoms: C_12  and  C_13 
REMARK       I    between atoms: C_13  and  N_14 
REMARK    7  A    between atoms: N_14  and  C_15 
REMARK    8  A    between atoms: C_16  and  O_17 
REMARK    9  A    between atoms: C_20  and  O_21 
ROOT
HETATM    1  C   UNL     1       7.595  28.418  55.956  1.00  0.00     0.067 A 
HETATM    2  C   UNL     1       6.418  28.876  56.552  1.00  0.00     0.109 A 
HETATM    3  N   UNL     1       6.426  29.561  57.733  1.00  0.00    -0.253 NA
HETATM    4  C   UNL     1       7.614  29.747  58.352  1.00  0.00     0.118 A 
HETATM    5  C   UNL     1       8.820  29.308  57.844  1.00  0.00     0.020 A 
HETATM    6  C   UNL     1       8.810  28.638  56.627  1.00  0.00     0.021 A 
ENDROOT
BRANCH   2   7
HETATM    7  S   UNL     1       4.777  28.653  55.897  1.00  0.00    -0.100 SA
BRANCH   7   8
HETATM    8  C   UNL     1       4.767  29.961  54.641  1.00  0.00     0.184 C 
BRANCH   8   9
HETATM    9  C   UNL     1       4.398  29.524  53.228  1.00  0.00     0.231 C 
HETATM   10  N   UNL     1       5.457  29.157  52.417  1.00  0.00    -0.324 N 
HETATM   11  H   UNL     1       6.336  28.991  52.908  1.00  0.00     0.169 HD
HETATM   12  O   UNL     1       3.206  29.379  52.950  1.00  0.00    -0.272 OA
BRANCH  10  13
HETATM   13  C   UNL     1       5.352  28.620  51.113  1.00  0.00     0.068 A 
HETATM   14  C   UNL     1       5.613  29.333  49.927  1.00  0.00     0.097 A 
HETATM   15  C   UNL     1       5.364  28.721  48.687  1.00  0.00     0.075 A 
HETATM   16  C   UNL     1       4.890  27.408  48.622  1.00  0.00     0.070 A 
HETATM   17  C   UNL     1       4.728  26.678  49.797  1.00  0.00     0.039 A 
HETATM   18  C   UNL     1       4.965  27.277  51.033  1.00  0.00     0.035 A 
BRANCH  14  19
HETATM   19  O   UNL     1       6.226  30.552  50.054  1.00  0.00    -0.354 OA
HETATM   20  C   UNL     1       5.783  31.608  49.215  1.00  0.00     0.210 C 
ENDBRANCH  14  19
BRANCH  16  21
HETATM   21  O   UNL     1       4.595  26.719  47.476  1.00  0.00    -0.356 OA
HETATM   22  C   UNL     1       3.217  26.609  47.144  1.00  0.00     0.210 C 
ENDBRANCH  16  21
ENDBRANCH  10  13
ENDBRANCH   8   9
ENDBRANCH   7   8
ENDBRANCH   2   7
BRANCH   1  23
HETATM   23  C   UNL     1       7.630  27.692  54.663  1.00  0.00     0.254 C 
HETATM   24  N   UNL     1       7.212  26.378  54.716  1.00  0.00    -0.353 N 
HETATM   25  H   UNL     1       7.077  25.919  55.607  1.00  0.00     0.163 HD
HETATM   26  O   UNL     1       7.978  28.245  53.631  1.00  0.00    -0.268 OA
BRANCH  24  27
HETATM   27  C   UNL     1       7.205  25.542  53.536  1.00  0.00     0.161 C 
BRANCH  27  28
HETATM   28  C   UNL     1       7.491  24.107  53.895  1.00  0.00    -0.041 A 
HETATM   29  C   UNL     1       7.911  23.203  52.908  1.00  0.00     0.009 A 
HETATM   30  C   UNL     1       8.197  21.875  53.232  1.00  0.00     0.007 A 
HETATM   31  C   UNL     1       8.064  21.423  54.549  1.00  0.00    -0.062 A 
HETATM   32  C   UNL     1       8.417  20.011  54.915  1.00  0.00     0.048 C 
HETATM   33  C   UNL     1       7.650  22.324  55.537  1.00  0.00     0.007 A 
HETATM   34  C   UNL     1       7.361  23.652  55.213  1.00  0.00     0.009 A 
ENDBRANCH  27  28
ENDBRANCH  24  27
ENDBRANCH   1  23
TORSDOF 9
ENDMDL
MODEL 4
REMARK VINA RESULT:      -9.1      1.604      2.089
REMARK  9 active torsions:
REMARK  status: ('A' for Active; 'I' for Inactive)
REMARK    1  A    between atoms: C_5  and  C_6 
REMARK    2  A    between atoms: C_6  and  N_7 
REMARK       I    between atoms: N_7  and  C_8 
REMARK    3  A    between atoms: C_8  and  C_9 
REMARK    4  A    between atoms: C_10  and  S_11 
REMARK    5  A    between atoms: S_11  and  C_12 
REMARK    6  A    between atoms: C_12  and  C_13 
REMARK       I    between atoms: C_13  and  N_14 
REMARK    7  A    between atoms: N_14  and  C_15 
REMARK    8  A    between atoms: C_16  and  O_17 
REMARK    9  A    between atoms: C_20  and  O_21 
ROOT
HETATM    1  C   UNL     1       6.096  27.240  56.213  1.00  0.00     0.067 A 
HETATM    2  C   UNL     1       6.540  28.455  56.739  1.00  0.00     0.109 A 
HETATM    3  N   UNL     1       6.147  29.654  56.218  1.00  0.00    -0.253 NA
HETATM    4  C   UNL     1       5.341  29.641  55.133  1.00  0.00     0.118 A 
HETATM    5  C   UNL     1       4.874  28.487  54.537  1.00  0.00     0.020 A 
HETATM    6  C   UNL     1       5.254  27.269  55.089  1.00  0.00     0.021 A 
ENDROOT
BRANCH   2   7
HETATM    7  S   UNL     1       7.651  28.635  58.119  1.00  0.00    -0.100 SA
BRANCH   7   8
HETATM    8  C   UNL     1       8.366  30.255  57.728  1.00  0.00     0.184 C 
BRANCH   8   9
HETATM    9  C   UNL     1       8.308  31.295  58.841  1.00  0.00     0.231 C 
HETATM   10  N   UNL     1       7.391  31.047  59.847  1.00  0.00    -0.324 N 
HETATM   11  H   UNL     1       7.023  30.096  59.866  1.00  0.00     0.169 HD
HETATM   12  O   UNL     1       9.161  32.185  58.860  1.00  0.00    -0.272 OA
BRANCH  10  13
HETATM   13  C   UNL     1       7.234  31.809  61.028  1.00  0.00     0.068 A 
HETATM   14  C   UNL     1       6.248  32.795  61.221  1.00  0.00     0.097 A 
HETATM   15  C   UNL     1       6.265  33.564  62.398  1.00  0.00     0.075 A 
HETATM   16  C   UNL     1       7.228  33.336  63.385  1.00  0.00     0.070 A 
HETATM   17  C   UNL     1       8.138  32.294  63.227  1.00  0.00     0.039 A 
HETATM   18  C   UNL     1       8.135  31.530  62.062  1.00  0.00     0.035 A 
BRANCH  14  19
HETATM   19  O   UNL     1       5.240  32.861  60.295  1.00  0.00    -0.354 OA
HETATM   20  C   UNL     1       3.952  32.407  60.683  1.00  0.00     0.210 C 
ENDBRANCH  14  19
BRANCH  16  21
HETATM   21  O   UNL     1       7.352  34.032  64.557  1.00  0.00    -0.356 OA
HETATM   22  C   UNL     1       6.440  33.689  65.593  1.00  0.00     0.210 C 
ENDBRANCH  16  21
ENDBRANCH  10  13
ENDBRANCH   8   9
ENDBRANCH   7   8
ENDBRANCH   2   7
BRANCH   1  23
HETATM   23  C   UNL     1       6.482  25.918  56.765  1.00  0.00     0.254 C 
HETATM   24  N   UNL     1       7.775  25.522  56.490  1.00  0.00    -0.353 N 
HETATM   25  H   UNL     1       8.330  26.023  55.809  1.00  0.00     0.163 HD
HETATM   26  O   UNL     1       5.706  25.257  57.438  1.00  0.00    -0.268 OA
BRANCH  24  27
HETATM   27  C   UNL     1       8.287  24.250  56.950  1.00  0.00     0.161 C 
BRANCH  27  28
HETATM   28  C   UNL     1       8.315  23.246  55.827  1.00  0.00    -0.041 A 
HETATM   29  C   UNL     1       8.516  21.886  56.103  1.00  0.00     0.009 A 
HETATM   30  C   UNL     1       8.525  20.943  55.073  1.00  0.00     0.007 A 
HETATM   31  C   UNL     1       8.340  21.343  53.746  1.00  0.00    -0.062 A 
HETATM   32  C   UNL     1       8.299  20.331  52.638  1.00  0.00     0.048 C 
HETATM   33  C   UNL     1       8.135  22.699  53.468  1.00  0.00     0.007 A 
HETATM   34  C   UNL     1       8.128  23.643  54.498  1.00  0.00     0.009 A 
ENDBRANCH  27  28
ENDBRANCH  24  27
ENDBRANCH   1  23
TORSDOF 9
ENDMDL
MODEL 5
REMARK VINA RESULT:      -9.1      2.071     10.449
REMARK  9 active torsions:
REMARK  status: ('A' for Active; 'I' for Inactive)
REMARK    1  A    between atoms: C_5  and  C_6 
REMARK    2  A    between atoms: C_6  and  N_7 
REMARK       I    between atoms: N_7  and  C_8 
REMARK    3  A    between atoms: C_8  and  C_9 
REMARK    4  A    between atoms: C_10  and  S_11 
REMARK    5  A    between atoms: S_11  and  C_12 
REMARK    6  A    between atoms: C_12  and  C_13 
REMARK       I    between atoms: C_13  and  N_14 
REMARK    7  A    between atoms: N_14  and  C_15 
REMARK    8  A    between atoms: C_16  and  O_17 
REMARK    9  A    between atoms: C_20  and  O_21 
ROOT
HETATM    1  C   UNL     1       7.811  30.828  58.347  1.00  0.00     0.067 A 
HETATM    2  C   UNL     1       7.573  29.625  57.680  1.00  0.00     0.109 A 
HETATM    3  N   UNL     1       8.591  28.827  57.245  1.00  0.00    -0.253 NA
HETATM    4  C   UNL     1       9.860  29.256  57.433  1.00  0.00     0.118 A 
HETATM    5  C   UNL     1      10.183  30.441  58.062  1.00  0.00     0.020 A 
HETATM    6  C   UNL     1       9.143  31.236  58.530  1.00  0.00     0.021 A 
ENDROOT
BRANCH   2   7
HETATM    7  S   UNL     1       5.966  28.959  57.300  1.00  0.00    -0.100 SA
BRANCH   7   8
HETATM    8  C   UNL     1       6.148  28.719  55.511  1.00  0.00     0.184 C 
BRANCH   8   9
HETATM    9  C   UNL     1       6.131  27.273  55.028  1.00  0.00     0.231 C 
HETATM   10  N   UNL     1       7.348  26.615  55.059  1.00  0.00    -0.324 N 
HETATM   11  H   UNL     1       8.070  27.076  55.612  1.00  0.00     0.169 HD
HETATM   12  O   UNL     1       5.042  26.744  54.793  1.00  0.00    -0.272 OA
BRANCH  10  13
HETATM   13  C   UNL     1       7.556  25.248  54.762  1.00  0.00     0.068 A 
HETATM   14  C   UNL     1       7.599  24.707  53.463  1.00  0.00     0.097 A 
HETATM   15  C   UNL     1       7.701  23.314  53.301  1.00  0.00     0.075 A 
HETATM   16  C   UNL     1       7.789  22.471  54.413  1.00  0.00     0.070 A 
HETATM   17  C   UNL     1       7.843  23.024  55.690  1.00  0.00     0.039 A 
HETATM   18  C   UNL     1       7.737  24.403  55.863  1.00  0.00     0.035 A 
BRANCH  14  19
HETATM   19  O   UNL     1       7.671  25.592  52.419  1.00  0.00    -0.354 OA
HETATM   20  C   UNL     1       6.501  25.797  51.642  1.00  0.00     0.210 C 
ENDBRANCH  14  19
BRANCH  16  21
HETATM   21  O   UNL     1       7.871  21.106  54.377  1.00  0.00    -0.356 OA
HETATM   22  C   UNL     1       7.870  20.507  53.086  1.00  0.00     0.210 C 
ENDBRANCH  16  21
ENDBRANCH  10  13
ENDBRANCH   8   9
ENDBRANCH   7   8
ENDBRANCH   2   7
BRANCH   1  23
HETATM   23  C   UNL     1       6.732  31.710  58.855  1.00  0.00     0.254 C 
HETATM   24  N   UNL     1       6.479  31.609  60.208  1.00  0.00    -0.353 N 
HETATM   25  H   UNL     1       6.880  30.854  60.749  1.00  0.00     0.163 HD
HETATM   26  O   UNL     1       6.143  32.486  58.118  1.00  0.00    -0.268 OA
BRANCH  24  27
HETATM   27  C   UNL     1       5.446  32.397  60.842  1.00  0.00     0.161 C 
BRANCH  27  28
HETATM   28  C   UNL     1       5.860  32.802  62.233  1.00  0.00    -0.041 A 
HETATM   29  C   UNL     1       4.895  33.216  63.163  1.00  0.00     0.009 A 
HETATM   30  C   UNL     1       5.263  33.576  64.461  1.00  0.00     0.007 A 
HETATM   31  C   UNL     1       6.605  33.534  64.853  1.00  0.00    -0.062 A 
HETATM   32  C   UNL     1       7.005  33.871  66.260  1.00  0.00     0.048 C 
HETATM   33  C   UNL     1       7.570  33.117  63.929  1.00  0.00     0.007 A 
HETATM   34  C   UNL     1       7.202  32.759  62.629  1.00  0.00     0.009 A 
ENDBRANCH  27  28
ENDBRANCH  24  27
ENDBRANCH   1  23
TORSDOF 9
ENDMDL
MODEL 6
REMARK VINA RESULT:      -9.1      2.232     10.477
REMARK  9 active torsions:
REMARK  status: ('A' for Active; 'I' for Inactive)
REMARK    1  A    between atoms: C_5  and  C_6 
REMARK    2  A    between atoms: C_6  and  N_7 
REMARK       I    between atoms: N_7  and  C_8 
REMARK    3  A    between atoms: C_8  and  C_9 
REMARK    4  A    between atoms: C_10  and  S_11 
REMARK    5  A    between atoms: S_11  and  C_12 
REMARK    6  A    between atoms: C_12  and  C_13 
REMARK       I    between atoms: C_13  and  N_14 
REMARK    7  A    between atoms: N_14  and  C_15 
REMARK    8  A    between atoms: C_16  and  O_17 
REMARK    9  A    between atoms: C_20  and  O_21 
ROOT
HETATM    1  C   UNL     1       6.646  31.661  58.610  1.00  0.00     0.067 A 
HETATM    2  C   UNL     1       6.693  30.502  57.833  1.00  0.00     0.109 A 
HETATM    3  N   UNL     1       5.850  30.305  56.778  1.00  0.00    -0.253 NA
HETATM    4  C   UNL     1       4.918  31.251  56.524  1.00  0.00     0.118 A 
HETATM    5  C   UNL     1       4.787  32.415  57.255  1.00  0.00     0.020 A 
HETATM    6  C   UNL     1       5.667  32.624  58.311  1.00  0.00     0.021 A 
ENDROOT
BRANCH   2   7
HETATM    7  S   UNL     1       7.815  29.141  58.081  1.00  0.00    -0.100 SA
BRANCH   7   8
HETATM    8  C   UNL     1       6.828  27.796  57.369  1.00  0.00     0.184 C 
BRANCH   8   9
HETATM    9  C   UNL     1       7.600  26.544  56.968  1.00  0.00     0.231 C 
HETATM   10  N   UNL     1       6.963  25.707  56.070  1.00  0.00    -0.324 N 
HETATM   11  H   UNL     1       6.161  26.121  55.594  1.00  0.00     0.169 HD
HETATM   12  O   UNL     1       8.772  26.433  57.336  1.00  0.00    -0.272 OA
BRANCH  10  13
HETATM   13  C   UNL     1       7.522  24.552  55.477  1.00  0.00     0.068 A 
HETATM   14  C   UNL     1       7.842  24.424  54.112  1.00  0.00     0.097 A 
HETATM   15  C   UNL     1       8.289  23.184  53.623  1.00  0.00     0.075 A 
HETATM   16  C   UNL     1       8.445  22.093  54.482  1.00  0.00     0.070 A 
HETATM   17  C   UNL     1       8.219  22.257  55.846  1.00  0.00     0.039 A 
HETATM   18  C   UNL     1       7.770  23.479  56.341  1.00  0.00     0.035 A 
BRANCH  14  19
HETATM   19  O   UNL     1       7.822  25.567  53.356  1.00  0.00    -0.354 OA
HETATM   20  C   UNL     1       7.144  25.526  52.110  1.00  0.00     0.210 C 
ENDBRANCH  14  19
BRANCH  16  21
HETATM   21  O   UNL     1       8.852  20.839  54.116  1.00  0.00    -0.356 OA
HETATM   22  C   UNL     1       8.379  20.362  52.862  1.00  0.00     0.210 C 
ENDBRANCH  16  21
ENDBRANCH  10  13
ENDBRANCH   8   9
ENDBRANCH   7   8
ENDBRANCH   2   7
BRANCH   1  23
HETATM   23  C   UNL     1       7.559  31.921  59.750  1.00  0.00     0.254 C 
HETATM   24  N   UNL     1       7.195  31.330  60.942  1.00  0.00    -0.353 N 
HETATM   25  H   UNL     1       6.279  30.913  61.048  1.00  0.00     0.163 HD
HETATM   26  O   UNL     1       8.572  32.591  59.614  1.00  0.00    -0.268 OA
BRANCH  24  27
HETATM   27  C   UNL     1       7.982  31.507  62.142  1.00  0.00     0.161 C 
BRANCH  27  28
HETATM   28  C   UNL     1       7.215  32.294  63.173  1.00  0.00    -0.041 A 
HETATM   29  C   UNL     1       5.813  32.264  63.183  1.00  0.00     0.009 A 
HETATM   30  C   UNL     1       5.091  32.973  64.145  1.00  0.00     0.007 A 
HETATM   31  C   UNL     1       5.757  33.732  65.112  1.00  0.00    -0.062 A 
HETATM   32  C   UNL     1       4.991  34.458  66.180  1.00  0.00     0.048 C 
HETATM   33  C   UNL     1       7.156  33.760  65.108  1.00  0.00     0.007 A 
HETATM   34  C   UNL     1       7.879  33.052  64.145  1.00  0.00     0.009 A 
ENDBRANCH  27  28
ENDBRANCH  24  27
ENDBRANCH   1  23
TORSDOF 9
ENDMDL
MODEL 7
REMARK VINA RESULT:      -9.0      1.772      2.874
REMARK  9 active torsions:
REMARK  status: ('A' for Active; 'I' for Inactive)
REMARK    1  A    between atoms: C_5  and  C_6 
REMARK    2  A    between atoms: C_6  and  N_7 
REMARK       I    between atoms: N_7  and  C_8 
REMARK    3  A    between atoms: C_8  and  C_9 
REMARK    4  A    between atoms: C_10  and  S_11 
REMARK    5  A    between atoms: S_11  and  C_12 
REMARK    6  A    between atoms: C_12  and  C_13 
REMARK       I    between atoms: C_13  and  N_14 
REMARK    7  A    between atoms: N_14  and  C_15 
REMARK    8  A    between atoms: C_16  and  O_17 
REMARK    9  A    between atoms: C_20  and  O_21 
ROOT
HETATM    1  C   UNL     1       8.612  29.009  56.006  1.00  0.00     0.067 A 
HETATM    2  C   UNL     1       8.033  29.603  57.129  1.00  0.00     0.109 A 
HETATM    3  N   UNL     1       8.776  30.286  58.049  1.00  0.00    -0.253 NA
HETATM    4  C   UNL     1      10.116  30.335  57.873  1.00  0.00     0.118 A 
HETATM    5  C   UNL     1      10.772  29.756  56.805  1.00  0.00     0.020 A 
HETATM    6  C   UNL     1      10.007  29.088  55.856  1.00  0.00     0.021 A 
ENDROOT
BRANCH   2   7
HETATM    7  S   UNL     1       6.299  29.571  57.533  1.00  0.00    -0.100 SA
BRANCH   7   8
HETATM    8  C   UNL     1       5.932  31.345  57.455  1.00  0.00     0.184 C 
BRANCH   8   9
HETATM    9  C   UNL     1       5.949  32.087  58.787  1.00  0.00     0.231 C 
HETATM   10  N   UNL     1       6.394  31.358  59.875  1.00  0.00    -0.324 N 
HETATM   11  H   UNL     1       6.880  30.492  59.641  1.00  0.00     0.169 HD
HETATM   12  O   UNL     1       5.721  33.299  58.787  1.00  0.00    -0.272 OA
BRANCH  10  13
HETATM   13  C   UNL     1       6.596  31.863  61.181  1.00  0.00     0.068 A 
HETATM   14  C   UNL     1       5.576  32.346  62.022  1.00  0.00     0.097 A 
HETATM   15  C   UNL     1       5.918  32.926  63.256  1.00  0.00     0.075 A 
HETATM   16  C   UNL     1       7.252  32.998  63.665  1.00  0.00     0.070 A 
HETATM   17  C   UNL     1       8.244  32.429  62.870  1.00  0.00     0.039 A 
HETATM   18  C   UNL     1       7.918  31.857  61.642  1.00  0.00     0.035 A 
BRANCH  14  19
HETATM   19  O   UNL     1       4.283  32.103  61.638  1.00  0.00    -0.354 OA
HETATM   20  C   UNL     1       3.383  33.201  61.603  1.00  0.00     0.210 C 
ENDBRANCH  14  19
BRANCH  16  21
HETATM   21  O   UNL     1       7.702  33.555  64.831  1.00  0.00    -0.356 OA
HETATM   22  C   UNL     1       6.714  33.863  65.806  1.00  0.00     0.210 C 
ENDBRANCH  16  21
ENDBRANCH  10  13
ENDBRANCH   8   9
ENDBRANCH   7   8
ENDBRANCH   2   7
BRANCH   1  23
HETATM   23  C   UNL     1       7.836  28.280  54.974  1.00  0.00     0.254 C 
HETATM   24  N   UNL     1       7.037  27.261  55.450  1.00  0.00    -0.353 N 
HETATM   25  H   UNL     1       7.133  26.938  56.404  1.00  0.00     0.163 HD
HETATM   26  O   UNL     1       7.893  28.593  53.794  1.00  0.00    -0.268 OA
BRANCH  24  27
HETATM   27  C   UNL     1       6.234  26.454  54.558  1.00  0.00     0.161 C 
BRANCH  27  28
HETATM   28  C   UNL     1       6.906  25.134  54.280  1.00  0.00    -0.041 A 
HETATM   29  C   UNL     1       7.088  24.204  55.314  1.00  0.00     0.009 A 
HETATM   30  C   UNL     1       7.692  22.970  55.065  1.00  0.00     0.007 A 
HETATM   31  C   UNL     1       8.134  22.645  53.778  1.00  0.00    -0.062 A 
HETATM   32  C   UNL     1       8.739  21.302  53.491  1.00  0.00     0.048 C 
HETATM   33  C   UNL     1       7.950  23.570  52.744  1.00  0.00     0.007 A 
HETATM   34  C   UNL     1       7.347  24.805  52.992  1.00  0.00     0.009 A 
ENDBRANCH  27  28
ENDBRANCH  24  27
ENDBRANCH   1  23
TORSDOF 9
ENDMDL
MODEL 8
REMARK VINA RESULT:      -8.8      1.647      3.121
REMARK  9 active torsions:
REMARK  status: ('A' for Active; 'I' for Inactive)
REMARK    1  A    between atoms: C_5  and  C_6 
REMARK    2  A    between atoms: C_6  and  N_7 
REMARK       I    between atoms: N_7  and  C_8 
REMARK    3  A    between atoms: C_8  and  C_9 
REMARK    4  A    between atoms: C_10  and  S_11 
REMARK    5  A    between atoms: S_11  and  C_12 
REMARK    6  A    between atoms: C_12  and  C_13 
REMARK       I    between atoms: C_13  and  N_14 
REMARK    7  A    between atoms: N_14  and  C_15 
REMARK    8  A    between atoms: C_16  and  O_17 
REMARK    9  A    between atoms: C_20  and  O_21 
ROOT
HETATM    1  C   UNL     1       8.195  28.919  56.007  1.00  0.00     0.067 A 
HETATM    2  C   UNL     1       7.689  29.612  57.108  1.00  0.00     0.109 A 
HETATM    3  N   UNL     1       8.499  30.310  57.957  1.00  0.00    -0.253 NA
HETATM    4  C   UNL     1       9.833  30.276  57.733  1.00  0.00     0.118 A 
HETATM    5  C   UNL     1      10.418  29.598  56.683  1.00  0.00     0.020 A 
HETATM    6  C   UNL     1       9.585  28.914  55.805  1.00  0.00     0.021 A 
ENDROOT
BRANCH   2   7
HETATM    7  S   UNL     1       5.972  29.698  57.572  1.00  0.00    -0.100 SA
BRANCH   7   8
HETATM    8  C   UNL     1       5.701  31.485  57.421  1.00  0.00     0.184 C 
BRANCH   8   9
HETATM    9  C   UNL     1       5.740  32.276  58.725  1.00  0.00     0.231 C 
HETATM   10  N   UNL     1       6.095  31.558  59.852  1.00  0.00    -0.324 N 
HETATM   11  H   UNL     1       6.518  30.648  59.666  1.00  0.00     0.169 HD
HETATM   12  O   UNL     1       5.608  33.500  58.673  1.00  0.00    -0.272 OA
BRANCH  10  13
HETATM   13  C   UNL     1       6.300  32.096  61.144  1.00  0.00     0.068 A 
HETATM   14  C   UNL     1       7.535  32.121  61.817  1.00  0.00     0.097 A 
HETATM   15  C   UNL     1       7.587  32.582  63.145  1.00  0.00     0.075 A 
HETATM   16  C   UNL     1       6.434  33.041  63.785  1.00  0.00     0.070 A 
HETATM   17  C   UNL     1       5.236  33.104  63.078  1.00  0.00     0.039 A 
HETATM   18  C   UNL     1       5.171  32.644  61.765  1.00  0.00     0.035 A 
BRANCH  14  19
HETATM   19  O   UNL     1       8.652  31.810  61.086  1.00  0.00    -0.354 OA
HETATM   20  C   UNL     1       9.423  30.690  61.495  1.00  0.00     0.210 C 
ENDBRANCH  14  19
BRANCH  16  21
HETATM   21  O   UNL     1       6.361  33.493  65.075  1.00  0.00    -0.356 OA
HETATM   22  C   UNL     1       5.055  33.688  65.602  1.00  0.00     0.210 C 
ENDBRANCH  16  21
ENDBRANCH  10  13
ENDBRANCH   8   9
ENDBRANCH   7   8
ENDBRANCH   2   7
BRANCH   1  23
HETATM   23  C   UNL     1       7.345  28.170  55.050  1.00  0.00     0.254 C 
HETATM   24  N   UNL     1       6.899  26.943  55.496  1.00  0.00    -0.353 N 
HETATM   25  H   UNL     1       7.287  26.531  56.335  1.00  0.00     0.163 HD
HETATM   26  O   UNL     1       7.048  28.636  53.960  1.00  0.00    -0.268 OA
BRANCH  24  27
HETATM   27  C   UNL     1       6.073  26.094  54.666  1.00  0.00     0.161 C 
BRANCH  27  28
HETATM   28  C   UNL     1       6.783  24.803  54.349  1.00  0.00    -0.041 A 
HETATM   29  C   UNL     1       7.007  23.855  55.357  1.00  0.00     0.009 A 
HETATM   30  C   UNL     1       7.647  22.647  55.072  1.00  0.00     0.007 A 
HETATM   31  C   UNL     1       8.081  22.366  53.772  1.00  0.00    -0.062 A 
HETATM   32  C   UNL     1       8.725  21.050  53.446  1.00  0.00     0.048 C 
HETATM   33  C   UNL     1       7.855  23.309  52.762  1.00  0.00     0.007 A 
HETATM   34  C   UNL     1       7.217  24.518  53.048  1.00  0.00     0.009 A 
ENDBRANCH  27  28
ENDBRANCH  24  27
ENDBRANCH   1  23
TORSDOF 9
ENDMDL
MODEL 9
REMARK VINA RESULT:      -8.8      1.974      3.010
REMARK  9 active torsions:
REMARK  status: ('A' for Active; 'I' for Inactive)
REMARK    1  A    between atoms: C_5  and  C_6 
REMARK    2  A    between atoms: C_6  and  N_7 
REMARK       I    between atoms: N_7  and  C_8 
REMARK    3  A    between atoms: C_8  and  C_9 
REMARK    4  A    between atoms: C_10  and  S_11 
REMARK    5  A    between atoms: S_11  and  C_12 
REMARK    6  A    between atoms: C_12  and  C_13 
REMARK       I    between atoms: C_13  and  N_14 
REMARK    7  A    between atoms: N_14  and  C_15 
REMARK    8  A    between atoms: C_16  and  O_17 
REMARK    9  A    between atoms: C_20  and  O_21 
ROOT
HETATM    1  C   UNL     1       5.289  27.684  53.456  1.00  0.00     0.067 A 
HETATM    2  C   UNL     1       4.357  28.577  53.987  1.00  0.00     0.109 A 
HETATM    3  N   UNL     1       3.447  29.223  53.200  1.00  0.00    -0.253 NA
HETATM    4  C   UNL     1       3.500  29.014  51.865  1.00  0.00     0.118 A 
HETATM    5  C   UNL     1       4.403  28.166  51.256  1.00  0.00     0.020 A 
HETATM    6  C   UNL     1       5.307  27.488  52.065  1.00  0.00     0.021 A 
ENDROOT
BRANCH   2   7
HETATM    7  S   UNL     1       4.204  29.005  55.708  1.00  0.00    -0.100 SA
BRANCH   7   8
HETATM    8  C   UNL     1       5.701  30.010  55.908  1.00  0.00     0.184 C 
BRANCH   8   9
HETATM    9  C   UNL     1       6.395  29.908  57.262  1.00  0.00     0.231 C 
HETATM   10  N   UNL     1       6.677  31.111  57.884  1.00  0.00    -0.324 N 
HETATM   11  H   UNL     1       6.190  31.919  57.495  1.00  0.00     0.169 HD
HETATM   12  O   UNL     1       6.520  28.794  57.776  1.00  0.00    -0.272 OA
BRANCH  10  13
HETATM   13  C   UNL     1       7.217  31.263  59.182  1.00  0.00     0.068 A 
HETATM   14  C   UNL     1       8.468  30.769  59.595  1.00  0.00     0.097 A 
HETATM   15  C   UNL     1       8.845  30.887  60.944  1.00  0.00     0.075 A 
HETATM   16  C   UNL     1       8.003  31.515  61.867  1.00  0.00     0.070 A 
HETATM   17  C   UNL     1       6.811  32.086  61.429  1.00  0.00     0.039 A 
HETATM   18  C   UNL     1       6.425  31.969  60.096  1.00  0.00     0.035 A 
BRANCH  14  19
HETATM   19  O   UNL     1       9.312  30.312  58.617  1.00  0.00    -0.354 OA
HETATM   20  C   UNL     1      10.256  31.223  58.075  1.00  0.00     0.210 C 
ENDBRANCH  14  19
BRANCH  16  21
HETATM   21  O   UNL     1       8.256  31.670  63.203  1.00  0.00    -0.356 OA
HETATM   22  C   UNL     1       7.873  32.914  63.777  1.00  0.00     0.210 C 
ENDBRANCH  16  21
ENDBRANCH  10  13
ENDBRANCH   8   9
ENDBRANCH   7   8
ENDBRANCH   2   7
BRANCH   1  23
HETATM   23  C   UNL     1       6.277  26.945  54.280  1.00  0.00     0.254 C 
HETATM   24  N   UNL     1       5.811  25.777  54.849  1.00  0.00    -0.353 N 
HETATM   25  H   UNL     1       4.823  25.563  54.843  1.00  0.00     0.163 HD
HETATM   26  O   UNL     1       7.425  27.343  54.409  1.00  0.00    -0.268 OA
BRANCH  24  27
HETATM   27  C   UNL     1       6.657  24.959  55.689  1.00  0.00     0.161 C 
BRANCH  27  28
HETATM   28  C   UNL     1       7.163  23.759  54.932  1.00  0.00    -0.041 A 
HETATM   29  C   UNL     1       7.441  22.563  55.611  1.00  0.00     0.009 A 
HETATM   30  C   UNL     1       7.893  21.438  54.918  1.00  0.00     0.007 A 
HETATM   31  C   UNL     1       8.081  21.488  53.533  1.00  0.00    -0.062 A 
HETATM   32  C   UNL     1       8.518  20.269  52.774  1.00  0.00     0.048 C 
HETATM   33  C   UNL     1       7.801  22.678  52.853  1.00  0.00     0.007 A 
HETATM   34  C   UNL     1       7.351  23.805  53.545  1.00  0.00     0.009 A 
ENDBRANCH  27  28
ENDBRANCH  24  27
ENDBRANCH   1  23
TORSDOF 9
ENDMDL
MODEL 10
REMARK VINA RESULT:      -8.7      5.064      9.693
REMARK  9 active torsions:
REMARK  status: ('A' for Active; 'I' for Inactive)
REMARK    1  A    between atoms: C_5  and  C_6 
REMARK    2  A    between atoms: C_6  and  N_7 
REMARK       I    between atoms: N_7  and  C_8 
REMARK    3  A    between atoms: C_8  and  C_9 
REMARK    4  A    between atoms: C_10  and  S_11 
REMARK    5  A    between atoms: S_11  and  C_12 
REMARK    6  A    between atoms: C_12  and  C_13 
REMARK       I    between atoms: C_13  and  N_14 
REMARK    7  A    between atoms: N_14  and  C_15 
REMARK    8  A    between atoms: C_16  and  O_17 
REMARK    9  A    between atoms: C_20  and  O_21 
ROOT
HETATM    1  C   UNL     1       5.217  27.210  55.572  1.00  0.00     0.067 A 
HETATM    2  C   UNL     1       4.931  27.310  54.210  1.00  0.00     0.109 A 
HETATM    3  N   UNL     1       4.515  28.480  53.643  1.00  0.00    -0.253 NA
HETATM    4  C   UNL     1       4.335  29.549  54.451  1.00  0.00     0.118 A 
HETATM    5  C   UNL     1       4.573  29.531  55.811  1.00  0.00     0.020 A 
HETATM    6  C   UNL     1       5.025  28.345  56.378  1.00  0.00     0.021 A 
ENDROOT
BRANCH   2   7
HETATM    7  S   UNL     1       5.054  25.980  53.031  1.00  0.00    -0.100 SA
BRANCH   7   8
HETATM    8  C   UNL     1       6.058  26.792  51.757  1.00  0.00     0.184 C 
BRANCH   8   9
HETATM    9  C   UNL     1       5.315  27.217  50.495  1.00  0.00     0.231 C 
HETATM   10  N   UNL     1       4.192  26.473  50.179  1.00  0.00    -0.324 N 
HETATM   11  H   UNL     1       3.846  25.879  50.933  1.00  0.00     0.169 HD
HETATM   12  O   UNL     1       5.657  28.261  49.935  1.00  0.00    -0.272 OA
BRANCH  10  13
HETATM   13  C   UNL     1       3.291  26.744  49.124  1.00  0.00     0.068 A 
HETATM   14  C   UNL     1       2.341  27.782  49.126  1.00  0.00     0.097 A 
HETATM   15  C   UNL     1       1.424  27.879  48.065  1.00  0.00     0.075 A 
HETATM   16  C   UNL     1       1.470  26.977  46.999  1.00  0.00     0.070 A 
HETATM   17  C   UNL     1       2.475  26.014  46.958  1.00  0.00     0.039 A 
HETATM   18  C   UNL     1       3.384  25.903  48.008  1.00  0.00     0.035 A 
BRANCH  14  19
HETATM   19  O   UNL     1       2.451  28.727  50.113  1.00  0.00    -0.354 OA
HETATM   20  C   UNL     1       1.374  29.636  50.284  1.00  0.00     0.210 C 
ENDBRANCH  14  19
BRANCH  16  21
HETATM   21  O   UNL     1       0.621  26.963  45.926  1.00  0.00    -0.356 OA
HETATM   22  C   UNL     1      -0.479  27.864  45.980  1.00  0.00     0.210 C 
ENDBRANCH  16  21
ENDBRANCH  10  13
ENDBRANCH   8   9
ENDBRANCH   7   8
ENDBRANCH   2   7
BRANCH   1  23
HETATM   23  C   UNL     1       5.693  25.963  56.221  1.00  0.00     0.254 C 
HETATM   24  N   UNL     1       7.048  25.727  56.114  1.00  0.00    -0.353 N 
HETATM   25  H   UNL     1       7.616  26.276  55.482  1.00  0.00     0.163 HD
HETATM   26  O   UNL     1       4.928  25.228  56.826  1.00  0.00    -0.268 OA
BRANCH  24  27
HETATM   27  C   UNL     1       7.653  24.544  56.685  1.00  0.00     0.161 C 
BRANCH  27  28
HETATM   28  C   UNL     1       7.801  23.463  55.644  1.00  0.00    -0.041 A 
HETATM   29  C   UNL     1       7.973  23.803  54.295  1.00  0.00     0.009 A 
HETATM   30  C   UNL     1       8.130  22.812  53.324  1.00  0.00     0.007 A 
HETATM   31  C   UNL     1       8.111  21.461  53.683  1.00  0.00    -0.062 A 
HETATM   32  C   UNL     1       8.328  20.390  52.653  1.00  0.00     0.048 C 
HETATM   33  C   UNL     1       7.944  21.118  55.030  1.00  0.00     0.007 A 
HETATM   34  C   UNL     1       7.785  22.110  56.001  1.00  0.00     0.009 A 
ENDBRANCH  27  28
ENDBRANCH  24  27
ENDBRANCH   1  23
TORSDOF 9
ENDMDL
