MODEL 1
REMARK VINA RESULT:      -8.7      0.000      0.000
REMARK  14 active torsions:
REMARK  status: ('A' for Active; 'I' for Inactive)
REMARK    1  A    between atoms: C_2  and  O_3 
REMARK    2  A    between atoms: O_3  and  C_4 
REMARK    3  A    between atoms: C_5  and  O_6 
REMARK    4  A    between atoms: C_9  and  C_10 
REMARK    5  A    between atoms: N_11  and  C_12 
REMARK    6  A    between atoms: C_12  and  C_13 
REMARK    7  A    between atoms: C_13  and  C_14 
REMARK    8  A    between atoms: C_14  and  N_15 
REMARK    9  A    between atoms: C_21  and  O_22 
REMARK   10  A    between atoms: C_23  and  C_24 
REMARK   11  A    between atoms: C_24  and  C_25 
REMARK   12  A    between atoms: C_29  and  O_30 
REMARK   13  A    between atoms: O_30  and  C_31 
REMARK   14  A    between atoms: C_31  and  C_32 
ROOT
HETATM    1  C   UNL     1       5.397  29.110  56.430  1.00  0.00     0.161 A 
HETATM    2  N   UNL     1       4.945  30.126  55.481  1.00  0.00    -0.333 N 
HETATM    3  C   UNL     1       4.239  29.567  54.442  1.00  0.00     0.278 A 
HETATM    4  O   UNL     1       3.670  30.162  53.540  1.00  0.00    -0.265 OA
HETATM    5  C   UNL     1       4.297  28.103  54.595  1.00  0.00     0.146 A 
HETATM    6  C   UNL     1       4.940  27.851  55.741  1.00  0.00     0.059 A 
ENDROOT
BRANCH   6   7
HETATM    7  C   UNL     1       5.205  26.538  56.367  1.00  0.00     0.193 C 
HETATM    8  O   UNL     1       4.563  26.164  57.343  1.00  0.00    -0.287 OA
BRANCH   7   9
HETATM    9  C   UNL     1       6.235  25.645  55.811  1.00  0.00     0.015 A 
HETATM   10  C   UNL     1       6.218  25.304  54.455  1.00  0.00     0.025 A 
HETATM   11  C   UNL     1       7.172  24.411  53.946  1.00  0.00    -0.028 A 
HETATM   12  C   UNL     1       7.139  24.028  52.492  1.00  0.00     0.051 C 
HETATM   13  C   UNL     1       8.123  23.844  54.816  1.00  0.00     0.074 A 
HETATM   14  C   UNL     1       8.133  24.200  56.169  1.00  0.00     0.038 A 
HETATM   15  C   UNL     1       7.180  25.087  56.672  1.00  0.00     0.018 A 
BRANCH  13  16
HETATM   16  O   UNL     1       9.002  22.966  54.243  1.00  0.00    -0.350 OA
BRANCH  16  17
HETATM   17  C   UNL     1       9.507  21.919  55.075  1.00  0.00     0.179 C 
BRANCH  17  18
HETATM   18  C   UNL     1       8.722  20.625  54.806  1.00  0.00     0.002 C 
HETATM   19  C   UNL     1       7.602  20.441  55.833  1.00  0.00     0.011 C 
HETATM   20  C   UNL     1       8.142  20.602  53.392  1.00  0.00     0.011 C 
ENDBRANCH  17  18
ENDBRANCH  16  17
ENDBRANCH  13  16
ENDBRANCH   7   9
ENDBRANCH   6   7
BRANCH   1  21
HETATM   21  C   UNL     1       6.878  29.259  56.724  1.00  0.00    -0.028 A 
HETATM   22  C   UNL     1       7.800  29.009  55.688  1.00  0.00     0.012 A 
HETATM   23  C   UNL     1       9.171  29.115  55.910  1.00  0.00     0.040 A 
HETATM   24  C   UNL     1       9.627  29.489  57.164  1.00  0.00     0.099 A 
HETATM   25  C   UNL     1       8.740  29.767  58.208  1.00  0.00     0.102 A 
HETATM   26  C   UNL     1       7.367  29.622  57.994  1.00  0.00     0.049 A 
BRANCH  24  27
HETATM   27  O   UNL     1      10.977  29.601  57.350  1.00  0.00    -0.358 OA
HETATM   28  H   UNL     1      11.310  28.683  57.402  1.00  0.00     0.218 HD
ENDBRANCH  24  27
BRANCH  25  29
HETATM   29  O   UNL     1       9.328  30.145  59.387  1.00  0.00    -0.349 OA
BRANCH  29  30
HETATM   30  C   UNL     1       9.298  31.542  59.681  1.00  0.00     0.171 C 
HETATM   31  C   UNL     1       9.517  31.708  61.174  1.00  0.00     0.034 C 
ENDBRANCH  29  30
ENDBRANCH  25  29
ENDBRANCH   1  21
BRANCH   5  32
HETATM   32  O   UNL     1       3.752  27.233  53.702  1.00  0.00    -0.355 OA
HETATM   33  H   UNL     1       2.784  27.364  53.714  1.00  0.00     0.218 HD
ENDBRANCH   5  32
BRANCH   2  34
HETATM   34  C   UNL     1       4.937  31.546  55.788  1.00  0.00     0.129 C 
BRANCH  34  35
HETATM   35  C   UNL     1       4.244  31.898  57.108  1.00  0.00     0.048 C 
BRANCH  35  36
HETATM   36  C   UNL     1       5.105  32.512  58.213  1.00  0.00     0.235 C 
BRANCH  36  37
HETATM   37  N   UNL     1       4.899  31.899  59.578  1.00  0.00    -0.079 N 
HETATM   38  H   UNL     1       5.100  30.883  59.474  1.00  0.00     0.278 HD
HETATM   39  C   UNL     1       5.765  32.461  60.664  1.00  0.00     0.269 C 
HETATM   40  C   UNL     1       3.447  31.929  59.980  1.00  0.00     0.269 C 
ENDBRANCH  36  37
ENDBRANCH  35  36
ENDBRANCH  34  35
ENDBRANCH   2  34
TORSDOF 14
ENDMDL
MODEL 2
REMARK VINA RESULT:      -8.5      2.539      8.059
REMARK  14 active torsions:
REMARK  status: ('A' for Active; 'I' for Inactive)
REMARK    1  A    between atoms: C_2  and  O_3 
REMARK    2  A    between atoms: O_3  and  C_4 
REMARK    3  A    between atoms: C_5  and  O_6 
REMARK    4  A    between atoms: C_9  and  C_10 
REMARK    5  A    between atoms: N_11  and  C_12 
REMARK    6  A    between atoms: C_12  and  C_13 
REMARK    7  A    between atoms: C_13  and  C_14 
REMARK    8  A    between atoms: C_14  and  N_15 
REMARK    9  A    between atoms: C_21  and  O_22 
REMARK   10  A    between atoms: C_23  and  C_24 
REMARK   11  A    between atoms: C_24  and  C_25 
REMARK   12  A    between atoms: C_29  and  O_30 
REMARK   13  A    between atoms: O_30  and  C_31 
REMARK   14  A    between atoms: C_31  and  C_32 
ROOT
HETATM    1  C   UNL     1       6.654  26.460  53.727  1.00  0.00     0.161 A 
HETATM    2  N   UNL     1       5.220  26.357  53.462  1.00  0.00    -0.333 N 
HETATM    3  C   UNL     1       4.594  27.574  53.595  1.00  0.00     0.278 A 
HETATM    4  O   UNL     1       3.421  27.824  53.363  1.00  0.00    -0.265 OA
HETATM    5  C   UNL     1       5.591  28.542  54.086  1.00  0.00     0.146 A 
HETATM    6  C   UNL     1       6.767  27.904  54.138  1.00  0.00     0.059 A 
ENDROOT
BRANCH   6   7
HETATM    7  C   UNL     1       8.086  28.456  54.513  1.00  0.00     0.193 C 
HETATM    8  O   UNL     1       8.999  28.519  53.698  1.00  0.00    -0.287 OA
BRANCH   7   9
HETATM    9  C   UNL     1       8.317  28.963  55.877  1.00  0.00     0.015 A 
HETATM   10  C   UNL     1       9.527  29.581  56.205  1.00  0.00     0.025 A 
HETATM   11  C   UNL     1       9.758  30.013  57.519  1.00  0.00    -0.028 A 
HETATM   12  C   UNL     1      11.068  30.658  57.877  1.00  0.00     0.051 C 
HETATM   13  C   UNL     1       8.776  29.790  58.503  1.00  0.00     0.074 A 
HETATM   14  C   UNL     1       7.567  29.176  58.160  1.00  0.00     0.038 A 
HETATM   15  C   UNL     1       7.342  28.747  56.851  1.00  0.00     0.018 A 
BRANCH  13  16
HETATM   16  O   UNL     1       9.090  30.221  59.764  1.00  0.00    -0.350 OA
BRANCH  16  17
HETATM   17  C   UNL     1       8.398  31.374  60.247  1.00  0.00     0.179 C 
BRANCH  17  18
HETATM   18  C   UNL     1       8.809  31.651  61.702  1.00  0.00     0.002 C 
HETATM   19  C   UNL     1       7.750  32.489  62.420  1.00  0.00     0.011 C 
HETATM   20  C   UNL     1       9.059  30.354  62.471  1.00  0.00     0.011 C 
ENDBRANCH  17  18
ENDBRANCH  16  17
ENDBRANCH  13  16
ENDBRANCH   7   9
ENDBRANCH   6   7
BRANCH   1  21
HETATM   21  C   UNL     1       7.102  25.403  54.719  1.00  0.00    -0.028 A 
HETATM   22  C   UNL     1       6.715  25.537  56.068  1.00  0.00     0.012 A 
HETATM   23  C   UNL     1       7.114  24.604  57.021  1.00  0.00     0.040 A 
HETATM   24  C   UNL     1       7.887  23.522  56.629  1.00  0.00     0.099 A 
HETATM   25  C   UNL     1       8.269  23.346  55.297  1.00  0.00     0.102 A 
HETATM   26  C   UNL     1       7.902  24.304  54.349  1.00  0.00     0.049 A 
BRANCH  24  27
HETATM   27  O   UNL     1       8.252  22.613  57.583  1.00  0.00    -0.358 OA
HETATM   28  H   UNL     1       7.514  22.598  58.224  1.00  0.00     0.218 HD
ENDBRANCH  24  27
BRANCH  25  29
HETATM   29  O   UNL     1       9.016  22.224  55.048  1.00  0.00    -0.349 OA
BRANCH  29  30
HETATM   30  C   UNL     1       9.067  21.797  53.686  1.00  0.00     0.171 C 
HETATM   31  C   UNL     1       8.103  20.635  53.526  1.00  0.00     0.034 C 
ENDBRANCH  29  30
ENDBRANCH  25  29
ENDBRANCH   1  21
BRANCH   5  32
HETATM   32  O   UNL     1       5.297  29.835  54.387  1.00  0.00    -0.355 OA
HETATM   33  H   UNL     1       4.325  29.913  54.441  1.00  0.00     0.218 HD
ENDBRANCH   5  32
BRANCH   2  34
HETATM   34  C   UNL     1       4.617  25.211  52.804  1.00  0.00     0.129 C 
BRANCH  34  35
HETATM   35  C   UNL     1       4.905  25.127  51.302  1.00  0.00     0.048 C 
BRANCH  35  36
HETATM   36  C   UNL     1       5.143  26.441  50.556  1.00  0.00     0.235 C 
BRANCH  36  37
HETATM   37  N   UNL     1       3.891  27.088  50.014  1.00  0.00    -0.079 N 
HETATM   38  H   UNL     1       3.115  26.792  50.641  1.00  0.00     0.278 HD
HETATM   39  C   UNL     1       3.925  28.583  49.949  1.00  0.00     0.269 C 
HETATM   40  C   UNL     1       3.503  26.501  48.681  1.00  0.00     0.269 C 
ENDBRANCH  36  37
ENDBRANCH  35  36
ENDBRANCH  34  35
ENDBRANCH   2  34
TORSDOF 14
ENDMDL
MODEL 3
REMARK VINA RESULT:      -8.3      2.601      8.107
REMARK  14 active torsions:
REMARK  status: ('A' for Active; 'I' for Inactive)
REMARK    1  A    between atoms: C_2  and  O_3 
REMARK    2  A    between atoms: O_3  and  C_4 
REMARK    3  A    between atoms: C_5  and  O_6 
REMARK    4  A    between atoms: C_9  and  C_10 
REMARK    5  A    between atoms: N_11  and  C_12 
REMARK    6  A    between atoms: C_12  and  C_13 
REMARK    7  A    between atoms: C_13  and  C_14 
REMARK    8  A    between atoms: C_14  and  N_15 
REMARK    9  A    between atoms: C_21  and  O_22 
REMARK   10  A    between atoms: C_23  and  C_24 
REMARK   11  A    between atoms: C_24  and  C_25 
REMARK   12  A    between atoms: C_29  and  O_30 
REMARK   13  A    between atoms: O_30  and  C_31 
REMARK   14  A    between atoms: C_31  and  C_32 
ROOT
HETATM    1  C   UNL     1       6.634  26.954  54.006  1.00  0.00     0.161 A 
HETATM    2  N   UNL     1       5.526  27.233  53.094  1.00  0.00    -0.333 N 
HETATM    3  C   UNL     1       4.450  27.772  53.759  1.00  0.00     0.278 A 
HETATM    4  O   UNL     1       3.412  28.181  53.262  1.00  0.00    -0.265 OA
HETATM    5  C   UNL     1       4.760  27.763  55.199  1.00  0.00     0.146 A 
HETATM    6  C   UNL     1       6.015  27.315  55.330  1.00  0.00     0.059 A 
ENDROOT
BRANCH   6   7
HETATM    7  C   UNL     1       6.807  27.175  56.570  1.00  0.00     0.193 C 
HETATM    8  O   UNL     1       6.926  26.087  57.123  1.00  0.00    -0.287 OA
BRANCH   7   9
HETATM    9  C   UNL     1       7.485  28.345  57.153  1.00  0.00     0.015 A 
HETATM   10  C   UNL     1       8.858  28.531  56.967  1.00  0.00     0.025 A 
HETATM   11  C   UNL     1       9.505  29.619  57.570  1.00  0.00    -0.028 A 
HETATM   12  C   UNL     1      10.986  29.806  57.387  1.00  0.00     0.051 C 
HETATM   13  C   UNL     1       8.766  30.499  58.383  1.00  0.00     0.074 A 
HETATM   14  C   UNL     1       7.391  30.306  58.556  1.00  0.00     0.038 A 
HETATM   15  C   UNL     1       6.752  29.219  57.955  1.00  0.00     0.018 A 
BRANCH  13  16
HETATM   16  O   UNL     1       9.477  31.521  58.952  1.00  0.00    -0.350 OA
BRANCH  16  17
HETATM   17  C   UNL     1       8.805  32.309  59.937  1.00  0.00     0.179 C 
BRANCH  17  18
HETATM   18  C   UNL     1       9.345  31.960  61.333  1.00  0.00     0.002 C 
HETATM   19  C   UNL     1       8.402  32.467  62.426  1.00  0.00     0.011 C 
HETATM   20  C   UNL     1       9.567  30.456  61.490  1.00  0.00     0.011 C 
ENDBRANCH  17  18
ENDBRANCH  16  17
ENDBRANCH  13  16
ENDBRANCH   7   9
ENDBRANCH   6   7
BRANCH   1  21
HETATM   21  C   UNL     1       7.145  25.537  53.826  1.00  0.00    -0.028 A 
HETATM   22  C   UNL     1       7.865  25.223  52.655  1.00  0.00     0.012 A 
HETATM   23  C   UNL     1       8.340  23.933  52.433  1.00  0.00     0.040 A 
HETATM   24  C   UNL     1       8.115  22.954  53.387  1.00  0.00     0.099 A 
HETATM   25  C   UNL     1       7.426  23.235  54.570  1.00  0.00     0.102 A 
HETATM   26  C   UNL     1       6.915  24.520  54.773  1.00  0.00     0.049 A 
BRANCH  24  27
HETATM   27  O   UNL     1       8.607  21.700  53.151  1.00  0.00    -0.358 OA
HETATM   28  H   UNL     1       8.756  21.308  54.034  1.00  0.00     0.218 HD
ENDBRANCH  24  27
BRANCH  25  29
HETATM   29  O   UNL     1       7.293  22.179  55.433  1.00  0.00    -0.349 OA
BRANCH  29  30
HETATM   30  C   UNL     1       8.308  22.056  56.430  1.00  0.00     0.171 C 
HETATM   31  C   UNL     1       8.720  20.596  56.497  1.00  0.00     0.034 C 
ENDBRANCH  29  30
ENDBRANCH  25  29
ENDBRANCH   1  21
BRANCH   5  32
HETATM   32  O   UNL     1       3.886  28.173  56.158  1.00  0.00    -0.355 OA
HETATM   33  H   UNL     1       3.882  29.149  56.157  1.00  0.00     0.218 HD
ENDBRANCH   5  32
BRANCH   2  34
HETATM   34  C   UNL     1       5.679  27.267  51.651  1.00  0.00     0.129 C 
BRANCH  34  35
HETATM   35  C   UNL     1       4.899  26.177  50.911  1.00  0.00     0.048 C 
BRANCH  35  36
HETATM   36  C   UNL     1       4.601  26.407  49.428  1.00  0.00     0.235 C 
BRANCH  36  37
HETATM   37  N   UNL     1       3.174  26.801  49.131  1.00  0.00    -0.079 N 
HETATM   38  H   UNL     1       2.587  26.341  49.857  1.00  0.00     0.278 HD
HETATM   39  C   UNL     1       2.906  28.275  49.147  1.00  0.00     0.269 C 
HETATM   40  C   UNL     1       2.688  26.181  47.847  1.00  0.00     0.269 C 
ENDBRANCH  36  37
ENDBRANCH  35  36
ENDBRANCH  34  35
ENDBRANCH   2  34
TORSDOF 14
ENDMDL
MODEL 4
REMARK VINA RESULT:      -8.0      2.142      3.305
REMARK  14 active torsions:
REMARK  status: ('A' for Active; 'I' for Inactive)
REMARK    1  A    between atoms: C_2  and  O_3 
REMARK    2  A    between atoms: O_3  and  C_4 
REMARK    3  A    between atoms: C_5  and  O_6 
REMARK    4  A    between atoms: C_9  and  C_10 
REMARK    5  A    between atoms: N_11  and  C_12 
REMARK    6  A    between atoms: C_12  and  C_13 
REMARK    7  A    between atoms: C_13  and  C_14 
REMARK    8  A    between atoms: C_14  and  N_15 
REMARK    9  A    between atoms: C_21  and  O_22 
REMARK   10  A    between atoms: C_23  and  C_24 
REMARK   11  A    between atoms: C_24  and  C_25 
REMARK   12  A    between atoms: C_29  and  O_30 
REMARK   13  A    between atoms: O_30  and  C_31 
REMARK   14  A    between atoms: C_31  and  C_32 
ROOT
HETATM    1  C   UNL     1       4.747  28.116  53.577  1.00  0.00     0.161 A 
HETATM    2  N   UNL     1       4.991  29.313  52.772  1.00  0.00    -0.333 N 
HETATM    3  C   UNL     1       5.301  28.991  51.472  1.00  0.00     0.278 A 
HETATM    4  O   UNL     1       5.478  29.768  50.547  1.00  0.00    -0.265 OA
HETATM    5  C   UNL     1       5.398  27.523  51.382  1.00  0.00     0.146 A 
HETATM    6  C   UNL     1       5.060  27.031  52.581  1.00  0.00     0.059 A 
ENDROOT
BRANCH   6   7
HETATM    7  C   UNL     1       4.948  25.614  52.984  1.00  0.00     0.193 C 
HETATM    8  O   UNL     1       3.898  24.997  52.837  1.00  0.00    -0.287 OA
BRANCH   7   9
HETATM    9  C   UNL     1       6.109  24.911  53.554  1.00  0.00     0.015 A 
HETATM   10  C   UNL     1       6.266  24.811  54.939  1.00  0.00     0.025 A 
HETATM   11  C   UNL     1       7.402  24.186  55.472  1.00  0.00    -0.028 A 
HETATM   12  C   UNL     1       7.580  24.098  56.963  1.00  0.00     0.051 C 
HETATM   13  C   UNL     1       8.391  23.690  54.601  1.00  0.00     0.074 A 
HETATM   14  C   UNL     1       8.219  23.790  53.216  1.00  0.00     0.038 A 
HETATM   15  C   UNL     1       7.087  24.415  52.691  1.00  0.00     0.018 A 
BRANCH  13  16
HETATM   16  O   UNL     1       9.478  23.115  55.202  1.00  0.00    -0.350 OA
BRANCH  16  17
HETATM   17  C   UNL     1       9.683  21.719  54.975  1.00  0.00     0.179 C 
BRANCH  17  18
HETATM   18  C   UNL     1       8.324  21.019  54.814  1.00  0.00     0.002 C 
HETATM   19  C   UNL     1       8.296  20.164  53.545  1.00  0.00     0.011 C 
HETATM   20  C   UNL     1       7.988  20.157  56.032  1.00  0.00     0.011 C 
ENDBRANCH  17  18
ENDBRANCH  16  17
ENDBRANCH  13  16
ENDBRANCH   7   9
ENDBRANCH   6   7
BRANCH   1  21
HETATM   21  C   UNL     1       5.551  28.151  54.863  1.00  0.00    -0.028 A 
HETATM   22  C   UNL     1       4.862  28.090  56.091  1.00  0.00     0.012 A 
HETATM   23  C   UNL     1       5.552  28.136  57.300  1.00  0.00     0.040 A 
HETATM   24  C   UNL     1       6.935  28.225  57.289  1.00  0.00     0.099 A 
HETATM   25  C   UNL     1       7.651  28.265  56.090  1.00  0.00     0.102 A 
HETATM   26  C   UNL     1       6.956  28.259  54.878  1.00  0.00     0.049 A 
BRANCH  24  27
HETATM   27  O   UNL     1       7.587  28.252  58.490  1.00  0.00    -0.358 OA
HETATM   28  H   UNL     1       7.696  29.199  58.705  1.00  0.00     0.218 HD
ENDBRANCH  24  27
BRANCH  25  29
HETATM   29  O   UNL     1       9.013  28.334  56.227  1.00  0.00    -0.349 OA
BRANCH  29  30
HETATM   30  C   UNL     1       9.604  29.607  55.964  1.00  0.00     0.171 C 
HETATM   31  C   UNL     1      10.852  29.727  56.820  1.00  0.00     0.034 C 
ENDBRANCH  29  30
ENDBRANCH  25  29
ENDBRANCH   1  21
BRANCH   5  32
HETATM   32  O   UNL     1       5.750  26.862  50.247  1.00  0.00    -0.355 OA
HETATM   33  H   UNL     1       5.804  27.519  49.526  1.00  0.00     0.218 HD
ENDBRANCH   5  32
BRANCH   2  34
HETATM   34  C   UNL     1       4.608  30.646  53.201  1.00  0.00     0.129 C 
BRANCH  34  35
HETATM   35  C   UNL     1       3.348  30.687  54.072  1.00  0.00     0.048 C 
BRANCH  35  36
HETATM   36  C   UNL     1       3.276  31.762  55.158  1.00  0.00     0.235 C 
BRANCH  36  37
HETATM   37  N   UNL     1       4.608  32.374  55.520  1.00  0.00    -0.079 N 
HETATM   38  H   UNL     1       5.276  32.077  54.779  1.00  0.00     0.278 HD
HETATM   39  C   UNL     1       4.615  33.869  55.614  1.00  0.00     0.269 C 
HETATM   40  C   UNL     1       5.176  31.754  56.770  1.00  0.00     0.269 C 
ENDBRANCH  36  37
ENDBRANCH  35  36
ENDBRANCH  34  35
ENDBRANCH   2  34
TORSDOF 14
ENDMDL
MODEL 5
REMARK VINA RESULT:      -7.8      5.442      9.835
REMARK  14 active torsions:
REMARK  status: ('A' for Active; 'I' for Inactive)
REMARK    1  A    between atoms: C_2  and  O_3 
REMARK    2  A    between atoms: O_3  and  C_4 
REMARK    3  A    between atoms: C_5  and  O_6 
REMARK    4  A    between atoms: C_9  and  C_10 
REMARK    5  A    between atoms: N_11  and  C_12 
REMARK    6  A    between atoms: C_12  and  C_13 
REMARK    7  A    between atoms: C_13  and  C_14 
REMARK    8  A    between atoms: C_14  and  N_15 
REMARK    9  A    between atoms: C_21  and  O_22 
REMARK   10  A    between atoms: C_23  and  C_24 
REMARK   11  A    between atoms: C_24  and  C_25 
REMARK   12  A    between atoms: C_29  and  O_30 
REMARK   13  A    between atoms: O_30  and  C_31 
REMARK   14  A    between atoms: C_31  and  C_32 
ROOT
HETATM    1  C   UNL     1       4.985  35.165  62.990  1.00  0.00     0.161 A 
HETATM    2  N   UNL     1       4.742  36.194  64.001  1.00  0.00    -0.333 N 
HETATM    3  C   UNL     1       4.802  35.674  65.272  1.00  0.00     0.278 A 
HETATM    4  O   UNL     1       4.720  36.294  66.322  1.00  0.00    -0.265 OA
HETATM    5  C   UNL     1       4.972  34.215  65.155  1.00  0.00     0.146 A 
HETATM    6  C   UNL     1       5.096  33.935  63.852  1.00  0.00     0.059 A 
ENDROOT
BRANCH   6   7
HETATM    7  C   UNL     1       5.343  32.621  63.223  1.00  0.00     0.193 C 
HETATM    8  O   UNL     1       4.770  31.613  63.621  1.00  0.00    -0.287 OA
BRANCH   7   9
HETATM    9  C   UNL     1       6.272  32.506  62.086  1.00  0.00     0.015 A 
HETATM   10  C   UNL     1       5.785  32.278  60.796  1.00  0.00     0.025 A 
HETATM   11  C   UNL     1       6.680  32.116  59.728  1.00  0.00    -0.028 A 
HETATM   12  C   UNL     1       6.156  31.849  58.344  1.00  0.00     0.051 C 
HETATM   13  C   UNL     1       8.066  32.158  59.975  1.00  0.00     0.074 A 
HETATM   14  C   UNL     1       8.540  32.394  61.270  1.00  0.00     0.038 A 
HETATM   15  C   UNL     1       7.644  32.552  62.329  1.00  0.00     0.018 A 
BRANCH  13  16
HETATM   16  O   UNL     1       8.869  31.969  58.883  1.00  0.00    -0.350 OA
BRANCH  16  17
HETATM   17  C   UNL     1       9.683  30.794  58.873  1.00  0.00     0.179 C 
BRANCH  17  18
HETATM   18  C   UNL     1       9.586  30.113  57.498  1.00  0.00     0.002 C 
HETATM   19  C   UNL     1      10.973  29.715  56.986  1.00  0.00     0.011 C 
HETATM   20  C   UNL     1       8.674  28.888  57.541  1.00  0.00     0.011 C 
ENDBRANCH  17  18
ENDBRANCH  16  17
ENDBRANCH  13  16
ENDBRANCH   7   9
ENDBRANCH   6   7
BRANCH   1  21
HETATM   21  C   UNL     1       3.908  35.186  61.921  1.00  0.00    -0.028 A 
HETATM   22  C   UNL     1       2.600  34.798  62.274  1.00  0.00     0.012 A 
HETATM   23  C   UNL     1       1.579  34.783  61.327  1.00  0.00     0.040 A 
HETATM   24  C   UNL     1       1.856  35.174  60.026  1.00  0.00     0.099 A 
HETATM   25  C   UNL     1       3.136  35.587  59.648  1.00  0.00     0.102 A 
HETATM   26  C   UNL     1       4.167  35.564  60.589  1.00  0.00     0.049 A 
BRANCH  24  27
HETATM   27  O   UNL     1       0.832  35.165  59.121  1.00  0.00    -0.358 OA
HETATM   28  H   UNL     1       0.227  34.457  59.418  1.00  0.00     0.218 HD
ENDBRANCH  24  27
BRANCH  25  29
HETATM   29  O   UNL     1       3.262  35.964  58.336  1.00  0.00    -0.349 OA
BRANCH  29  30
HETATM   30  C   UNL     1       4.265  35.281  57.583  1.00  0.00     0.171 C 
HETATM   31  C   UNL     1       3.595  34.135  56.847  1.00  0.00     0.034 C 
ENDBRANCH  29  30
ENDBRANCH  25  29
ENDBRANCH   1  21
BRANCH   5  32
HETATM   32  O   UNL     1       5.008  33.375  66.225  1.00  0.00    -0.355 OA
HETATM   33  H   UNL     1       4.088  33.131  66.441  1.00  0.00     0.218 HD
ENDBRANCH   5  32
BRANCH   2  34
HETATM   34  C   UNL     1       4.790  37.615  63.710  1.00  0.00     0.129 C 
BRANCH  34  35
HETATM   35  C   UNL     1       6.194  38.147  63.409  1.00  0.00     0.048 C 
BRANCH  35  36
HETATM   36  C   UNL     1       6.474  38.634  61.985  1.00  0.00     0.235 C 
BRANCH  36  37
HETATM   37  N   UNL     1       7.379  39.839  61.904  1.00  0.00    -0.079 N 
HETATM   38  H   UNL     1       8.305  39.488  61.584  1.00  0.00     0.278 HD
HETATM   39  C   UNL     1       6.918  40.919  60.974  1.00  0.00     0.269 C 
HETATM   40  C   UNL     1       7.673  40.398  63.272  1.00  0.00     0.269 C 
ENDBRANCH  36  37
ENDBRANCH  35  36
ENDBRANCH  34  35
ENDBRANCH   2  34
TORSDOF 14
ENDMDL
MODEL 6
REMARK VINA RESULT:      -7.7      2.988      5.838
REMARK  14 active torsions:
REMARK  status: ('A' for Active; 'I' for Inactive)
REMARK    1  A    between atoms: C_2  and  O_3 
REMARK    2  A    between atoms: O_3  and  C_4 
REMARK    3  A    between atoms: C_5  and  O_6 
REMARK    4  A    between atoms: C_9  and  C_10 
REMARK    5  A    between atoms: N_11  and  C_12 
REMARK    6  A    between atoms: C_12  and  C_13 
REMARK    7  A    between atoms: C_13  and  C_14 
REMARK    8  A    between atoms: C_14  and  N_15 
REMARK    9  A    between atoms: C_21  and  O_22 
REMARK   10  A    between atoms: C_23  and  C_24 
REMARK   11  A    between atoms: C_24  and  C_25 
REMARK   12  A    between atoms: C_29  and  O_30 
REMARK   13  A    between atoms: O_30  and  C_31 
REMARK   14  A    between atoms: C_31  and  C_32 
ROOT
HETATM    1  C   UNL     1       5.158  29.812  54.435  1.00  0.00     0.161 A 
HETATM    2  N   UNL     1       3.880  30.410  54.818  1.00  0.00    -0.333 N 
HETATM    3  C   UNL     1       3.672  30.327  56.175  1.00  0.00     0.278 A 
HETATM    4  O   UNL     1       2.739  30.803  56.803  1.00  0.00    -0.265 OA
HETATM    5  C   UNL     1       4.776  29.541  56.753  1.00  0.00     0.146 A 
HETATM    6  C   UNL     1       5.630  29.269  55.758  1.00  0.00     0.059 A 
ENDROOT
BRANCH   6   7
HETATM    7  C   UNL     1       6.922  28.555  55.837  1.00  0.00     0.193 C 
HETATM    8  O   UNL     1       7.939  29.130  56.209  1.00  0.00    -0.287 OA
BRANCH   7   9
HETATM    9  C   UNL     1       7.002  27.127  55.488  1.00  0.00     0.015 A 
HETATM   10  C   UNL     1       7.479  26.732  54.235  1.00  0.00     0.025 A 
HETATM   11  C   UNL     1       7.502  25.372  53.892  1.00  0.00    -0.028 A 
HETATM   12  C   UNL     1       7.996  24.950  52.535  1.00  0.00     0.051 C 
HETATM   13  C   UNL     1       7.015  24.420  54.806  1.00  0.00     0.074 A 
HETATM   14  C   UNL     1       6.546  24.828  56.060  1.00  0.00     0.038 A 
HETATM   15  C   UNL     1       6.523  26.183  56.396  1.00  0.00     0.018 A 
BRANCH  13  16
HETATM   16  O   UNL     1       7.052  23.118  54.385  1.00  0.00    -0.350 OA
BRANCH  16  17
HETATM   17  C   UNL     1       7.618  22.161  55.282  1.00  0.00     0.179 C 
BRANCH  17  18
HETATM   18  C   UNL     1       8.590  21.249  54.517  1.00  0.00     0.002 C 
HETATM   19  C   UNL     1       9.009  20.054  55.376  1.00  0.00     0.011 C 
HETATM   20  C   UNL     1       7.985  20.761  53.201  1.00  0.00     0.011 C 
ENDBRANCH  17  18
ENDBRANCH  16  17
ENDBRANCH  13  16
ENDBRANCH   7   9
ENDBRANCH   6   7
BRANCH   1  21
HETATM   21  C   UNL     1       4.981  28.832  53.290  1.00  0.00    -0.028 A 
HETATM   22  C   UNL     1       4.282  27.632  53.531  1.00  0.00     0.012 A 
HETATM   23  C   UNL     1       4.106  26.692  52.520  1.00  0.00     0.040 A 
HETATM   24  C   UNL     1       4.612  26.953  51.256  1.00  0.00     0.099 A 
HETATM   25  C   UNL     1       5.289  28.143  50.976  1.00  0.00     0.102 A 
HETATM   26  C   UNL     1       5.500  29.067  52.002  1.00  0.00     0.049 A 
BRANCH  24  27
HETATM   27  O   UNL     1       4.411  26.020  50.277  1.00  0.00    -0.358 OA
HETATM   28  H   UNL     1       5.305  25.751  49.987  1.00  0.00     0.218 HD
ENDBRANCH  24  27
BRANCH  25  29
HETATM   29  O   UNL     1       5.718  28.278  49.681  1.00  0.00    -0.349 OA
BRANCH  29  30
HETATM   30  C   UNL     1       4.952  29.160  48.858  1.00  0.00     0.171 C 
HETATM   31  C   UNL     1       4.976  28.613  47.442  1.00  0.00     0.034 C 
ENDBRANCH  29  30
ENDBRANCH  25  29
ENDBRANCH   1  21
BRANCH   5  32
HETATM   32  O   UNL     1       4.854  29.212  58.070  1.00  0.00    -0.355 OA
HETATM   33  H   UNL     1       5.469  29.838  58.496  1.00  0.00     0.218 HD
ENDBRANCH   5  32
BRANCH   2  34
HETATM   34  C   UNL     1       3.119  31.279  53.939  1.00  0.00     0.129 C 
BRANCH  34  35
HETATM   35  C   UNL     1       3.935  32.422  53.327  1.00  0.00     0.048 C 
BRANCH  35  36
HETATM   36  C   UNL     1       4.161  32.394  51.813  1.00  0.00     0.235 C 
BRANCH  36  37
HETATM   37  N   UNL     1       5.526  32.869  51.377  1.00  0.00    -0.079 N 
HETATM   38  H   UNL     1       6.214  32.223  51.815  1.00  0.00     0.278 HD
HETATM   39  C   UNL     1       5.748  32.890  49.896  1.00  0.00     0.269 C 
HETATM   40  C   UNL     1       5.864  34.204  51.989  1.00  0.00     0.269 C 
ENDBRANCH  36  37
ENDBRANCH  35  36
ENDBRANCH  34  35
ENDBRANCH   2  34
TORSDOF 14
ENDMDL
MODEL 7
REMARK VINA RESULT:      -7.5      3.140      6.501
REMARK  14 active torsions:
REMARK  status: ('A' for Active; 'I' for Inactive)
REMARK    1  A    between atoms: C_2  and  O_3 
REMARK    2  A    between atoms: O_3  and  C_4 
REMARK    3  A    between atoms: C_5  and  O_6 
REMARK    4  A    between atoms: C_9  and  C_10 
REMARK    5  A    between atoms: N_11  and  C_12 
REMARK    6  A    between atoms: C_12  and  C_13 
REMARK    7  A    between atoms: C_13  and  C_14 
REMARK    8  A    between atoms: C_14  and  N_15 
REMARK    9  A    between atoms: C_21  and  O_22 
REMARK   10  A    between atoms: C_23  and  C_24 
REMARK   11  A    between atoms: C_24  and  C_25 
REMARK   12  A    between atoms: C_29  and  O_30 
REMARK   13  A    between atoms: O_30  and  C_31 
REMARK   14  A    between atoms: C_31  and  C_32 
ROOT
HETATM    1  C   UNL     1       7.407  27.598  56.076  1.00  0.00     0.161 A 
HETATM    2  N   UNL     1       7.308  26.468  56.999  1.00  0.00    -0.333 N 
HETATM    3  C   UNL     1       5.998  26.113  57.221  1.00  0.00     0.278 A 
HETATM    4  O   UNL     1       5.598  25.164  57.879  1.00  0.00    -0.265 OA
HETATM    5  C   UNL     1       5.142  27.094  56.531  1.00  0.00     0.146 A 
HETATM    6  C   UNL     1       5.952  27.924  55.863  1.00  0.00     0.059 A 
ENDROOT
BRANCH   6   7
HETATM    7  C   UNL     1       5.576  29.043  54.974  1.00  0.00     0.193 C 
HETATM    8  O   UNL     1       5.616  30.203  55.368  1.00  0.00    -0.287 OA
BRANCH   7   9
HETATM    9  C   UNL     1       5.164  28.780  53.585  1.00  0.00     0.015 A 
HETATM   10  C   UNL     1       4.177  29.563  52.980  1.00  0.00     0.025 A 
HETATM   11  C   UNL     1       3.754  29.272  51.675  1.00  0.00    -0.028 A 
HETATM   12  C   UNL     1       2.677  30.102  51.033  1.00  0.00     0.051 C 
HETATM   13  C   UNL     1       4.310  28.170  50.998  1.00  0.00     0.074 A 
HETATM   14  C   UNL     1       5.302  27.398  51.612  1.00  0.00     0.038 A 
HETATM   15  C   UNL     1       5.718  27.691  52.912  1.00  0.00     0.018 A 
BRANCH  13  16
HETATM   16  O   UNL     1       3.826  27.941  49.739  1.00  0.00    -0.350 OA
BRANCH  16  17
HETATM   17  C   UNL     1       4.458  26.909  48.978  1.00  0.00     0.179 C 
BRANCH  17  18
HETATM   18  C   UNL     1       3.559  26.517  47.795  1.00  0.00     0.002 C 
HETATM   19  C   UNL     1       3.058  25.078  47.942  1.00  0.00     0.011 C 
HETATM   20  C   UNL     1       2.373  27.471  47.649  1.00  0.00     0.011 C 
ENDBRANCH  17  18
ENDBRANCH  16  17
ENDBRANCH  13  16
ENDBRANCH   7   9
ENDBRANCH   6   7
BRANCH   1  21
HETATM   21  C   UNL     1       8.302  28.685  56.639  1.00  0.00    -0.028 A 
HETATM   22  C   UNL     1       9.508  28.980  55.970  1.00  0.00     0.012 A 
HETATM   23  C   UNL     1      10.374  29.957  56.455  1.00  0.00     0.040 A 
HETATM   24  C   UNL     1      10.031  30.657  57.601  1.00  0.00     0.099 A 
HETATM   25  C   UNL     1       8.834  30.407  58.276  1.00  0.00     0.102 A 
HETATM   26  C   UNL     1       7.985  29.400  57.811  1.00  0.00     0.049 A 
BRANCH  24  27
HETATM   27  O   UNL     1      10.892  31.622  58.046  1.00  0.00    -0.358 OA
HETATM   28  H   UNL     1      11.408  31.893  57.261  1.00  0.00     0.218 HD
ENDBRANCH  24  27
BRANCH  25  29
HETATM   29  O   UNL     1       8.614  31.186  59.382  1.00  0.00    -0.349 OA
BRANCH  29  30
HETATM   30  C   UNL     1       8.943  30.593  60.639  1.00  0.00     0.171 C 
HETATM   31  C   UNL     1       9.541  31.674  61.522  1.00  0.00     0.034 C 
ENDBRANCH  29  30
ENDBRANCH  25  29
ENDBRANCH   1  21
BRANCH   5  32
HETATM   32  O   UNL     1       3.783  27.078  56.592  1.00  0.00    -0.355 OA
HETATM   33  H   UNL     1       3.482  26.208  56.266  1.00  0.00     0.218 HD
ENDBRANCH   5  32
BRANCH   2  34
HETATM   34  C   UNL     1       8.439  25.625  57.342  1.00  0.00     0.129 C 
BRANCH  34  35
HETATM   35  C   UNL     1       8.693  24.484  56.352  1.00  0.00     0.048 C 
BRANCH  35  36
HETATM   36  C   UNL     1       8.406  23.059  56.831  1.00  0.00     0.235 C 
BRANCH  36  37
HETATM   37  N   UNL     1       8.110  22.076  55.723  1.00  0.00    -0.079 N 
HETATM   38  H   UNL     1       7.162  22.316  55.367  1.00  0.00     0.278 HD
HETATM   39  C   UNL     1       9.080  22.093  54.583  1.00  0.00     0.269 C 
HETATM   40  C   UNL     1       7.936  20.680  56.261  1.00  0.00     0.269 C 
ENDBRANCH  36  37
ENDBRANCH  35  36
ENDBRANCH  34  35
ENDBRANCH   2  34
TORSDOF 14
ENDMDL
MODEL 8
REMARK VINA RESULT:      -7.5      3.075      6.970
REMARK  14 active torsions:
REMARK  status: ('A' for Active; 'I' for Inactive)
REMARK    1  A    between atoms: C_2  and  O_3 
REMARK    2  A    between atoms: O_3  and  C_4 
REMARK    3  A    between atoms: C_5  and  O_6 
REMARK    4  A    between atoms: C_9  and  C_10 
REMARK    5  A    between atoms: N_11  and  C_12 
REMARK    6  A    between atoms: C_12  and  C_13 
REMARK    7  A    between atoms: C_13  and  C_14 
REMARK    8  A    between atoms: C_14  and  N_15 
REMARK    9  A    between atoms: C_21  and  O_22 
REMARK   10  A    between atoms: C_23  and  C_24 
REMARK   11  A    between atoms: C_24  and  C_25 
REMARK   12  A    between atoms: C_29  and  O_30 
REMARK   13  A    between atoms: O_30  and  C_31 
REMARK   14  A    between atoms: C_31  and  C_32 
ROOT
HETATM    1  C   UNL     1       5.688  33.243  60.677  1.00  0.00     0.161 A 
HETATM    2  N   UNL     1       4.817  32.916  61.804  1.00  0.00    -0.333 N 
HETATM    3  C   UNL     1       5.373  31.946  62.605  1.00  0.00     0.278 A 
HETATM    4  O   UNL     1       4.924  31.521  63.659  1.00  0.00    -0.265 OA
HETATM    5  C   UNL     1       6.616  31.488  61.961  1.00  0.00     0.146 A 
HETATM    6  C   UNL     1       6.800  32.247  60.874  1.00  0.00     0.059 A 
ENDROOT
BRANCH   6   7
HETATM    7  C   UNL     1       7.933  32.218  59.925  1.00  0.00     0.193 C 
HETATM    8  O   UNL     1       8.738  33.141  59.874  1.00  0.00    -0.287 OA
BRANCH   7   9
HETATM    9  C   UNL     1       8.124  31.061  59.034  1.00  0.00     0.015 A 
HETATM   10  C   UNL     1       9.374  30.808  58.463  1.00  0.00     0.025 A 
HETATM   11  C   UNL     1       9.533  29.734  57.574  1.00  0.00    -0.028 A 
HETATM   12  C   UNL     1      10.873  29.476  56.943  1.00  0.00     0.051 C 
HETATM   13  C   UNL     1       8.419  28.939  57.243  1.00  0.00     0.074 A 
HETATM   14  C   UNL     1       7.175  29.199  57.827  1.00  0.00     0.038 A 
HETATM   15  C   UNL     1       7.021  30.270  58.710  1.00  0.00     0.018 A 
BRANCH  13  16
HETATM   16  O   UNL     1       8.655  27.928  56.352  1.00  0.00    -0.350 OA
BRANCH  16  17
HETATM   17  C   UNL     1       7.544  27.099  56.002  1.00  0.00     0.179 C 
BRANCH  17  18
HETATM   18  C   UNL     1       7.377  25.991  57.054  1.00  0.00     0.002 C 
HETATM   19  C   UNL     1       6.211  25.067  56.694  1.00  0.00     0.011 C 
HETATM   20  C   UNL     1       8.659  25.174  57.219  1.00  0.00     0.011 C 
ENDBRANCH  17  18
ENDBRANCH  16  17
ENDBRANCH  13  16
ENDBRANCH   7   9
ENDBRANCH   6   7
BRANCH   1  21
HETATM   21  C   UNL     1       4.924  33.202  59.367  1.00  0.00    -0.028 A 
HETATM   22  C   UNL     1       4.857  34.375  58.588  1.00  0.00     0.012 A 
HETATM   23  C   UNL     1       4.154  34.396  57.386  1.00  0.00     0.040 A 
HETATM   24  C   UNL     1       3.528  33.239  56.947  1.00  0.00     0.099 A 
HETATM   25  C   UNL     1       3.594  32.053  57.683  1.00  0.00     0.102 A 
HETATM   26  C   UNL     1       4.266  32.044  58.907  1.00  0.00     0.049 A 
BRANCH  24  27
HETATM   27  O   UNL     1       2.858  33.283  55.757  1.00  0.00    -0.358 OA
HETATM   28  H   UNL     1       3.249  32.572  55.211  1.00  0.00     0.218 HD
ENDBRANCH  24  27
BRANCH  25  29
HETATM   29  O   UNL     1       2.947  30.983  57.121  1.00  0.00    -0.349 OA
BRANCH  29  30
HETATM   30  C   UNL     1       3.778  29.895  56.712  1.00  0.00     0.171 C 
HETATM   31  C   UNL     1       3.885  29.935  55.198  1.00  0.00     0.034 C 
ENDBRANCH  29  30
ENDBRANCH  25  29
ENDBRANCH   1  21
BRANCH   5  32
HETATM   32  O   UNL     1       7.393  30.487  62.456  1.00  0.00    -0.355 OA
HETATM   33  H   UNL     1       7.059  30.266  63.346  1.00  0.00     0.218 HD
ENDBRANCH   5  32
BRANCH   2  34
HETATM   34  C   UNL     1       3.700  33.750  62.209  1.00  0.00     0.129 C 
BRANCH  34  35
HETATM   35  C   UNL     1       4.058  34.816  63.249  1.00  0.00     0.048 C 
BRANCH  35  36
HETATM   36  C   UNL     1       3.602  34.575  64.690  1.00  0.00     0.235 C 
BRANCH  36  37
HETATM   37  N   UNL     1       4.649  33.949  65.580  1.00  0.00    -0.079 N 
HETATM   38  H   UNL     1       4.548  32.919  65.469  1.00  0.00     0.278 HD
HETATM   39  C   UNL     1       6.062  34.338  65.269  1.00  0.00     0.269 C 
HETATM   40  C   UNL     1       4.338  34.175  67.036  1.00  0.00     0.269 C 
ENDBRANCH  36  37
ENDBRANCH  35  36
ENDBRANCH  34  35
ENDBRANCH   2  34
TORSDOF 14
ENDMDL
MODEL 9
REMARK VINA RESULT:      -7.3      1.883      3.403
REMARK  14 active torsions:
REMARK  status: ('A' for Active; 'I' for Inactive)
REMARK    1  A    between atoms: C_2  and  O_3 
REMARK    2  A    between atoms: O_3  and  C_4 
REMARK    3  A    between atoms: C_5  and  O_6 
REMARK    4  A    between atoms: C_9  and  C_10 
REMARK    5  A    between atoms: N_11  and  C_12 
REMARK    6  A    between atoms: C_12  and  C_13 
REMARK    7  A    between atoms: C_13  and  C_14 
REMARK    8  A    between atoms: C_14  and  N_15 
REMARK    9  A    between atoms: C_21  and  O_22 
REMARK   10  A    between atoms: C_23  and  C_24 
REMARK   11  A    between atoms: C_24  and  C_25 
REMARK   12  A    between atoms: C_29  and  O_30 
REMARK   13  A    between atoms: O_30  and  C_31 
REMARK   14  A    between atoms: C_31  and  C_32 
ROOT
HETATM    1  C   UNL     1       4.609  30.260  56.443  1.00  0.00     0.161 A 
HETATM    2  N   UNL     1       4.971  31.506  57.118  1.00  0.00    -0.333 N 
HETATM    3  C   UNL     1       5.032  32.558  56.235  1.00  0.00     0.278 A 
HETATM    4  O   UNL     1       5.231  33.732  56.506  1.00  0.00    -0.265 OA
HETATM    5  C   UNL     1       4.827  32.019  54.879  1.00  0.00     0.146 A 
HETATM    6  C   UNL     1       4.565  30.713  55.008  1.00  0.00     0.059 A 
ENDROOT
BRANCH   6   7
HETATM    7  C   UNL     1       4.234  29.741  53.945  1.00  0.00     0.193 C 
HETATM    8  O   UNL     1       3.252  29.901  53.228  1.00  0.00    -0.287 OA
BRANCH   7   9
HETATM    9  C   UNL     1       5.096  28.569  53.716  1.00  0.00     0.015 A 
HETATM   10  C   UNL     1       4.532  27.306  53.514  1.00  0.00     0.025 A 
HETATM   11  C   UNL     1       5.362  26.188  53.350  1.00  0.00    -0.028 A 
HETATM   12  C   UNL     1       4.755  24.826  53.155  1.00  0.00     0.051 C 
HETATM   13  C   UNL     1       6.760  26.347  53.419  1.00  0.00     0.074 A 
HETATM   14  C   UNL     1       7.311  27.618  53.614  1.00  0.00     0.038 A 
HETATM   15  C   UNL     1       6.480  28.728  53.780  1.00  0.00     0.018 A 
BRANCH  13  16
HETATM   16  O   UNL     1       7.496  25.203  53.272  1.00  0.00    -0.350 OA
BRANCH  16  17
HETATM   17  C   UNL     1       8.027  24.616  54.461  1.00  0.00     0.179 C 
BRANCH  17  18
HETATM   18  C   UNL     1       7.936  23.084  54.365  1.00  0.00     0.002 C 
HETATM   19  C   UNL     1       7.812  22.635  52.907  1.00  0.00     0.011 C 
HETATM   20  C   UNL     1       9.140  22.407  55.020  1.00  0.00     0.011 C 
ENDBRANCH  17  18
ENDBRANCH  16  17
ENDBRANCH  13  16
ENDBRANCH   7   9
ENDBRANCH   6   7
BRANCH   1  21
HETATM   21  C   UNL     1       5.571  29.145  56.806  1.00  0.00    -0.028 A 
HETATM   22  C   UNL     1       5.063  27.840  56.965  1.00  0.00     0.012 A 
HETATM   23  C   UNL     1       5.900  26.784  57.314  1.00  0.00     0.040 A 
HETATM   24  C   UNL     1       7.255  27.022  57.489  1.00  0.00     0.099 A 
HETATM   25  C   UNL     1       7.797  28.298  57.316  1.00  0.00     0.102 A 
HETATM   26  C   UNL     1       6.949  29.364  57.005  1.00  0.00     0.049 A 
BRANCH  24  27
HETATM   27  O   UNL     1       8.057  25.965  57.816  1.00  0.00    -0.358 OA
HETATM   28  H   UNL     1       8.874  26.087  57.294  1.00  0.00     0.218 HD
ENDBRANCH  24  27
BRANCH  25  29
HETATM   29  O   UNL     1       9.152  28.386  57.501  1.00  0.00    -0.349 OA
BRANCH  29  30
HETATM   30  C   UNL     1       9.679  29.706  57.643  1.00  0.00     0.171 C 
HETATM   31  C   UNL     1      11.027  29.746  56.947  1.00  0.00     0.034 C 
ENDBRANCH  29  30
ENDBRANCH  25  29
ENDBRANCH   1  21
BRANCH   5  32
HETATM   32  O   UNL     1       4.885  32.780  53.752  1.00  0.00    -0.355 OA
HETATM   33  H   UNL     1       5.674  32.502  53.248  1.00  0.00     0.218 HD
ENDBRANCH   5  32
BRANCH   2  34
HETATM   34  C   UNL     1       4.917  31.668  58.560  1.00  0.00     0.129 C 
BRANCH  34  35
HETATM   35  C   UNL     1       3.543  32.085  59.094  1.00  0.00     0.048 C 
BRANCH  35  36
HETATM   36  C   UNL     1       3.106  31.508  60.442  1.00  0.00     0.235 C 
BRANCH  36  37
HETATM   37  N   UNL     1       3.222  32.470  61.600  1.00  0.00    -0.079 N 
HETATM   38  H   UNL     1       2.407  32.281  62.218  1.00  0.00     0.278 HD
HETATM   39  C   UNL     1       4.482  32.351  62.401  1.00  0.00     0.269 C 
HETATM   40  C   UNL     1       3.000  33.892  61.156  1.00  0.00     0.269 C 
ENDBRANCH  36  37
ENDBRANCH  35  36
ENDBRANCH  34  35
ENDBRANCH   2  34
TORSDOF 14
ENDMDL
MODEL 10
REMARK VINA RESULT:      -7.2      2.586      7.995
REMARK  14 active torsions:
REMARK  status: ('A' for Active; 'I' for Inactive)
REMARK    1  A    between atoms: C_2  and  O_3 
REMARK    2  A    between atoms: O_3  and  C_4 
REMARK    3  A    between atoms: C_5  and  O_6 
REMARK    4  A    between atoms: C_9  and  C_10 
REMARK    5  A    between atoms: N_11  and  C_12 
REMARK    6  A    between atoms: C_12  and  C_13 
REMARK    7  A    between atoms: C_13  and  C_14 
REMARK    8  A    between atoms: C_14  and  N_15 
REMARK    9  A    between atoms: C_21  and  O_22 
REMARK   10  A    between atoms: C_23  and  C_24 
REMARK   11  A    between atoms: C_24  and  C_25 
REMARK   12  A    between atoms: C_29  and  O_30 
REMARK   13  A    between atoms: O_30  and  C_31 
REMARK   14  A    between atoms: C_31  and  C_32 
ROOT
HETATM    1  C   UNL     1       6.043  28.107  54.080  1.00  0.00     0.161 A 
HETATM    2  N   UNL     1       5.203  28.587  52.984  1.00  0.00    -0.333 N 
HETATM    3  C   UNL     1       4.108  29.276  53.453  1.00  0.00     0.278 A 
HETATM    4  O   UNL     1       3.270  29.861  52.785  1.00  0.00    -0.265 OA
HETATM    5  C   UNL     1       4.109  29.176  54.923  1.00  0.00     0.146 A 
HETATM    6  C   UNL     1       5.227  28.526  55.274  1.00  0.00     0.059 A 
ENDROOT
BRANCH   6   7
HETATM    7  C   UNL     1       5.714  28.225  56.635  1.00  0.00     0.193 C 
HETATM    8  O   UNL     1       5.543  27.119  57.137  1.00  0.00    -0.287 OA
BRANCH   7   9
HETATM    9  C   UNL     1       6.437  29.249  57.408  1.00  0.00     0.015 A 
HETATM   10  C   UNL     1       5.774  30.396  57.854  1.00  0.00     0.025 A 
HETATM   11  C   UNL     1       6.484  31.391  58.543  1.00  0.00    -0.028 A 
HETATM   12  C   UNL     1       5.774  32.634  59.004  1.00  0.00     0.051 C 
HETATM   13  C   UNL     1       7.867  31.235  58.752  1.00  0.00     0.074 A 
HETATM   14  C   UNL     1       8.517  30.079  58.307  1.00  0.00     0.038 A 
HETATM   15  C   UNL     1       7.807  29.092  57.619  1.00  0.00     0.018 A 
BRANCH  13  16
HETATM   16  O   UNL     1       8.487  32.261  59.412  1.00  0.00    -0.350 OA
BRANCH  16  17
HETATM   17  C   UNL     1       9.706  31.952  60.092  1.00  0.00     0.179 C 
BRANCH  17  18
HETATM   18  C   UNL     1       9.426  31.769  61.593  1.00  0.00     0.002 C 
HETATM   19  C   UNL     1       8.116  32.451  61.992  1.00  0.00     0.011 C 
HETATM   20  C   UNL     1       9.385  30.291  61.980  1.00  0.00     0.011 C 
ENDBRANCH  17  18
ENDBRANCH  16  17
ENDBRANCH  13  16
ENDBRANCH   7   9
ENDBRANCH   6   7
BRANCH   1  21
HETATM   21  C   UNL     1       6.357  26.631  53.919  1.00  0.00    -0.028 A 
HETATM   22  C   UNL     1       5.505  25.844  53.118  1.00  0.00     0.012 A 
HETATM   23  C   UNL     1       5.739  24.481  52.952  1.00  0.00     0.040 A 
HETATM   24  C   UNL     1       6.836  23.901  53.570  1.00  0.00     0.099 A 
HETATM   25  C   UNL     1       7.713  24.656  54.352  1.00  0.00     0.102 A 
HETATM   26  C   UNL     1       7.455  26.015  54.551  1.00  0.00     0.049 A 
BRANCH  24  27
HETATM   27  O   UNL     1       7.050  22.565  53.378  1.00  0.00    -0.358 OA
HETATM   28  H   UNL     1       7.096  22.445  52.409  1.00  0.00     0.218 HD
ENDBRANCH  24  27
BRANCH  25  29
HETATM   29  O   UNL     1       8.765  23.959  54.887  1.00  0.00    -0.349 OA
BRANCH  29  30
HETATM   30  C   UNL     1       8.755  23.806  56.307  1.00  0.00     0.171 C 
HETATM   31  C   UNL     1       8.423  22.357  56.617  1.00  0.00     0.034 C 
ENDBRANCH  29  30
ENDBRANCH  25  29
ENDBRANCH   1  21
BRANCH   5  32
HETATM   32  O   UNL     1       3.130  29.694  55.711  1.00  0.00    -0.355 OA
HETATM   33  H   UNL     1       2.355  29.870  55.144  1.00  0.00     0.218 HD
ENDBRANCH   5  32
BRANCH   2  34
HETATM   34  C   UNL     1       5.654  28.637  51.605  1.00  0.00     0.129 C 
BRANCH  34  35
HETATM   35  C   UNL     1       4.564  28.319  50.576  1.00  0.00     0.048 C 
BRANCH  35  36
HETATM   36  C   UNL     1       4.719  27.035  49.760  1.00  0.00     0.235 C 
BRANCH  36  37
HETATM   37  N   UNL     1       3.761  26.913  48.599  1.00  0.00    -0.079 N 
HETATM   38  H   UNL     1       4.251  27.317  47.774  1.00  0.00     0.278 HD
HETATM   39  C   UNL     1       3.328  25.516  48.276  1.00  0.00     0.269 C 
HETATM   40  C   UNL     1       2.569  27.818  48.774  1.00  0.00     0.269 C 
ENDBRANCH  36  37
ENDBRANCH  35  36
ENDBRANCH  34  35
ENDBRANCH   2  34
TORSDOF 14
ENDMDL
