MODEL 1
REMARK VINA RESULT:     -10.6      0.000      0.000
REMARK  5 active torsions:
REMARK  status: ('A' for Active; 'I' for Inactive)
REMARK    1  A    between atoms: C_2  and  C_3 
REMARK    2  A    between atoms: C_4  and  N_5 
REMARK    3  A    between atoms: N_5  and  C_6 
REMARK    4  A    between atoms: C_7  and  C_8 
REMARK    5  A    between atoms: C_11  and  C_12 
ROOT
HETATM    1  C   UNL     1       6.929  29.772  57.631  1.00  0.00     0.113 C 
HETATM    2  C   UNL     1       7.585  28.938  56.801  1.00  0.00     0.082 C 
HETATM    3  C   UNL     1       8.955  29.320  56.264  1.00  0.00     0.024 C 
HETATM    4  N   UNL     1      10.091  29.638  55.818  1.00  0.00    -0.096 N 
ENDROOT
BRANCH   2   5
HETATM    5  C   UNL     1       6.975  27.737  56.356  1.00  0.00     0.119 A 
HETATM    6  S   UNL     1       5.269  27.512  56.543  1.00  0.00    -0.078 SA
HETATM    7  C   UNL     1       5.391  25.965  55.818  1.00  0.00     0.084 A 
HETATM    8  C   UNL     1       6.703  25.701  55.478  1.00  0.00     0.075 A 
HETATM    9  N   UNL     1       7.592  26.721  55.782  1.00  0.00    -0.239 NA
BRANCH   8  10
HETATM   10  C   UNL     1       7.166  24.479  54.828  1.00  0.00    -0.005 A 
HETATM   11  C   UNL     1       7.216  23.287  55.567  1.00  0.00     0.039 A 
HETATM   12  C   UNL     1       7.652  22.095  54.979  1.00  0.00     0.056 A 
HETATM   13 CL   UNL     1       7.690  20.676  55.966  1.00  0.00    -0.083 Cl
HETATM   14  C   UNL     1       8.040  22.082  53.636  1.00  0.00     0.055 A 
HETATM   15 CL   UNL     1       8.588  20.650  52.840  1.00  0.00    -0.083 Cl
HETATM   16  C   UNL     1       7.985  23.261  52.890  1.00  0.00     0.026 A 
HETATM   17  C   UNL     1       7.551  24.452  53.481  1.00  0.00     0.015 A 
ENDBRANCH   8  10
ENDBRANCH   2   5
BRANCH   1  18
HETATM   18  N   UNL     1       7.357  30.969  58.158  1.00  0.00    -0.364 N 
HETATM   19  H   UNL     1       8.016  31.524  57.597  1.00  0.00     0.165 HD
BRANCH  18  20
HETATM   20  C   UNL     1       6.720  31.745  59.157  1.00  0.00     0.048 A 
HETATM   21  C   UNL     1       7.495  32.346  60.192  1.00  0.00     0.039 A 
HETATM   22  C   UNL     1       6.890  33.078  61.227  1.00  0.00     0.057 A 
HETATM   23  C   UNL     1       5.518  33.186  61.212  1.00  0.00     0.106 A 
HETATM   24  C   UNL     1       4.756  32.600  60.232  1.00  0.00     0.107 A 
HETATM   25  O   UNL     1       4.765  33.861  62.121  1.00  0.00    -0.323 OA
HETATM   26  C   UNL     1       5.320  31.870  59.207  1.00  0.00     0.070 A 
HETATM   27  O   UNL     1       3.427  32.834  60.399  1.00  0.00    -0.323 OA
HETATM   28  C   UNL     1       3.438  33.630  61.602  1.00  0.00     0.352 A 
BRANCH  21  29
HETATM   29  C   UNL     1       8.973  32.194  60.182  1.00  0.00     0.158 C 
HETATM   30  C   UNL     1       9.659  31.761  61.451  1.00  0.00     0.097 C 
HETATM   31  O   UNL     1       9.598  32.425  59.146  1.00  0.00    -0.293 OA
ENDBRANCH  21  29
ENDBRANCH  18  20
ENDBRANCH   1  18
TORSDOF 5
ENDMDL
MODEL 2
REMARK VINA RESULT:     -10.5      5.478     10.241
REMARK  5 active torsions:
REMARK  status: ('A' for Active; 'I' for Inactive)
REMARK    1  A    between atoms: C_2  and  C_3 
REMARK    2  A    between atoms: C_4  and  N_5 
REMARK    3  A    between atoms: N_5  and  C_6 
REMARK    4  A    between atoms: C_7  and  C_8 
REMARK    5  A    between atoms: C_11  and  C_12 
ROOT
HETATM    1  C   UNL     1       7.279  26.495  56.644  1.00  0.00     0.113 C 
HETATM    2  C   UNL     1       7.508  27.736  56.172  1.00  0.00     0.082 C 
HETATM    3  C   UNL     1       7.104  28.095  54.751  1.00  0.00     0.024 C 
HETATM    4  N   UNL     1       6.770  28.394  53.572  1.00  0.00    -0.096 N 
ENDROOT
BRANCH   2   5
HETATM    5  C   UNL     1       8.196  28.693  56.962  1.00  0.00     0.119 A 
HETATM    6  S   UNL     1       9.700  29.350  56.409  1.00  0.00    -0.078 SA
HETATM    7  C   UNL     1       9.804  30.307  57.825  1.00  0.00     0.084 A 
HETATM    8  C   UNL     1       8.709  30.081  58.634  1.00  0.00     0.075 A 
HETATM    9  N   UNL     1       7.798  29.167  58.126  1.00  0.00    -0.239 NA
BRANCH   8  10
HETATM   10  C   UNL     1       8.467  30.741  59.914  1.00  0.00    -0.005 A 
HETATM   11  C   UNL     1       7.408  31.655  60.024  1.00  0.00     0.039 A 
HETATM   12  C   UNL     1       7.144  32.306  61.234  1.00  0.00     0.056 A 
HETATM   13 CL   UNL     1       5.824  33.422  61.276  1.00  0.00    -0.083 Cl
HETATM   14  C   UNL     1       7.938  32.044  62.353  1.00  0.00     0.055 A 
HETATM   15 CL   UNL     1       7.673  32.807  63.880  1.00  0.00    -0.083 Cl
HETATM   16  C   UNL     1       8.990  31.131  62.256  1.00  0.00     0.026 A 
HETATM   17  C   UNL     1       9.253  30.482  61.044  1.00  0.00     0.015 A 
ENDBRANCH   8  10
ENDBRANCH   2   5
BRANCH   1  18
HETATM   18  N   UNL     1       6.638  25.447  56.025  1.00  0.00    -0.364 N 
HETATM   19  H   UNL     1       5.768  25.656  55.519  1.00  0.00     0.165 HD
BRANCH  18  20
HETATM   20  C   UNL     1       7.200  24.208  55.630  1.00  0.00     0.048 A 
HETATM   21  C   UNL     1       7.159  23.813  54.261  1.00  0.00     0.039 A 
HETATM   22  C   UNL     1       7.661  22.569  53.843  1.00  0.00     0.057 A 
HETATM   23  C   UNL     1       8.185  21.739  54.807  1.00  0.00     0.106 A 
HETATM   24  C   UNL     1       8.217  22.096  56.133  1.00  0.00     0.107 A 
HETATM   25  O   UNL     1       8.722  20.509  54.589  1.00  0.00    -0.323 OA
HETATM   26  C   UNL     1       7.727  23.308  56.574  1.00  0.00     0.070 A 
HETATM   27  O   UNL     1       8.781  21.138  56.915  1.00  0.00    -0.323 OA
HETATM   28  C   UNL     1       9.094  20.130  55.931  1.00  0.00     0.352 A 
BRANCH  21  29
HETATM   29  C   UNL     1       6.572  24.732  53.251  1.00  0.00     0.158 C 
HETATM   30  C   UNL     1       7.428  25.163  52.090  1.00  0.00     0.097 C 
HETATM   31  O   UNL     1       5.411  25.119  53.388  1.00  0.00    -0.293 OA
ENDBRANCH  21  29
ENDBRANCH  18  20
ENDBRANCH   1  18
TORSDOF 5
ENDMDL
MODEL 3
REMARK VINA RESULT:     -10.2      1.315      2.370
REMARK  5 active torsions:
REMARK  status: ('A' for Active; 'I' for Inactive)
REMARK    1  A    between atoms: C_2  and  C_3 
REMARK    2  A    between atoms: C_4  and  N_5 
REMARK    3  A    between atoms: N_5  and  C_6 
REMARK    4  A    between atoms: C_7  and  C_8 
REMARK    5  A    between atoms: C_11  and  C_12 
ROOT
HETATM    1  C   UNL     1       7.186  29.774  57.834  1.00  0.00     0.113 C 
HETATM    2  C   UNL     1       7.753  28.961  56.921  1.00  0.00     0.082 C 
HETATM    3  C   UNL     1       9.070  29.349  56.268  1.00  0.00     0.024 C 
HETATM    4  N   UNL     1      10.162  29.672  55.727  1.00  0.00    -0.096 N 
ENDROOT
BRANCH   2   5
HETATM    5  C   UNL     1       7.091  27.778  56.499  1.00  0.00     0.119 A 
HETATM    6  S   UNL     1       5.393  27.591  56.777  1.00  0.00    -0.078 SA
HETATM    7  C   UNL     1       5.439  26.048  56.034  1.00  0.00     0.084 A 
HETATM    8  C   UNL     1       6.723  25.758  55.621  1.00  0.00     0.075 A 
HETATM    9  N   UNL     1       7.652  26.754  55.885  1.00  0.00    -0.239 NA
BRANCH   8  10
HETATM   10  C   UNL     1       7.121  24.531  54.937  1.00  0.00    -0.005 A 
HETATM   11  C   UNL     1       7.273  23.351  55.680  1.00  0.00     0.039 A 
HETATM   12  C   UNL     1       7.652  22.155  55.059  1.00  0.00     0.056 A 
HETATM   13 CL   UNL     1       7.824  20.751  56.054  1.00  0.00    -0.083 Cl
HETATM   14  C   UNL     1       7.878  22.127  53.681  1.00  0.00     0.055 A 
HETATM   15 CL   UNL     1       8.346  20.690  52.844  1.00  0.00    -0.083 Cl
HETATM   16  C   UNL     1       7.721  23.295  52.931  1.00  0.00     0.026 A 
HETATM   17  C   UNL     1       7.345  24.490  53.554  1.00  0.00     0.015 A 
ENDBRANCH   8  10
ENDBRANCH   2   5
BRANCH   1  18
HETATM   18  N   UNL     1       7.675  30.950  58.353  1.00  0.00    -0.364 N 
HETATM   19  H   UNL     1       8.078  31.628  57.693  1.00  0.00     0.165 HD
BRANCH  18  20
HETATM   20  C   UNL     1       7.338  31.548  59.593  1.00  0.00     0.048 A 
HETATM   21  C   UNL     1       6.152  32.331  59.705  1.00  0.00     0.039 A 
HETATM   22  C   UNL     1       5.816  32.980  60.905  1.00  0.00     0.057 A 
HETATM   23  C   UNL     1       6.679  32.841  61.967  1.00  0.00     0.106 A 
HETATM   24  C   UNL     1       7.835  32.104  61.870  1.00  0.00     0.107 A 
HETATM   25  O   UNL     1       6.513  33.385  63.202  1.00  0.00    -0.323 OA
HETATM   26  C   UNL     1       8.194  31.461  60.705  1.00  0.00     0.070 A 
HETATM   27  O   UNL     1       8.539  32.090  63.033  1.00  0.00    -0.323 OA
HETATM   28  C   UNL     1       7.700  32.909  63.872  1.00  0.00     0.352 A 
BRANCH  21  29
HETATM   29  C   UNL     1       5.252  32.469  58.531  1.00  0.00     0.158 C 
HETATM   30  C   UNL     1       3.881  31.850  58.601  1.00  0.00     0.097 C 
HETATM   31  O   UNL     1       5.645  33.079  57.536  1.00  0.00    -0.293 OA
ENDBRANCH  21  29
ENDBRANCH  18  20
ENDBRANCH   1  18
TORSDOF 5
ENDMDL
MODEL 4
REMARK VINA RESULT:     -10.0      5.550      9.786
REMARK  5 active torsions:
REMARK  status: ('A' for Active; 'I' for Inactive)
REMARK    1  A    between atoms: C_2  and  C_3 
REMARK    2  A    between atoms: C_4  and  N_5 
REMARK    3  A    between atoms: N_5  and  C_6 
REMARK    4  A    between atoms: C_7  and  C_8 
REMARK    5  A    between atoms: C_11  and  C_12 
ROOT
HETATM    1  C   UNL     1       6.610  27.441  56.007  1.00  0.00     0.113 C 
HETATM    2  C   UNL     1       7.695  27.328  56.797  1.00  0.00     0.082 C 
HETATM    3  C   UNL     1       8.274  25.956  57.103  1.00  0.00     0.024 C 
HETATM    4  N   UNL     1       8.755  24.818  57.357  1.00  0.00    -0.096 N 
ENDROOT
BRANCH   2   5
HETATM    5  C   UNL     1       8.259  28.473  57.416  1.00  0.00     0.119 A 
HETATM    6  S   UNL     1       9.511  29.361  56.616  1.00  0.00    -0.078 SA
HETATM    7  C   UNL     1       9.586  30.450  57.935  1.00  0.00     0.084 A 
HETATM    8  C   UNL     1       8.671  30.088  58.903  1.00  0.00     0.075 A 
HETATM    9  N   UNL     1       7.917  28.966  58.591  1.00  0.00    -0.239 NA
BRANCH   8  10
HETATM   10  C   UNL     1       8.455  30.805  60.156  1.00  0.00    -0.005 A 
HETATM   11  C   UNL     1       7.433  31.763  60.231  1.00  0.00     0.039 A 
HETATM   12  C   UNL     1       7.195  32.470  61.415  1.00  0.00     0.056 A 
HETATM   13 CL   UNL     1       5.921  33.638  61.413  1.00  0.00    -0.083 Cl
HETATM   14  C   UNL     1       7.978  32.219  62.545  1.00  0.00     0.055 A 
HETATM   15 CL   UNL     1       7.744  33.049  64.041  1.00  0.00    -0.083 Cl
HETATM   16  C   UNL     1       8.993  31.261  62.484  1.00  0.00     0.026 A 
HETATM   17  C   UNL     1       9.230  30.558  61.297  1.00  0.00     0.015 A 
ENDBRANCH   8  10
ENDBRANCH   2   5
BRANCH   1  18
HETATM   18  N   UNL     1       5.933  26.450  55.334  1.00  0.00    -0.364 N 
HETATM   19  H   UNL     1       5.306  25.848  55.882  1.00  0.00     0.165 HD
BRANCH  18  20
HETATM   20  C   UNL     1       5.651  26.391  53.946  1.00  0.00     0.048 A 
HETATM   21  C   UNL     1       6.142  25.304  53.166  1.00  0.00     0.039 A 
HETATM   22  C   UNL     1       5.925  25.241  51.780  1.00  0.00     0.057 A 
HETATM   23  C   UNL     1       5.229  26.276  51.198  1.00  0.00     0.106 A 
HETATM   24  C   UNL     1       4.764  27.340  51.932  1.00  0.00     0.107 A 
HETATM   25  O   UNL     1       4.917  26.380  49.879  1.00  0.00    -0.323 OA
HETATM   26  C   UNL     1       4.966  27.431  53.293  1.00  0.00     0.070 A 
HETATM   27  O   UNL     1       4.098  28.246  51.167  1.00  0.00    -0.323 OA
HETATM   28  C   UNL     1       4.204  27.635  49.865  1.00  0.00     0.352 A 
BRANCH  21  29
HETATM   29  C   UNL     1       6.902  24.212  53.830  1.00  0.00     0.158 C 
HETATM   30  C   UNL     1       8.148  23.696  53.159  1.00  0.00     0.097 C 
HETATM   31  O   UNL     1       6.499  23.758  54.901  1.00  0.00    -0.293 OA
ENDBRANCH  21  29
ENDBRANCH  18  20
ENDBRANCH   1  18
TORSDOF 5
ENDMDL
MODEL 5
REMARK VINA RESULT:      -9.7      2.115      3.586
REMARK  5 active torsions:
REMARK  status: ('A' for Active; 'I' for Inactive)
REMARK    1  A    between atoms: C_2  and  C_3 
REMARK    2  A    between atoms: C_4  and  N_5 
REMARK    3  A    between atoms: N_5  and  C_6 
REMARK    4  A    between atoms: C_7  and  C_8 
REMARK    5  A    between atoms: C_11  and  C_12 
ROOT
HETATM    1  C   UNL     1       6.767  29.093  55.896  1.00  0.00     0.113 C 
HETATM    2  C   UNL     1       5.812  28.610  55.077  1.00  0.00     0.082 C 
HETATM    3  C   UNL     1       4.624  29.480  54.697  1.00  0.00     0.024 C 
HETATM    4  N   UNL     1       3.639  30.201  54.381  1.00  0.00    -0.096 N 
ENDROOT
BRANCH   2   5
HETATM    5  C   UNL     1       5.859  27.265  54.627  1.00  0.00     0.119 A 
HETATM    6  S   UNL     1       4.884  26.766  53.287  1.00  0.00    -0.078 SA
HETATM    7  C   UNL     1       5.504  25.175  53.425  1.00  0.00     0.084 A 
HETATM    8  C   UNL     1       6.405  25.105  54.468  1.00  0.00     0.075 A 
HETATM    9  N   UNL     1       6.604  26.303  55.138  1.00  0.00    -0.239 NA
BRANCH   8  10
HETATM   10  C   UNL     1       7.135  23.903  54.859  1.00  0.00    -0.005 A 
HETATM   11  C   UNL     1       7.373  22.904  53.903  1.00  0.00     0.039 A 
HETATM   12  C   UNL     1       8.070  21.739  54.239  1.00  0.00     0.056 A 
HETATM   13 CL   UNL     1       8.309  20.557  53.000  1.00  0.00    -0.083 Cl
HETATM   14  C   UNL     1       8.544  21.562  55.542  1.00  0.00     0.055 A 
HETATM   15 CL   UNL     1       9.413  20.152  56.032  1.00  0.00    -0.083 Cl
HETATM   16  C   UNL     1       8.319  22.554  56.500  1.00  0.00     0.026 A 
HETATM   17  C   UNL     1       7.620  23.718  56.161  1.00  0.00     0.015 A 
ENDBRANCH   8  10
ENDBRANCH   2   5
BRANCH   1  18
HETATM   18  N   UNL     1       6.880  30.356  56.429  1.00  0.00    -0.364 N 
HETATM   19  H   UNL     1       6.506  31.138  55.876  1.00  0.00     0.165 HD
BRANCH  18  20
HETATM   20  C   UNL     1       7.058  30.701  57.791  1.00  0.00     0.048 A 
HETATM   21  C   UNL     1       6.221  31.687  58.390  1.00  0.00     0.039 A 
HETATM   22  C   UNL     1       6.403  32.090  59.723  1.00  0.00     0.057 A 
HETATM   23  C   UNL     1       7.429  31.505  60.430  1.00  0.00     0.106 A 
HETATM   24  C   UNL     1       8.256  30.565  59.863  1.00  0.00     0.107 A 
HETATM   25  O   UNL     1       7.747  31.761  61.726  1.00  0.00    -0.323 OA
HETATM   26  C   UNL     1       8.104  30.154  58.555  1.00  0.00     0.070 A 
HETATM   27  O   UNL     1       9.196  30.110  60.733  1.00  0.00    -0.323 OA
HETATM   28  C   UNL     1       8.873  30.877  61.911  1.00  0.00     0.352 A 
BRANCH  21  29
HETATM   29  C   UNL     1       5.132  32.307  57.589  1.00  0.00     0.158 C 
HETATM   30  C   UNL     1       3.733  31.773  57.747  1.00  0.00     0.097 C 
HETATM   31  O   UNL     1       5.398  33.232  56.822  1.00  0.00    -0.293 OA
ENDBRANCH  21  29
ENDBRANCH  18  20
ENDBRANCH   1  18
TORSDOF 5
ENDMDL
MODEL 6
REMARK VINA RESULT:      -9.6      5.661     10.273
REMARK  5 active torsions:
REMARK  status: ('A' for Active; 'I' for Inactive)
REMARK    1  A    between atoms: C_2  and  C_3 
REMARK    2  A    between atoms: C_4  and  N_5 
REMARK    3  A    between atoms: N_5  and  C_6 
REMARK    4  A    between atoms: C_7  and  C_8 
REMARK    5  A    between atoms: C_11  and  C_12 
ROOT
HETATM    1  C   UNL     1       7.646  27.423  55.869  1.00  0.00     0.113 C 
HETATM    2  C   UNL     1       6.994  28.548  56.224  1.00  0.00     0.082 C 
HETATM    3  C   UNL     1       5.717  28.948  55.503  1.00  0.00     0.024 C 
HETATM    4  N   UNL     1       4.657  29.280  54.904  1.00  0.00    -0.096 N 
ENDROOT
BRANCH   2   5
HETATM    5  C   UNL     1       7.531  29.410  57.215  1.00  0.00     0.119 A 
HETATM    6  S   UNL     1       9.246  29.574  57.381  1.00  0.00    -0.078 SA
HETATM    7  C   UNL     1       9.018  30.680  58.669  1.00  0.00     0.084 A 
HETATM    8  C   UNL     1       7.670  30.863  58.905  1.00  0.00     0.075 A 
HETATM    9  N   UNL     1       6.836  30.141  58.065  1.00  0.00    -0.239 NA
BRANCH   8  10
HETATM   10  C   UNL     1       7.115  31.751  59.923  1.00  0.00    -0.005 A 
HETATM   11  C   UNL     1       7.766  31.864  61.161  1.00  0.00     0.039 A 
HETATM   12  C   UNL     1       7.266  32.705  62.161  1.00  0.00     0.056 A 
HETATM   13 CL   UNL     1       8.127  32.776  63.658  1.00  0.00    -0.083 Cl
HETATM   14  C   UNL     1       6.106  33.450  61.929  1.00  0.00     0.055 A 
HETATM   15 CL   UNL     1       5.430  34.510  63.113  1.00  0.00    -0.083 Cl
HETATM   16  C   UNL     1       5.456  33.350  60.697  1.00  0.00     0.026 A 
HETATM   17  C   UNL     1       5.957  32.506  59.700  1.00  0.00     0.015 A 
ENDBRANCH   8  10
ENDBRANCH   2   5
BRANCH   1  18
HETATM   18  N   UNL     1       7.281  26.481  54.935  1.00  0.00    -0.364 N 
HETATM   19  H   UNL     1       7.136  26.801  53.969  1.00  0.00     0.165 HD
BRANCH  18  20
HETATM   20  C   UNL     1       7.474  25.079  55.009  1.00  0.00     0.048 A 
HETATM   21  C   UNL     1       7.139  24.255  53.894  1.00  0.00     0.039 A 
HETATM   22  C   UNL     1       7.269  22.858  53.952  1.00  0.00     0.057 A 
HETATM   23  C   UNL     1       7.723  22.310  55.130  1.00  0.00     0.106 A 
HETATM   24  C   UNL     1       8.034  23.087  56.219  1.00  0.00     0.107 A 
HETATM   25  O   UNL     1       7.920  20.985  55.365  1.00  0.00    -0.323 OA
HETATM   26  C   UNL     1       7.912  24.460  56.194  1.00  0.00     0.070 A 
HETATM   27  O   UNL     1       8.469  22.349  57.275  1.00  0.00    -0.323 OA
HETATM   28  C   UNL     1       8.389  21.016  56.729  1.00  0.00     0.352 A 
BRANCH  21  29
HETATM   29  C   UNL     1       6.638  24.885  52.644  1.00  0.00     0.158 C 
HETATM   30  C   UNL     1       5.158  24.849  52.367  1.00  0.00     0.097 C 
HETATM   31  O   UNL     1       7.437  25.413  51.871  1.00  0.00    -0.293 OA
ENDBRANCH  21  29
ENDBRANCH  18  20
ENDBRANCH   1  18
TORSDOF 5
ENDMDL
MODEL 7
REMARK VINA RESULT:      -9.3      5.410     10.042
REMARK  5 active torsions:
REMARK  status: ('A' for Active; 'I' for Inactive)
REMARK    1  A    between atoms: C_2  and  C_3 
REMARK    2  A    between atoms: C_4  and  N_5 
REMARK    3  A    between atoms: N_5  and  C_6 
REMARK    4  A    between atoms: C_7  and  C_8 
REMARK    5  A    between atoms: C_11  and  C_12 
ROOT
HETATM    1  C   UNL     1       7.849  27.296  55.369  1.00  0.00     0.113 C 
HETATM    2  C   UNL     1       7.361  28.443  55.880  1.00  0.00     0.082 C 
HETATM    3  C   UNL     1       5.998  28.953  55.440  1.00  0.00     0.024 C 
HETATM    4  N   UNL     1       4.867  29.377  55.075  1.00  0.00    -0.096 N 
ENDROOT
BRANCH   2   5
HETATM    5  C   UNL     1       8.142  29.227  56.769  1.00  0.00     0.119 A 
HETATM    6  S   UNL     1       9.766  29.652  56.348  1.00  0.00    -0.078 SA
HETATM    7  C   UNL     1       9.930  30.499  57.827  1.00  0.00     0.084 A 
HETATM    8  C   UNL     1       8.761  30.415  58.555  1.00  0.00     0.075 A 
HETATM    9  N   UNL     1       7.749  29.695  57.938  1.00  0.00    -0.239 NA
BRANCH   8  10
HETATM   10  C   UNL     1       8.545  31.034  59.860  1.00  0.00    -0.005 A 
HETATM   11  C   UNL     1       7.462  31.910  60.031  1.00  0.00     0.039 A 
HETATM   12  C   UNL     1       7.222  32.522  61.266  1.00  0.00     0.056 A 
HETATM   13 CL   UNL     1       5.871  33.594  61.385  1.00  0.00    -0.083 Cl
HETATM   14  C   UNL     1       8.063  32.257  62.350  1.00  0.00     0.055 A 
HETATM   15 CL   UNL     1       7.830  32.972  63.905  1.00  0.00    -0.083 Cl
HETATM   16  C   UNL     1       9.139  31.381  62.192  1.00  0.00     0.026 A 
HETATM   17  C   UNL     1       9.378  30.772  60.955  1.00  0.00     0.015 A 
ENDBRANCH   8  10
ENDBRANCH   2   5
BRANCH   1  18
HETATM   18  N   UNL     1       7.243  26.420  54.499  1.00  0.00    -0.364 N 
HETATM   19  H   UNL     1       6.938  26.789  53.589  1.00  0.00     0.165 HD
BRANCH  18  20
HETATM   20  C   UNL     1       7.342  25.006  54.496  1.00  0.00     0.048 A 
HETATM   21  C   UNL     1       7.097  24.273  55.693  1.00  0.00     0.039 A 
HETATM   22  C   UNL     1       7.238  22.876  55.738  1.00  0.00     0.057 A 
HETATM   23  C   UNL     1       7.631  22.240  54.583  1.00  0.00     0.106 A 
HETATM   24  C   UNL     1       7.887  22.932  53.425  1.00  0.00     0.107 A 
HETATM   25  O   UNL     1       7.808  20.900  54.435  1.00  0.00    -0.323 OA
HETATM   26  C   UNL     1       7.763  24.304  53.352  1.00  0.00     0.070 A 
HETATM   27  O   UNL     1       8.255  22.115  52.402  1.00  0.00    -0.323 OA
HETATM   28  C   UNL     1       8.208  20.827  53.050  1.00  0.00     0.352 A 
BRANCH  21  29
HETATM   29  C   UNL     1       6.688  24.998  56.925  1.00  0.00     0.158 C 
HETATM   30  C   UNL     1       7.736  25.289  57.967  1.00  0.00     0.097 C 
HETATM   31  O   UNL     1       5.513  25.340  57.064  1.00  0.00    -0.293 OA
ENDBRANCH  21  29
ENDBRANCH  18  20
ENDBRANCH   1  18
TORSDOF 5
ENDMDL
MODEL 8
REMARK VINA RESULT:      -9.1      2.122      3.174
REMARK  5 active torsions:
REMARK  status: ('A' for Active; 'I' for Inactive)
REMARK    1  A    between atoms: C_2  and  C_3 
REMARK    2  A    between atoms: C_4  and  N_5 
REMARK    3  A    between atoms: N_5  and  C_6 
REMARK    4  A    between atoms: C_7  and  C_8 
REMARK    5  A    between atoms: C_11  and  C_12 
ROOT
HETATM    1  C   UNL     1       6.236  31.395  58.900  1.00  0.00     0.113 C 
HETATM    2  C   UNL     1       5.664  31.270  57.686  1.00  0.00     0.082 C 
HETATM    3  C   UNL     1       5.171  32.503  56.947  1.00  0.00     0.024 C 
HETATM    4  N   UNL     1       4.761  33.526  56.333  1.00  0.00    -0.096 N 
ENDROOT
BRANCH   2   5
HETATM    5  C   UNL     1       5.443  29.987  57.122  1.00  0.00     0.119 A 
HETATM    6  S   UNL     1       3.928  29.623  56.368  1.00  0.00    -0.078 SA
HETATM    7  C   UNL     1       4.482  28.041  56.013  1.00  0.00     0.084 A 
HETATM    8  C   UNL     1       5.770  27.873  56.480  1.00  0.00     0.075 A 
HETATM    9  N   UNL     1       6.307  28.990  57.101  1.00  0.00    -0.239 NA
BRANCH   8  10
HETATM   10  C   UNL     1       6.555  26.651  56.336  1.00  0.00    -0.005 A 
HETATM   11  C   UNL     1       6.408  25.875  55.176  1.00  0.00     0.039 A 
HETATM   12  C   UNL     1       7.144  24.698  55.001  1.00  0.00     0.056 A 
HETATM   13 CL   UNL     1       6.893  23.800  53.545  1.00  0.00    -0.083 Cl
HETATM   14  C   UNL     1       8.044  24.286  55.987  1.00  0.00     0.055 A 
HETATM   15 CL   UNL     1       8.989  22.847  55.842  1.00  0.00    -0.083 Cl
HETATM   16  C   UNL     1       8.204  25.056  57.142  1.00  0.00     0.026 A 
HETATM   17  C   UNL     1       7.464  26.231  57.315  1.00  0.00     0.015 A 
ENDBRANCH   8  10
ENDBRANCH   2   5
BRANCH   1  18
HETATM   18  N   UNL     1       6.522  32.545  59.597  1.00  0.00    -0.364 N 
HETATM   19  H   UNL     1       6.461  33.436  59.088  1.00  0.00     0.165 HD
BRANCH  18  20
HETATM   20  C   UNL     1       6.485  32.730  61.002  1.00  0.00     0.048 A 
HETATM   21  C   UNL     1       7.645  32.457  61.785  1.00  0.00     0.039 A 
HETATM   22  C   UNL     1       7.627  32.580  63.184  1.00  0.00     0.057 A 
HETATM   23  C   UNL     1       6.445  32.965  63.775  1.00  0.00     0.106 A 
HETATM   24  C   UNL     1       5.315  33.215  63.036  1.00  0.00     0.107 A 
HETATM   25  O   UNL     1       6.245  33.145  65.107  1.00  0.00    -0.323 OA
HETATM   26  C   UNL     1       5.299  33.098  61.662  1.00  0.00     0.070 A 
HETATM   27  O   UNL     1       4.261  33.588  63.811  1.00  0.00    -0.323 OA
HETATM   28  C   UNL     1       4.856  33.536  65.125  1.00  0.00     0.352 A 
BRANCH  21  29
HETATM   29  C   UNL     1       8.899  32.029  61.112  1.00  0.00     0.158 C 
HETATM   30  C   UNL     1       9.557  30.753  61.565  1.00  0.00     0.097 C 
HETATM   31  O   UNL     1       9.367  32.723  60.209  1.00  0.00    -0.293 OA
ENDBRANCH  21  29
ENDBRANCH  18  20
ENDBRANCH   1  18
TORSDOF 5
ENDMDL
MODEL 9
REMARK VINA RESULT:      -9.0      6.315      9.476
REMARK  5 active torsions:
REMARK  status: ('A' for Active; 'I' for Inactive)
REMARK    1  A    between atoms: C_2  and  C_3 
REMARK    2  A    between atoms: C_4  and  N_5 
REMARK    3  A    between atoms: N_5  and  C_6 
REMARK    4  A    between atoms: C_7  and  C_8 
REMARK    5  A    between atoms: C_11  and  C_12 
ROOT
HETATM    1  C   UNL     1       6.512  26.950  53.078  1.00  0.00     0.113 C 
HETATM    2  C   UNL     1       5.865  28.064  53.471  1.00  0.00     0.082 C 
HETATM    3  C   UNL     1       6.143  28.664  54.839  1.00  0.00     0.024 C 
HETATM    4  N   UNL     1       6.375  29.162  55.975  1.00  0.00    -0.096 N 
ENDROOT
BRANCH   2   5
HETATM    5  C   UNL     1       4.862  28.642  52.650  1.00  0.00     0.119 A 
HETATM    6  S   UNL     1       4.231  30.209  53.030  1.00  0.00    -0.078 SA
HETATM    7  C   UNL     1       3.191  30.122  51.672  1.00  0.00     0.084 A 
HETATM    8  C   UNL     1       3.372  28.924  51.011  1.00  0.00     0.075 A 
HETATM    9  N   UNL     1       4.331  28.096  51.573  1.00  0.00    -0.239 NA
BRANCH   8  10
HETATM   10  C   UNL     1       2.658  28.524  49.802  1.00  0.00    -0.005 A 
HETATM   11  C   UNL     1       3.031  27.341  49.146  1.00  0.00     0.039 A 
HETATM   12  C   UNL     1       2.371  26.923  47.986  1.00  0.00     0.056 A 
HETATM   13 CL   UNL     1       2.903  25.457  47.239  1.00  0.00    -0.083 Cl
HETATM   14  C   UNL     1       1.319  27.685  47.470  1.00  0.00     0.055 A 
HETATM   15 CL   UNL     1       0.455  27.234  46.045  1.00  0.00    -0.083 Cl
HETATM   16  C   UNL     1       0.934  28.860  48.120  1.00  0.00     0.026 A 
HETATM   17  C   UNL     1       1.599  29.277  49.279  1.00  0.00     0.015 A 
ENDBRANCH   8  10
ENDBRANCH   2   5
BRANCH   1  18
HETATM   18  N   UNL     1       7.500  26.255  53.737  1.00  0.00    -0.364 N 
HETATM   19  H   UNL     1       8.126  26.791  54.352  1.00  0.00     0.165 HD
BRANCH  18  20
HETATM   20  C   UNL     1       7.532  24.868  54.021  1.00  0.00     0.048 A 
HETATM   21  C   UNL     1       7.298  24.408  55.350  1.00  0.00     0.039 A 
HETATM   22  C   UNL     1       7.374  23.044  55.676  1.00  0.00     0.057 A 
HETATM   23  C   UNL     1       7.693  22.165  54.666  1.00  0.00     0.106 A 
HETATM   24  C   UNL     1       7.938  22.593  53.384  1.00  0.00     0.107 A 
HETATM   25  O   UNL     1       7.801  20.816  54.792  1.00  0.00    -0.323 OA
HETATM   26  C   UNL     1       7.877  23.926  53.035  1.00  0.00     0.070 A 
HETATM   27  O   UNL     1       8.228  21.566  52.542  1.00  0.00    -0.323 OA
HETATM   28  C   UNL     1       8.145  20.442  53.442  1.00  0.00     0.352 A 
BRANCH  21  29
HETATM   29  C   UNL     1       6.970  25.390  56.417  1.00  0.00     0.158 C 
HETATM   30  C   UNL     1       5.560  25.431  56.945  1.00  0.00     0.097 C 
HETATM   31  O   UNL     1       7.849  26.142  56.838  1.00  0.00    -0.293 OA
ENDBRANCH  21  29
ENDBRANCH  18  20
ENDBRANCH   1  18
TORSDOF 5
ENDMDL
MODEL 10
REMARK VINA RESULT:      -8.9      2.036      3.252
REMARK  5 active torsions:
REMARK  status: ('A' for Active; 'I' for Inactive)
REMARK    1  A    between atoms: C_2  and  C_3 
REMARK    2  A    between atoms: C_4  and  N_5 
REMARK    3  A    between atoms: N_5  and  C_6 
REMARK    4  A    between atoms: C_7  and  C_8 
REMARK    5  A    between atoms: C_11  and  C_12 
ROOT
HETATM    1  C   UNL     1       5.994  31.114  58.235  1.00  0.00     0.113 C 
HETATM    2  C   UNL     1       6.925  30.172  57.989  1.00  0.00     0.082 C 
HETATM    3  C   UNL     1       8.365  30.392  58.425  1.00  0.00     0.024 C 
HETATM    4  N   UNL     1       9.559  30.575  58.787  1.00  0.00    -0.096 N 
ENDROOT
BRANCH   2   5
HETATM    5  C   UNL     1       6.594  29.006  57.251  1.00  0.00     0.119 A 
HETATM    6  S   UNL     1       5.046  28.877  56.486  1.00  0.00    -0.078 SA
HETATM    7  C   UNL     1       5.465  27.324  55.896  1.00  0.00     0.084 A 
HETATM    8  C   UNL     1       6.739  26.988  56.306  1.00  0.00     0.075 A 
HETATM    9  N   UNL     1       7.373  27.957  57.069  1.00  0.00    -0.239 NA
BRANCH   8  10
HETATM   10  C   UNL     1       7.420  25.741  55.971  1.00  0.00    -0.005 A 
HETATM   11  C   UNL     1       7.366  25.263  54.652  1.00  0.00     0.039 A 
HETATM   12  C   UNL     1       8.006  24.073  54.292  1.00  0.00     0.056 A 
HETATM   13 CL   UNL     1       7.879  23.555  52.647  1.00  0.00    -0.083 Cl
HETATM   14  C   UNL     1       8.717  23.347  55.251  1.00  0.00     0.055 A 
HETATM   15 CL   UNL     1       9.535  21.871  54.883  1.00  0.00    -0.083 Cl
HETATM   16  C   UNL     1       8.784  23.817  56.565  1.00  0.00     0.026 A 
HETATM   17  C   UNL     1       8.140  25.007  56.922  1.00  0.00     0.015 A 
ENDBRANCH   8  10
ENDBRANCH   2   5
BRANCH   1  18
HETATM   18  N   UNL     1       6.134  32.297  58.923  1.00  0.00    -0.364 N 
HETATM   19  H   UNL     1       6.392  33.132  58.382  1.00  0.00     0.165 HD
BRANCH  18  20
HETATM   20  C   UNL     1       5.579  32.629  60.184  1.00  0.00     0.048 A 
HETATM   21  C   UNL     1       4.314  33.281  60.255  1.00  0.00     0.039 A 
HETATM   22  C   UNL     1       3.760  33.671  61.485  1.00  0.00     0.057 A 
HETATM   23  C   UNL     1       4.489  33.409  62.623  1.00  0.00     0.106 A 
HETATM   24  C   UNL     1       5.717  32.796  62.571  1.00  0.00     0.107 A 
HETATM   25  O   UNL     1       4.109  33.703  63.894  1.00  0.00    -0.323 OA
HETATM   26  C   UNL     1       6.289  32.407  61.378  1.00  0.00     0.070 A 
HETATM   27  O   UNL     1       6.263  32.625  63.804  1.00  0.00    -0.323 OA
HETATM   28  C   UNL     1       5.242  33.207  64.640  1.00  0.00     0.352 A 
BRANCH  21  29
HETATM   29  C   UNL     1       3.563  33.560  59.003  1.00  0.00     0.158 C 
HETATM   30  C   UNL     1       3.587  34.961  58.449  1.00  0.00     0.097 C 
HETATM   31  O   UNL     1       2.944  32.649  58.453  1.00  0.00    -0.293 OA
ENDBRANCH  21  29
ENDBRANCH  18  20
ENDBRANCH   1  18
TORSDOF 5
ENDMDL
