MODEL 1
REMARK VINA RESULT:     -10.7      0.000      0.000
REMARK  3 active torsions:
REMARK  status: ('A' for Active; 'I' for Inactive)
REMARK    1  A    between atoms: C_2  and  C_3 
REMARK    2  A    between atoms: C_6  and  N_7 
REMARK    3  A    between atoms: C_14  and  C_15 
REMARK       I    between atoms: C_15  and  N_16 
ROOT
HETATM    1  N   UNL     1       6.847  27.263  56.898  1.00  0.00    -0.252 N 
HETATM    2  C   UNL     1       5.719  26.792  56.256  1.00  0.00     0.238 C 
HETATM    3  O   UNL     1       4.627  27.314  56.080  1.00  0.00    -0.272 OA
HETATM    4  C   UNL     1       6.050  25.501  55.565  1.00  0.00     0.135 C 
HETATM    5  C   UNL     1       7.321  25.078  56.256  1.00  0.00     0.130 C 
HETATM    6  C   UNL     1       7.892  26.376  56.738  1.00  0.00     0.238 C 
HETATM    7  O   UNL     1       9.090  26.507  56.923  1.00  0.00    -0.272 OA
HETATM    8  C   UNL     1       6.381  25.673  54.089  1.00  0.00     0.298 C 
HETATM    9  N   UNL     1       7.779  25.032  53.921  1.00  0.00    -0.028 N 
HETATM   10  H   UNL     1       8.420  25.842  53.767  1.00  0.00     0.287 HD
HETATM   11  C   UNL     1       8.210  24.387  55.229  1.00  0.00     0.242 C 
HETATM   12  C   UNL     1       7.851  24.224  52.742  1.00  0.00     0.203 C 
HETATM   13  C   UNL     1       7.860  22.890  52.819  1.00  0.00     0.037 C 
HETATM   14  C   UNL     1       7.890  22.169  54.084  1.00  0.00    -0.026 A 
HETATM   15  C   UNL     1       8.077  22.882  55.276  1.00  0.00    -0.016 A 
HETATM   16  C   UNL     1       7.810  20.771  54.104  1.00  0.00     0.012 A 
HETATM   17  C   UNL     1       7.934  20.077  55.306  1.00  0.00     0.001 A 
HETATM   18  C   UNL     1       8.157  20.773  56.490  1.00  0.00     0.001 A 
HETATM   19  C   UNL     1       8.240  22.166  56.475  1.00  0.00     0.010 A 
ENDROOT
BRANCH   1  20
HETATM   20  C   UNL     1       6.946  28.534  57.553  1.00  0.00     0.045 A 
HETATM   21  C   UNL     1       5.924  29.496  57.458  1.00  0.00     0.031 A 
HETATM   22  C   UNL     1       6.000  30.729  58.130  1.00  0.00     0.017 A 
HETATM   23  C   UNL     1       7.110  31.031  58.917  1.00  0.00     0.009 A 
HETATM   24  C   UNL     1       8.143  30.100  59.010  1.00  0.00     0.017 A 
HETATM   25  C   UNL     1       8.055  28.868  58.346  1.00  0.00     0.031 A 
BRANCH  23  26
HETATM   26  C   UNL     1       7.243  32.314  59.661  1.00  0.00     0.155 C 
HETATM   27  C   UNL     1       6.014  32.952  60.249  1.00  0.00     0.096 C 
HETATM   28  O   UNL     1       8.354  32.825  59.780  1.00  0.00    -0.293 OA
ENDBRANCH  23  26
ENDBRANCH   1  20
BRANCH   8  29
HETATM   29  C   UNL     1       6.472  27.119  53.563  1.00  0.00     0.248 C 
HETATM   30  N   UNL     1       5.353  27.720  53.093  1.00  0.00    -0.368 N 
HETATM   31  H   UNL     1       4.420  27.474  53.423  1.00  0.00     0.159 HD
HETATM   32  H   UNL     1       5.443  28.696  52.814  1.00  0.00     0.159 HD
HETATM   33  O   UNL     1       7.567  27.683  53.569  1.00  0.00    -0.271 OA
ENDBRANCH   8  29
TORSDOF 3
ENDMDL
MODEL 2
REMARK VINA RESULT:     -10.6      4.227      7.418
REMARK  3 active torsions:
REMARK  status: ('A' for Active; 'I' for Inactive)
REMARK    1  A    between atoms: C_2  and  C_3 
REMARK    2  A    between atoms: C_6  and  N_7 
REMARK    3  A    between atoms: C_14  and  C_15 
REMARK       I    between atoms: C_15  and  N_16 
ROOT
HETATM    1  N   UNL     1       5.185  27.018  50.946  1.00  0.00    -0.252 N 
HETATM    2  C   UNL     1       6.054  27.748  51.732  1.00  0.00     0.238 C 
HETATM    3  O   UNL     1       6.314  28.943  51.732  1.00  0.00    -0.272 OA
HETATM    4  C   UNL     1       6.583  26.869  52.827  1.00  0.00     0.135 C 
HETATM    5  C   UNL     1       6.285  25.486  52.307  1.00  0.00     0.130 C 
HETATM    6  C   UNL     1       5.123  25.713  51.390  1.00  0.00     0.238 C 
HETATM    7  O   UNL     1       4.326  24.821  51.150  1.00  0.00    -0.272 OA
HETATM    8  C   UNL     1       5.831  27.023  54.142  1.00  0.00     0.298 C 
HETATM    9  N   UNL     1       5.367  25.591  54.501  1.00  0.00    -0.028 N 
HETATM   10  H   UNL     1       4.334  25.606  54.348  1.00  0.00     0.287 HD
HETATM   11  C   UNL     1       5.933  24.599  53.496  1.00  0.00     0.242 C 
HETATM   12  C   UNL     1       5.572  25.301  55.887  1.00  0.00     0.203 C 
HETATM   13  C   UNL     1       6.553  24.486  56.285  1.00  0.00     0.037 C 
HETATM   14  C   UNL     1       7.415  23.769  55.354  1.00  0.00    -0.026 A 
HETATM   15  C   UNL     1       7.119  23.798  53.985  1.00  0.00    -0.016 A 
HETATM   16  C   UNL     1       8.481  22.997  55.829  1.00  0.00     0.012 A 
HETATM   17  C   UNL     1       9.247  22.237  54.946  1.00  0.00     0.001 A 
HETATM   18  C   UNL     1       8.938  22.229  53.589  1.00  0.00     0.001 A 
HETATM   19  C   UNL     1       7.875  22.996  53.112  1.00  0.00     0.010 A 
ENDROOT
BRANCH   1  20
HETATM   20  C   UNL     1       4.390  27.559  49.883  1.00  0.00     0.045 A 
HETATM   21  C   UNL     1       4.610  27.202  48.540  1.00  0.00     0.031 A 
HETATM   22  C   UNL     1       3.808  27.701  47.499  1.00  0.00     0.017 A 
HETATM   23  C   UNL     1       2.761  28.577  47.777  1.00  0.00     0.009 A 
HETATM   24  C   UNL     1       2.537  28.960  49.099  1.00  0.00     0.017 A 
HETATM   25  C   UNL     1       3.333  28.449  50.134  1.00  0.00     0.031 A 
BRANCH  23  26
HETATM   26  C   UNL     1       1.871  29.130  46.720  1.00  0.00     0.155 C 
HETATM   27  C   UNL     1       0.593  28.408  46.385  1.00  0.00     0.096 C 
HETATM   28  O   UNL     1       2.198  30.164  46.142  1.00  0.00    -0.293 OA
ENDBRANCH  23  26
ENDBRANCH   1  20
BRANCH   8  29
HETATM   29  C   UNL     1       4.579  27.921  54.124  1.00  0.00     0.248 C 
HETATM   30  N   UNL     1       3.435  27.443  53.580  1.00  0.00    -0.368 N 
HETATM   31  H   UNL     1       3.212  26.448  53.561  1.00  0.00     0.159 HD
HETATM   32  H   UNL     1       2.614  28.043  53.645  1.00  0.00     0.159 HD
HETATM   33  O   UNL     1       4.660  29.058  54.590  1.00  0.00    -0.271 OA
ENDBRANCH   8  29
TORSDOF 3
ENDMDL
MODEL 3
REMARK VINA RESULT:     -10.5      1.961      8.029
REMARK  3 active torsions:
REMARK  status: ('A' for Active; 'I' for Inactive)
REMARK    1  A    between atoms: C_2  and  C_3 
REMARK    2  A    between atoms: C_6  and  N_7 
REMARK    3  A    between atoms: C_14  and  C_15 
REMARK       I    between atoms: C_15  and  N_16 
ROOT
HETATM    1  N   UNL     1       7.856  26.130  55.783  1.00  0.00    -0.252 N 
HETATM    2  C   UNL     1       7.717  27.208  54.933  1.00  0.00     0.238 C 
HETATM    3  O   UNL     1       7.633  27.254  53.714  1.00  0.00    -0.272 OA
HETATM    4  C   UNL     1       7.477  28.447  55.746  1.00  0.00     0.135 C 
HETATM    5  C   UNL     1       7.947  28.033  57.117  1.00  0.00     0.130 C 
HETATM    6  C   UNL     1       7.779  26.546  57.097  1.00  0.00     0.238 C 
HETATM    7  O   UNL     1       7.611  25.917  58.128  1.00  0.00    -0.272 OA
HETATM    8  C   UNL     1       6.004  28.812  55.870  1.00  0.00     0.298 C 
HETATM    9  N   UNL     1       5.746  28.898  57.394  1.00  0.00    -0.028 N 
HETATM   10  H   UNL     1       5.164  28.058  57.607  1.00  0.00     0.287 HD
HETATM   11  C   UNL     1       7.054  28.714  58.148  1.00  0.00     0.242 C 
HETATM   12  C   UNL     1       4.956  30.042  57.732  1.00  0.00     0.203 C 
HETATM   13  C   UNL     1       5.501  31.108  58.325  1.00  0.00     0.037 C 
HETATM   14  C   UNL     1       6.894  31.153  58.749  1.00  0.00    -0.026 A 
HETATM   15  C   UNL     1       7.668  29.987  58.686  1.00  0.00    -0.016 A 
HETATM   16  C   UNL     1       7.431  32.329  59.287  1.00  0.00     0.012 A 
HETATM   17  C   UNL     1       8.735  32.344  59.779  1.00  0.00     0.001 A 
HETATM   18  C   UNL     1       9.500  31.183  59.756  1.00  0.00     0.001 A 
HETATM   19  C   UNL     1       8.967  30.007  59.223  1.00  0.00     0.010 A 
ENDROOT
BRANCH   1  20
HETATM   20  C   UNL     1       7.969  24.764  55.363  1.00  0.00     0.045 A 
HETATM   21  C   UNL     1       7.123  24.222  54.378  1.00  0.00     0.031 A 
HETATM   22  C   UNL     1       7.254  22.894  53.936  1.00  0.00     0.017 A 
HETATM   23  C   UNL     1       8.240  22.069  54.475  1.00  0.00     0.009 A 
HETATM   24  C   UNL     1       9.076  22.580  55.468  1.00  0.00     0.017 A 
HETATM   25  C   UNL     1       8.947  23.909  55.895  1.00  0.00     0.031 A 
BRANCH  23  26
HETATM   26  C   UNL     1       8.436  20.659  54.041  1.00  0.00     0.155 C 
HETATM   27  C   UNL     1       8.361  20.325  52.576  1.00  0.00     0.096 C 
HETATM   28  O   UNL     1       8.653  19.795  54.889  1.00  0.00    -0.293 OA
ENDBRANCH  23  26
ENDBRANCH   1  20
BRANCH   8  29
HETATM   29  C   UNL     1       4.989  27.808  55.289  1.00  0.00     0.248 C 
HETATM   30  N   UNL     1       4.611  26.746  56.039  1.00  0.00    -0.368 N 
HETATM   31  H   UNL     1       4.609  26.769  57.058  1.00  0.00     0.159 HD
HETATM   32  H   UNL     1       3.892  26.143  55.643  1.00  0.00     0.159 HD
HETATM   33  O   UNL     1       4.564  27.992  54.148  1.00  0.00    -0.271 OA
ENDBRANCH   8  29
TORSDOF 3
ENDMDL
MODEL 4
REMARK VINA RESULT:     -10.0      2.282      8.023
REMARK  3 active torsions:
REMARK  status: ('A' for Active; 'I' for Inactive)
REMARK    1  A    between atoms: C_2  and  C_3 
REMARK    2  A    between atoms: C_6  and  N_7 
REMARK    3  A    between atoms: C_14  and  C_15 
REMARK       I    between atoms: C_15  and  N_16 
ROOT
HETATM    1  N   UNL     1       6.978  25.978  54.773  1.00  0.00    -0.252 N 
HETATM    2  C   UNL     1       7.387  26.952  53.884  1.00  0.00     0.238 C 
HETATM    3  O   UNL     1       8.055  26.868  52.864  1.00  0.00    -0.272 OA
HETATM    4  C   UNL     1       6.712  28.247  54.230  1.00  0.00     0.135 C 
HETATM    5  C   UNL     1       6.257  28.010  55.646  1.00  0.00     0.130 C 
HETATM    6  C   UNL     1       6.126  26.520  55.714  1.00  0.00     0.238 C 
HETATM    7  O   UNL     1       5.366  25.990  56.506  1.00  0.00    -0.272 OA
HETATM    8  C   UNL     1       5.465  28.520  53.400  1.00  0.00     0.298 C 
HETATM    9  N   UNL     1       4.341  28.744  54.439  1.00  0.00    -0.028 N 
HETATM   10  H   UNL     1       3.742  27.892  54.363  1.00  0.00     0.287 HD
HETATM   11  C   UNL     1       4.927  28.729  55.843  1.00  0.00     0.242 C 
HETATM   12  C   UNL     1       3.513  29.858  54.092  1.00  0.00     0.203 C 
HETATM   13  C   UNL     1       3.597  31.014  54.755  1.00  0.00     0.037 C 
HETATM   14  C   UNL     1       4.452  31.200  55.921  1.00  0.00    -0.026 A 
HETATM   15  C   UNL     1       5.100  30.090  56.479  1.00  0.00    -0.016 A 
HETATM   16  C   UNL     1       4.563  32.458  56.523  1.00  0.00     0.012 A 
HETATM   17  C   UNL     1       5.306  32.614  57.692  1.00  0.00     0.001 A 
HETATM   18  C   UNL     1       5.922  31.513  58.276  1.00  0.00     0.001 A 
HETATM   19  C   UNL     1       5.812  30.255  57.680  1.00  0.00     0.010 A 
ENDROOT
BRANCH   1  20
HETATM   20  C   UNL     1       7.312  24.588  54.677  1.00  0.00     0.045 A 
HETATM   21  C   UNL     1       7.100  23.858  53.493  1.00  0.00     0.031 A 
HETATM   22  C   UNL     1       7.461  22.503  53.383  1.00  0.00     0.017 A 
HETATM   23  C   UNL     1       8.045  21.842  54.461  1.00  0.00     0.009 A 
HETATM   24  C   UNL     1       8.247  22.542  55.650  1.00  0.00     0.017 A 
HETATM   25  C   UNL     1       7.895  23.895  55.750  1.00  0.00     0.031 A 
BRANCH  23  26
HETATM   26  C   UNL     1       8.459  20.414  54.402  1.00  0.00     0.155 C 
HETATM   27  C   UNL     1       8.755  19.682  55.683  1.00  0.00     0.096 C 
HETATM   28  O   UNL     1       8.552  19.861  53.308  1.00  0.00    -0.293 OA
ENDBRANCH  23  26
ENDBRANCH   1  20
BRANCH   8  29
HETATM   29  C   UNL     1       5.001  27.394  52.455  1.00  0.00     0.248 C 
HETATM   30  N   UNL     1       4.147  26.453  52.924  1.00  0.00    -0.368 N 
HETATM   31  H   UNL     1       3.484  26.642  53.676  1.00  0.00     0.159 HD
HETATM   32  H   UNL     1       3.815  25.764  52.250  1.00  0.00     0.159 HD
HETATM   33  O   UNL     1       5.435  27.373  51.303  1.00  0.00    -0.271 OA
ENDBRANCH   8  29
TORSDOF 3
ENDMDL
MODEL 5
REMARK VINA RESULT:      -9.7      2.640      4.539
REMARK  3 active torsions:
REMARK  status: ('A' for Active; 'I' for Inactive)
REMARK    1  A    between atoms: C_2  and  C_3 
REMARK    2  A    between atoms: C_6  and  N_7 
REMARK    3  A    between atoms: C_14  and  C_15 
REMARK       I    between atoms: C_15  and  N_16 
ROOT
HETATM    1  N   UNL     1       7.036  29.453  56.649  1.00  0.00    -0.252 N 
HETATM    2  C   UNL     1       8.083  28.780  56.051  1.00  0.00     0.238 C 
HETATM    3  O   UNL     1       9.257  28.685  56.378  1.00  0.00    -0.272 OA
HETATM    4  C   UNL     1       7.550  27.938  54.930  1.00  0.00     0.135 C 
HETATM    5  C   UNL     1       6.198  28.552  54.675  1.00  0.00     0.130 C 
HETATM    6  C   UNL     1       5.854  29.171  55.993  1.00  0.00     0.238 C 
HETATM    7  O   UNL     1       4.693  29.349  56.323  1.00  0.00    -0.272 OA
HETATM    8  C   UNL     1       7.313  26.486  55.323  1.00  0.00     0.298 C 
HETATM    9  N   UNL     1       5.829  26.219  54.975  1.00  0.00    -0.028 N 
HETATM   10  H   UNL     1       5.353  26.150  55.901  1.00  0.00     0.287 HD
HETATM   11  C   UNL     1       5.237  27.436  54.279  1.00  0.00     0.242 C 
HETATM   12  C   UNL     1       5.657  24.953  54.330  1.00  0.00     0.203 C 
HETATM   13  C   UNL     1       5.404  24.873  53.022  1.00  0.00     0.037 C 
HETATM   14  C   UNL     1       5.193  26.045  52.181  1.00  0.00    -0.026 A 
HETATM   15  C   UNL     1       5.093  27.308  52.779  1.00  0.00    -0.016 A 
HETATM   16  C   UNL     1       5.017  25.903  50.800  1.00  0.00     0.012 A 
HETATM   17  C   UNL     1       4.723  27.014  50.011  1.00  0.00     0.001 A 
HETATM   18  C   UNL     1       4.584  28.266  50.599  1.00  0.00     0.001 A 
HETATM   19  C   UNL     1       4.756  28.413  51.976  1.00  0.00     0.010 A 
ENDROOT
BRANCH   1  20
HETATM   20  C   UNL     1       7.144  30.250  57.834  1.00  0.00     0.045 A 
HETATM   21  C   UNL     1       6.337  31.385  58.037  1.00  0.00     0.031 A 
HETATM   22  C   UNL     1       6.413  32.149  59.215  1.00  0.00     0.017 A 
HETATM   23  C   UNL     1       7.307  31.795  60.224  1.00  0.00     0.009 A 
HETATM   24  C   UNL     1       8.130  30.685  60.036  1.00  0.00     0.017 A 
HETATM   25  C   UNL     1       8.040  29.921  58.864  1.00  0.00     0.031 A 
BRANCH  23  26
HETATM   26  C   UNL     1       7.426  32.556  61.498  1.00  0.00     0.155 C 
HETATM   27  C   UNL     1       8.425  32.108  62.530  1.00  0.00     0.096 C 
HETATM   28  O   UNL     1       6.705  33.535  61.681  1.00  0.00    -0.293 OA
ENDBRANCH  23  26
ENDBRANCH   1  20
BRANCH   8  29
HETATM   29  C   UNL     1       7.507  26.131  56.811  1.00  0.00     0.248 C 
HETATM   30  N   UNL     1       8.727  25.725  57.236  1.00  0.00    -0.368 N 
HETATM   31  H   UNL     1       9.591  26.018  56.781  1.00  0.00     0.159 HD
HETATM   32  H   UNL     1       8.828  25.562  58.237  1.00  0.00     0.159 HD
HETATM   33  O   UNL     1       6.539  26.210  57.568  1.00  0.00    -0.271 OA
ENDBRANCH   8  29
TORSDOF 3
ENDMDL
MODEL 6
REMARK VINA RESULT:      -9.6      1.795      2.242
REMARK  3 active torsions:
REMARK  status: ('A' for Active; 'I' for Inactive)
REMARK    1  A    between atoms: C_2  and  C_3 
REMARK    2  A    between atoms: C_6  and  N_7 
REMARK    3  A    between atoms: C_14  and  C_15 
REMARK       I    between atoms: C_15  and  N_16 
ROOT
HETATM    1  N   UNL     1       5.702  28.437  55.758  1.00  0.00    -0.252 N 
HETATM    2  C   UNL     1       4.769  27.702  55.053  1.00  0.00     0.238 C 
HETATM    3  O   UNL     1       3.643  27.995  54.680  1.00  0.00    -0.272 OA
HETATM    4  C   UNL     1       5.403  26.425  54.584  1.00  0.00     0.135 C 
HETATM    5  C   UNL     1       6.616  26.317  55.472  1.00  0.00     0.130 C 
HETATM    6  C   UNL     1       6.891  27.741  55.843  1.00  0.00     0.238 C 
HETATM    7  O   UNL     1       8.013  28.107  56.151  1.00  0.00    -0.272 OA
HETATM    8  C   UNL     1       5.906  26.492  53.148  1.00  0.00     0.298 C 
HETATM    9  N   UNL     1       7.401  26.100  53.235  1.00  0.00    -0.028 N 
HETATM   10  H   UNL     1       7.914  26.991  53.054  1.00  0.00     0.287 HD
HETATM   11  C   UNL     1       7.744  25.691  54.660  1.00  0.00     0.242 C 
HETATM   12  C   UNL     1       7.771  25.194  52.191  1.00  0.00     0.203 C 
HETATM   13  C   UNL     1       7.989  23.901  52.444  1.00  0.00     0.037 C 
HETATM   14  C   UNL     1       7.959  23.339  53.788  1.00  0.00    -0.026 A 
HETATM   15  C   UNL     1       7.856  24.200  54.889  1.00  0.00    -0.016 A 
HETATM   16  C   UNL     1       8.109  21.962  53.982  1.00  0.00     0.012 A 
HETATM   17  C   UNL     1       8.175  21.437  55.272  1.00  0.00     0.001 A 
HETATM   18  C   UNL     1       8.111  22.286  56.371  1.00  0.00     0.001 A 
HETATM   19  C   UNL     1       7.964  23.661  56.183  1.00  0.00     0.010 A 
ENDROOT
BRANCH   1  20
HETATM   20  C   UNL     1       5.496  29.768  56.247  1.00  0.00     0.045 A 
HETATM   21  C   UNL     1       5.820  30.128  57.568  1.00  0.00     0.031 A 
HETATM   22  C   UNL     1       5.655  31.442  58.041  1.00  0.00     0.017 A 
HETATM   23  C   UNL     1       5.156  32.434  57.199  1.00  0.00     0.009 A 
HETATM   24  C   UNL     1       4.810  32.094  55.891  1.00  0.00     0.017 A 
HETATM   25  C   UNL     1       4.988  30.785  55.423  1.00  0.00     0.031 A 
BRANCH  23  26
HETATM   26  C   UNL     1       4.969  33.844  57.637  1.00  0.00     0.155 C 
HETATM   27  C   UNL     1       4.428  34.119  59.014  1.00  0.00     0.096 C 
HETATM   28  O   UNL     1       5.260  34.755  56.865  1.00  0.00    -0.293 OA
ENDBRANCH  23  26
ENDBRANCH   1  20
BRANCH   8  29
HETATM   29  C   UNL     1       5.830  27.864  52.451  1.00  0.00     0.248 C 
HETATM   30  N   UNL     1       4.747  28.158  51.694  1.00  0.00    -0.368 N 
HETATM   31  H   UNL     1       3.829  27.749  51.870  1.00  0.00     0.159 HD
HETATM   32  H   UNL     1       4.706  29.098  51.303  1.00  0.00     0.159 HD
HETATM   33  O   UNL     1       6.769  28.649  52.587  1.00  0.00    -0.271 OA
ENDBRANCH   8  29
TORSDOF 3
ENDMDL
MODEL 7
REMARK VINA RESULT:      -9.4      2.303      2.888
REMARK  3 active torsions:
REMARK  status: ('A' for Active; 'I' for Inactive)
REMARK    1  A    between atoms: C_2  and  C_3 
REMARK    2  A    between atoms: C_6  and  N_7 
REMARK    3  A    between atoms: C_14  and  C_15 
REMARK       I    between atoms: C_15  and  N_16 
ROOT
HETATM    1  N   UNL     1       5.532  29.355  56.112  1.00  0.00    -0.252 N 
HETATM    2  C   UNL     1       4.504  28.448  55.950  1.00  0.00     0.238 C 
HETATM    3  O   UNL     1       3.293  28.612  55.941  1.00  0.00    -0.272 OA
HETATM    4  C   UNL     1       5.081  27.115  55.572  1.00  0.00     0.135 C 
HETATM    5  C   UNL     1       6.524  27.255  55.982  1.00  0.00     0.130 C 
HETATM    6  C   UNL     1       6.750  28.734  55.922  1.00  0.00     0.238 C 
HETATM    7  O   UNL     1       7.864  29.194  55.735  1.00  0.00    -0.272 OA
HETATM    8  C   UNL     1       5.067  26.854  54.072  1.00  0.00     0.298 C 
HETATM    9  N   UNL     1       6.538  26.537  53.712  1.00  0.00    -0.028 N 
HETATM   10  H   UNL     1       6.862  27.374  53.179  1.00  0.00     0.287 HD
HETATM   11  C   UNL     1       7.378  26.487  54.980  1.00  0.00     0.242 C 
HETATM   12  C   UNL     1       6.636  25.421  52.823  1.00  0.00     0.203 C 
HETATM   13  C   UNL     1       7.064  24.231  53.252  1.00  0.00     0.037 C 
HETATM   14  C   UNL     1       7.545  24.003  54.609  1.00  0.00    -0.026 A 
HETATM   15  C   UNL     1       7.721  25.096  55.466  1.00  0.00    -0.016 A 
HETATM   16  C   UNL     1       7.900  22.715  55.026  1.00  0.00     0.012 A 
HETATM   17  C   UNL     1       8.447  22.512  56.292  1.00  0.00     0.001 A 
HETATM   18  C   UNL     1       8.661  23.596  57.137  1.00  0.00     0.001 A 
HETATM   19  C   UNL     1       8.311  24.882  56.724  1.00  0.00     0.010 A 
ENDROOT
BRANCH   1  20
HETATM   20  C   UNL     1       5.358  30.758  56.348  1.00  0.00     0.045 A 
HETATM   21  C   UNL     1       4.927  31.630  55.331  1.00  0.00     0.031 A 
HETATM   22  C   UNL     1       4.718  33.000  55.567  1.00  0.00     0.017 A 
HETATM   23  C   UNL     1       4.940  33.535  56.835  1.00  0.00     0.009 A 
HETATM   24  C   UNL     1       5.386  32.693  57.852  1.00  0.00     0.017 A 
HETATM   25  C   UNL     1       5.581  31.325  57.612  1.00  0.00     0.031 A 
BRANCH  23  26
HETATM   26  C   UNL     1       4.726  34.974  57.150  1.00  0.00     0.155 C 
HETATM   27  C   UNL     1       3.786  35.350  58.263  1.00  0.00     0.096 C 
HETATM   28  O   UNL     1       5.321  35.826  56.494  1.00  0.00    -0.293 OA
ENDBRANCH  23  26
ENDBRANCH   1  20
BRANCH   8  29
HETATM   29  C   UNL     1       4.614  28.020  53.170  1.00  0.00     0.248 C 
HETATM   30  N   UNL     1       3.305  28.128  52.843  1.00  0.00    -0.368 N 
HETATM   31  H   UNL     1       2.560  27.778  53.445  1.00  0.00     0.159 HD
HETATM   32  H   UNL     1       3.038  28.947  52.299  1.00  0.00     0.159 HD
HETATM   33  O   UNL     1       5.463  28.811  52.756  1.00  0.00    -0.271 OA
ENDBRANCH   8  29
TORSDOF 3
ENDMDL
MODEL 8
REMARK VINA RESULT:      -9.1      5.982      9.644
REMARK  3 active torsions:
REMARK  status: ('A' for Active; 'I' for Inactive)
REMARK    1  A    between atoms: C_2  and  C_3 
REMARK    2  A    between atoms: C_6  and  N_7 
REMARK    3  A    between atoms: C_14  and  C_15 
REMARK       I    between atoms: C_15  and  N_16 
ROOT
HETATM    1  N   UNL     1       4.465  26.850  50.678  1.00  0.00    -0.252 N 
HETATM    2  C   UNL     1       4.019  28.086  51.100  1.00  0.00     0.238 C 
HETATM    3  O   UNL     1       4.237  28.699  52.135  1.00  0.00    -0.272 OA
HETATM    4  C   UNL     1       3.298  28.761  49.970  1.00  0.00     0.135 C 
HETATM    5  C   UNL     1       2.994  27.611  49.045  1.00  0.00     0.130 C 
HETATM    6  C   UNL     1       4.063  26.618  49.378  1.00  0.00     0.238 C 
HETATM    7  O   UNL     1       4.432  25.791  48.561  1.00  0.00    -0.272 OA
HETATM    8  C   UNL     1       4.170  29.740  49.196  1.00  0.00     0.298 C 
HETATM    9  N   UNL     1       4.083  29.267  47.724  1.00  0.00    -0.028 N 
HETATM   10  H   UNL     1       5.024  28.861  47.525  1.00  0.00     0.287 HD
HETATM   11  C   UNL     1       3.089  28.121  47.611  1.00  0.00     0.242 C 
HETATM   12  C   UNL     1       3.913  30.367  46.826  1.00  0.00     0.203 C 
HETATM   13  C   UNL     1       2.736  30.605  46.239  1.00  0.00     0.037 C 
HETATM   14  C   UNL     1       1.583  29.727  46.391  1.00  0.00    -0.026 A 
HETATM   15  C   UNL     1       1.738  28.498  47.046  1.00  0.00    -0.016 A 
HETATM   16  C   UNL     1       0.351  30.073  45.822  1.00  0.00     0.012 A 
HETATM   17  C   UNL     1      -0.725  29.190  45.888  1.00  0.00     0.001 A 
HETATM   18  C   UNL     1      -0.571  27.952  46.502  1.00  0.00     0.001 A 
HETATM   19  C   UNL     1       0.655  27.602  47.068  1.00  0.00     0.010 A 
ENDROOT
BRANCH   1  20
HETATM   20  C   UNL     1       5.303  25.976  51.443  1.00  0.00     0.045 A 
HETATM   21  C   UNL     1       6.693  25.912  51.231  1.00  0.00     0.031 A 
HETATM   22  C   UNL     1       7.525  25.083  52.005  1.00  0.00     0.017 A 
HETATM   23  C   UNL     1       6.982  24.291  53.014  1.00  0.00     0.009 A 
HETATM   24  C   UNL     1       5.605  24.324  53.229  1.00  0.00     0.017 A 
HETATM   25  C   UNL     1       4.783  25.161  52.461  1.00  0.00     0.031 A 
BRANCH  23  26
HETATM   26  C   UNL     1       7.811  23.403  53.874  1.00  0.00     0.155 C 
HETATM   27  C   UNL     1       7.784  23.592  55.367  1.00  0.00     0.096 C 
HETATM   28  O   UNL     1       8.502  22.534  53.347  1.00  0.00    -0.293 OA
ENDBRANCH  23  26
ENDBRANCH   1  20
BRANCH   8  29
HETATM   29  C   UNL     1       5.664  29.787  49.575  1.00  0.00     0.248 C 
HETATM   30  N   UNL     1       6.512  28.890  49.019  1.00  0.00    -0.368 N 
HETATM   31  H   UNL     1       6.347  28.476  48.102  1.00  0.00     0.159 HD
HETATM   32  H   UNL     1       7.500  28.996  49.247  1.00  0.00     0.159 HD
HETATM   33  O   UNL     1       6.040  30.631  50.389  1.00  0.00    -0.271 OA
ENDBRANCH   8  29
TORSDOF 3
ENDMDL
MODEL 9
REMARK VINA RESULT:      -9.0     10.304     12.907
REMARK  3 active torsions:
REMARK  status: ('A' for Active; 'I' for Inactive)
REMARK    1  A    between atoms: C_2  and  C_3 
REMARK    2  A    between atoms: C_6  and  N_7 
REMARK    3  A    between atoms: C_14  and  C_15 
REMARK       I    between atoms: C_15  and  N_16 
ROOT
HETATM    1  N   UNL     1       5.527  34.782  64.433  1.00  0.00    -0.252 N 
HETATM    2  C   UNL     1       6.062  34.001  63.428  1.00  0.00     0.238 C 
HETATM    3  O   UNL     1       6.661  32.937  63.481  1.00  0.00    -0.272 OA
HETATM    4  C   UNL     1       5.641  34.556  62.099  1.00  0.00     0.135 C 
HETATM    5  C   UNL     1       5.213  35.957  62.450  1.00  0.00     0.130 C 
HETATM    6  C   UNL     1       4.825  35.840  63.891  1.00  0.00     0.238 C 
HETATM    7  O   UNL     1       4.018  36.606  64.391  1.00  0.00    -0.272 OA
HETATM    8  C   UNL     1       4.427  33.853  61.507  1.00  0.00     0.298 C 
HETATM    9  N   UNL     1       3.405  34.985  61.245  1.00  0.00    -0.028 N 
HETATM   10  H   UNL     1       2.663  34.838  61.965  1.00  0.00     0.287 HD
HETATM   11  C   UNL     1       4.040  36.332  61.552  1.00  0.00     0.242 C 
HETATM   12  C   UNL     1       2.772  34.839  59.970  1.00  0.00     0.203 C 
HETATM   13  C   UNL     1       3.085  35.640  58.948  1.00  0.00     0.037 C 
HETATM   14  C   UNL     1       4.009  36.760  59.072  1.00  0.00    -0.026 A 
HETATM   15  C   UNL     1       4.476  37.126  60.341  1.00  0.00    -0.016 A 
HETATM   16  C   UNL     1       4.366  37.511  57.946  1.00  0.00     0.012 A 
HETATM   17  C   UNL     1       5.174  38.639  58.081  1.00  0.00     0.001 A 
HETATM   18  C   UNL     1       5.612  39.033  59.340  1.00  0.00     0.001 A 
HETATM   19  C   UNL     1       5.257  38.289  60.466  1.00  0.00     0.010 A 
ENDROOT
BRANCH   1  20
HETATM   20  C   UNL     1       5.608  34.485  65.833  1.00  0.00     0.045 A 
HETATM   21  C   UNL     1       6.834  34.507  66.523  1.00  0.00     0.031 A 
HETATM   22  C   UNL     1       6.913  34.253  67.904  1.00  0.00     0.017 A 
HETATM   23  C   UNL     1       5.759  33.967  68.631  1.00  0.00     0.009 A 
HETATM   24  C   UNL     1       4.536  33.921  67.964  1.00  0.00     0.017 A 
HETATM   25  C   UNL     1       4.463  34.186  66.589  1.00  0.00     0.031 A 
BRANCH  23  26
HETATM   26  C   UNL     1       5.776  33.700  70.096  1.00  0.00     0.155 C 
HETATM   27  C   UNL     1       6.219  34.791  71.035  1.00  0.00     0.096 C 
HETATM   28  O   UNL     1       5.430  32.596  70.509  1.00  0.00    -0.293 OA
ENDBRANCH  23  26
ENDBRANCH   1  20
BRANCH   8  29
HETATM   29  C   UNL     1       3.732  32.803  62.397  1.00  0.00     0.248 C 
HETATM   30  N   UNL     1       4.120  31.509  62.314  1.00  0.00    -0.368 N 
HETATM   31  H   UNL     1       5.065  31.238  62.042  1.00  0.00     0.159 HD
HETATM   32  H   UNL     1       3.681  30.859  62.964  1.00  0.00     0.159 HD
HETATM   33  O   UNL     1       2.827  33.171  63.148  1.00  0.00    -0.271 OA
ENDBRANCH   8  29
TORSDOF 3
ENDMDL
MODEL 10
REMARK VINA RESULT:      -8.8      9.034     12.059
REMARK  3 active torsions:
REMARK  status: ('A' for Active; 'I' for Inactive)
REMARK    1  A    between atoms: C_2  and  C_3 
REMARK    2  A    between atoms: C_6  and  N_7 
REMARK    3  A    between atoms: C_14  and  C_15 
REMARK       I    between atoms: C_15  and  N_16 
ROOT
HETATM    1  N   UNL     1       5.724  34.365  64.515  1.00  0.00    -0.252 N 
HETATM    2  C   UNL     1       6.726  33.954  63.660  1.00  0.00     0.238 C 
HETATM    3  O   UNL     1       7.807  33.434  63.893  1.00  0.00    -0.272 OA
HETATM    4  C   UNL     1       6.238  34.060  62.244  1.00  0.00     0.135 C 
HETATM    5  C   UNL     1       5.057  34.986  62.375  1.00  0.00     0.130 C 
HETATM    6  C   UNL     1       4.624  34.783  63.794  1.00  0.00     0.238 C 
HETATM    7  O   UNL     1       3.471  34.986  64.136  1.00  0.00    -0.272 OA
HETATM    8  C   UNL     1       5.714  32.744  61.686  1.00  0.00     0.298 C 
HETATM    9  N   UNL     1       4.276  33.061  61.212  1.00  0.00    -0.028 N 
HETATM   10  H   UNL     1       3.661  32.574  61.901  1.00  0.00     0.287 HD
HETATM   11  C   UNL     1       3.999  34.548  61.368  1.00  0.00     0.242 C 
HETATM   12  C   UNL     1       4.000  32.478  59.934  1.00  0.00     0.203 C 
HETATM   13  C   UNL     1       3.936  33.229  58.832  1.00  0.00     0.037 C 
HETATM   14  C   UNL     1       4.046  34.682  58.855  1.00  0.00    -0.026 A 
HETATM   15  C   UNL     1       4.062  35.349  60.086  1.00  0.00    -0.016 A 
HETATM   16  C   UNL     1       4.057  35.409  57.659  1.00  0.00     0.012 A 
HETATM   17  C   UNL     1       4.067  36.803  57.684  1.00  0.00     0.001 A 
HETATM   18  C   UNL     1       4.046  37.475  58.901  1.00  0.00     0.001 A 
HETATM   19  C   UNL     1       4.032  36.755  60.096  1.00  0.00     0.010 A 
ENDROOT
BRANCH   1  20
HETATM   20  C   UNL     1       5.781  34.281  65.945  1.00  0.00     0.045 A 
HETATM   21  C   UNL     1       4.627  34.058  66.718  1.00  0.00     0.031 A 
HETATM   22  C   UNL     1       4.683  33.937  68.117  1.00  0.00     0.017 A 
HETATM   23  C   UNL     1       5.903  34.040  68.782  1.00  0.00     0.009 A 
HETATM   24  C   UNL     1       7.057  34.281  68.037  1.00  0.00     0.017 A 
HETATM   25  C   UNL     1       6.995  34.389  66.641  1.00  0.00     0.031 A 
BRANCH  23  26
HETATM   26  C   UNL     1       6.029  33.910  70.260  1.00  0.00     0.155 C 
HETATM   27  C   UNL     1       7.076  32.990  70.829  1.00  0.00     0.096 C 
HETATM   28  O   UNL     1       5.275  34.555  70.985  1.00  0.00    -0.293 OA
ENDBRANCH  23  26
ENDBRANCH   1  20
BRANCH   8  29
HETATM   29  C   UNL     1       5.624  31.560  62.670  1.00  0.00     0.248 C 
HETATM   30  N   UNL     1       6.689  30.737  62.808  1.00  0.00    -0.368 N 
HETATM   31  H   UNL     1       7.647  31.050  62.648  1.00  0.00     0.159 HD
HETATM   32  H   UNL     1       6.612  30.007  63.515  1.00  0.00     0.159 HD
HETATM   33  O   UNL     1       4.574  31.387  63.291  1.00  0.00    -0.271 OA
ENDBRANCH   8  29
TORSDOF 3
ENDMDL
