MODEL 1
REMARK VINA RESULT:     -11.0      0.000      0.000
REMARK  7 active torsions:
REMARK  status: ('A' for Active; 'I' for Inactive)
REMARK    1  A    between atoms: C_4  and  C_5 
REMARK    2  A    between atoms: C_9  and  C_10 
REMARK       I    between atoms: C_10  and  N_11 
REMARK    3  A    between atoms: N_11  and  N_12 
REMARK       I    between atoms: N_12  and  C_13 
REMARK    4  A    between atoms: C_13  and  C_14 
REMARK    5  A    between atoms: C_14  and  C_15 
REMARK    6  A    between atoms: C_15  and  N_16 
REMARK    7  A    between atoms: C_15  and  C_20 
REMARK       I    between atoms: N_16  and  C_17 
REMARK       I    between atoms: C_17  and  N_18 
ROOT
HETATM    1  N   UNL     1       7.637  28.757  55.751  1.00  0.00    -0.267 N 
HETATM    2  C   UNL     1       6.990  29.146  56.907  1.00  0.00     0.238 C 
HETATM    3  O   UNL     1       5.830  29.557  56.912  1.00  0.00    -0.272 OA
HETATM    4  H   UNL     1       8.661  28.868  55.749  1.00  0.00     0.190 HD
ENDROOT
BRANCH   1   5
HETATM    5  N   UNL     1       6.957  28.988  54.542  1.00  0.00    -0.262 N 
HETATM    6  C   UNL     1       6.585  28.011  53.638  1.00  0.00     0.288 C 
HETATM    7  O   UNL     1       6.303  28.349  52.489  1.00  0.00    -0.264 OA
HETATM    8  H   UNL     1       6.979  29.947  54.196  1.00  0.00     0.190 HD
BRANCH   6   9
HETATM    9  C   UNL     1       6.533  26.636  54.067  1.00  0.00     0.121 A 
HETATM   10  N   UNL     1       5.683  26.105  54.990  1.00  0.00    -0.272 N 
HETATM   11  N   UNL     1       5.875  24.800  55.245  1.00  0.00    -0.174 NA
HETATM   12  H   UNL     1       4.976  26.606  55.513  1.00  0.00     0.189 HD
HETATM   13  C   UNL     1       6.842  24.436  54.385  1.00  0.00     0.089 A 
HETATM   14  C   UNL     1       7.265  25.555  53.618  1.00  0.00     0.071 A 
BRANCH  13  15
HETATM   15  C   UNL     1       7.356  23.065  54.322  1.00  0.00    -0.006 A 
HETATM   16  C   UNL     1       7.497  22.297  55.488  1.00  0.00     0.014 A 
HETATM   17  C   UNL     1       7.962  20.980  55.421  1.00  0.00     0.001 A 
HETATM   18  C   UNL     1       8.286  20.417  54.189  1.00  0.00     0.000 A 
HETATM   19  C   UNL     1       8.156  21.170  53.024  1.00  0.00     0.001 A 
HETATM   20  C   UNL     1       7.698  22.488  53.091  1.00  0.00     0.014 A 
ENDBRANCH  13  15
ENDBRANCH   6   9
ENDBRANCH   1   5
BRANCH   2  21
HETATM   21  C   UNL     1       7.814  29.057  58.178  1.00  0.00     0.134 C 
BRANCH  21  22
HETATM   22  C   UNL     1       8.718  30.272  58.458  1.00  0.00     0.127 C 
BRANCH  22  23
HETATM   23  N   UNL     1      10.153  30.128  58.192  1.00  0.00    -0.339 N 
HETATM   24  C   UNL     1      10.771  30.030  56.993  1.00  0.00     0.292 C 
HETATM   25  N   UNL     1      12.093  29.766  57.098  1.00  0.00    -0.254 NA
HETATM   26  O   UNL     1      10.230  30.132  55.902  1.00  0.00    -0.254 OA
HETATM   27  H   UNL     1      12.398  29.161  57.845  1.00  0.00     0.128 HD
HETATM   28  H   UNL     1      12.523  29.542  56.205  1.00  0.00     0.128 HD
HETATM   29  H   UNL     1      10.759  30.162  59.000  1.00  0.00     0.164 HD
ENDBRANCH  22  23
BRANCH  22  30
HETATM   30  C   UNL     1       8.444  30.957  59.793  1.00  0.00    -0.035 A 
HETATM   31  C   UNL     1       7.487  31.974  59.939  1.00  0.00     0.011 A 
HETATM   32  C   UNL     1       7.290  32.602  61.172  1.00  0.00     0.024 A 
HETATM   33  C   UNL     1       8.052  32.222  62.274  1.00  0.00     0.034 A 
HETATM   34 CL   UNL     1       7.813  33.000  63.789  1.00  0.00    -0.084 Cl
HETATM   35  C   UNL     1       9.006  31.217  62.154  1.00  0.00     0.024 A 
HETATM   36  C   UNL     1       9.199  30.587  60.922  1.00  0.00     0.011 A 
ENDBRANCH  22  30
ENDBRANCH  21  22
ENDBRANCH   2  21
TORSDOF 7
ENDMDL
MODEL 2
REMARK VINA RESULT:     -10.3      1.858      2.512
REMARK  7 active torsions:
REMARK  status: ('A' for Active; 'I' for Inactive)
REMARK    1  A    between atoms: C_4  and  C_5 
REMARK    2  A    between atoms: C_9  and  C_10 
REMARK       I    between atoms: C_10  and  N_11 
REMARK    3  A    between atoms: N_11  and  N_12 
REMARK       I    between atoms: N_12  and  C_13 
REMARK    4  A    between atoms: C_13  and  C_14 
REMARK    5  A    between atoms: C_14  and  C_15 
REMARK    6  A    between atoms: C_15  and  N_16 
REMARK    7  A    between atoms: C_15  and  C_20 
REMARK       I    between atoms: N_16  and  C_17 
REMARK       I    between atoms: C_17  and  N_18 
ROOT
HETATM    1  N   UNL     1       7.657  28.432  53.987  1.00  0.00    -0.267 N 
HETATM    2  C   UNL     1       7.274  29.016  55.177  1.00  0.00     0.238 C 
HETATM    3  O   UNL     1       6.102  29.296  55.431  1.00  0.00    -0.272 OA
HETATM    4  H   UNL     1       8.614  28.642  53.670  1.00  0.00     0.190 HD
ENDROOT
BRANCH   1   5
HETATM    5  N   UNL     1       6.663  28.297  53.003  1.00  0.00    -0.262 N 
HETATM    6  C   UNL     1       6.176  27.097  52.520  1.00  0.00     0.288 C 
HETATM    7  O   UNL     1       5.566  27.096  51.451  1.00  0.00    -0.264 OA
HETATM    8  H   UNL     1       6.486  29.124  52.433  1.00  0.00     0.190 HD
BRANCH   6   9
HETATM    9  C   UNL     1       6.391  25.891  53.280  1.00  0.00     0.121 A 
HETATM   10  N   UNL     1       5.951  25.640  54.545  1.00  0.00    -0.272 N 
HETATM   11  N   UNL     1       6.329  24.452  55.046  1.00  0.00    -0.174 NA
HETATM   12  H   UNL     1       5.419  26.271  55.132  1.00  0.00     0.189 HD
HETATM   13  C   UNL     1       6.979  23.859  54.029  1.00  0.00     0.089 A 
HETATM   14  C   UNL     1       7.020  24.723  52.902  1.00  0.00     0.071 A 
BRANCH  13  15
HETATM   15  C   UNL     1       7.559  22.519  54.149  1.00  0.00    -0.006 A 
HETATM   16  C   UNL     1       7.970  21.809  53.011  1.00  0.00     0.014 A 
HETATM   17  C   UNL     1       8.549  20.542  53.133  1.00  0.00     0.001 A 
HETATM   18  C   UNL     1       8.726  19.974  54.392  1.00  0.00     0.000 A 
HETATM   19  C   UNL     1       8.318  20.665  55.531  1.00  0.00     0.001 A 
HETATM   20  C   UNL     1       7.733  21.929  55.410  1.00  0.00     0.014 A 
ENDBRANCH  13  15
ENDBRANCH   6   9
ENDBRANCH   1   5
BRANCH   2  21
HETATM   21  C   UNL     1       8.398  29.317  56.150  1.00  0.00     0.134 C 
BRANCH  21  22
HETATM   22  C   UNL     1       8.162  28.832  57.593  1.00  0.00     0.127 C 
BRANCH  22  23
HETATM   23  N   UNL     1       7.300  27.660  57.784  1.00  0.00    -0.339 N 
HETATM   24  C   UNL     1       7.637  26.354  57.675  1.00  0.00     0.292 C 
HETATM   25  N   UNL     1       6.575  25.524  57.776  1.00  0.00    -0.254 NA
HETATM   26  O   UNL     1       8.763  25.923  57.477  1.00  0.00    -0.254 OA
HETATM   27  H   UNL     1       5.696  25.827  57.384  1.00  0.00     0.128 HD
HETATM   28  H   UNL     1       6.802  24.562  57.543  1.00  0.00     0.128 HD
HETATM   29  H   UNL     1       6.356  27.850  58.088  1.00  0.00     0.164 HD
ENDBRANCH  22  23
BRANCH  22  30
HETATM   30  C   UNL     1       7.844  29.949  58.581  1.00  0.00    -0.035 A 
HETATM   31  C   UNL     1       6.771  30.838  58.398  1.00  0.00     0.011 A 
HETATM   32  C   UNL     1       6.534  31.871  59.309  1.00  0.00     0.024 A 
HETATM   33  C   UNL     1       7.369  32.031  60.412  1.00  0.00     0.034 A 
HETATM   34 CL   UNL     1       7.079  33.307  61.528  1.00  0.00    -0.084 Cl
HETATM   35  C   UNL     1       8.437  31.163  60.614  1.00  0.00     0.024 A 
HETATM   36  C   UNL     1       8.671  30.127  59.705  1.00  0.00     0.011 A 
ENDBRANCH  22  30
ENDBRANCH  21  22
ENDBRANCH   2  21
TORSDOF 7
ENDMDL
MODEL 3
REMARK VINA RESULT:     -10.2      3.713      8.749
REMARK  7 active torsions:
REMARK  status: ('A' for Active; 'I' for Inactive)
REMARK    1  A    between atoms: C_4  and  C_5 
REMARK    2  A    between atoms: C_9  and  C_10 
REMARK       I    between atoms: C_10  and  N_11 
REMARK    3  A    between atoms: N_11  and  N_12 
REMARK       I    between atoms: N_12  and  C_13 
REMARK    4  A    between atoms: C_13  and  C_14 
REMARK    5  A    between atoms: C_14  and  C_15 
REMARK    6  A    between atoms: C_15  and  N_16 
REMARK    7  A    between atoms: C_15  and  C_20 
REMARK       I    between atoms: N_16  and  C_17 
REMARK       I    between atoms: C_17  and  N_18 
ROOT
HETATM    1  N   UNL     1       4.353  27.249  56.657  1.00  0.00    -0.267 N 
HETATM    2  C   UNL     1       5.101  26.357  55.914  1.00  0.00     0.238 C 
HETATM    3  O   UNL     1       5.351  26.533  54.722  1.00  0.00    -0.272 OA
HETATM    4  H   UNL     1       3.827  26.847  57.446  1.00  0.00     0.190 HD
ENDROOT
BRANCH   1   5
HETATM    5  N   UNL     1       3.756  28.308  55.952  1.00  0.00    -0.262 N 
HETATM    6  C   UNL     1       4.052  29.647  56.124  1.00  0.00     0.288 C 
HETATM    7  O   UNL     1       3.252  30.485  55.708  1.00  0.00    -0.264 OA
HETATM    8  H   UNL     1       2.876  28.092  55.484  1.00  0.00     0.190 HD
BRANCH   6   9
HETATM    9  C   UNL     1       5.282  30.019  56.778  1.00  0.00     0.121 A 
HETATM   10  N   UNL     1       6.524  30.037  56.219  1.00  0.00    -0.272 N 
HETATM   11  N   UNL     1       7.515  30.378  57.060  1.00  0.00    -0.174 NA
HETATM   12  H   UNL     1       6.759  29.780  55.268  1.00  0.00     0.189 HD
HETATM   13  C   UNL     1       6.880  30.682  58.207  1.00  0.00     0.089 A 
HETATM   14  C   UNL     1       5.480  30.487  58.061  1.00  0.00     0.071 A 
BRANCH  13  15
HETATM   15  C   UNL     1       7.601  31.119  59.405  1.00  0.00    -0.006 A 
HETATM   16  C   UNL     1       7.214  32.279  60.093  1.00  0.00     0.014 A 
HETATM   17  C   UNL     1       7.887  32.677  61.252  1.00  0.00     0.001 A 
HETATM   18  C   UNL     1       8.950  31.919  61.737  1.00  0.00     0.000 A 
HETATM   19  C   UNL     1       9.348  30.768  61.061  1.00  0.00     0.001 A 
HETATM   20  C   UNL     1       8.680  30.372  59.899  1.00  0.00     0.014 A 
ENDBRANCH  13  15
ENDBRANCH   6   9
ENDBRANCH   1   5
BRANCH   2  21
HETATM   21  C   UNL     1       5.582  25.126  56.661  1.00  0.00     0.134 C 
BRANCH  21  22
HETATM   22  C   UNL     1       7.085  24.822  56.520  1.00  0.00     0.127 C 
BRANCH  22  23
HETATM   23  N   UNL     1       7.996  25.957  56.343  1.00  0.00    -0.339 N 
HETATM   24  C   UNL     1       8.240  26.970  57.208  1.00  0.00     0.292 C 
HETATM   25  N   UNL     1       9.030  27.934  56.684  1.00  0.00    -0.254 NA
HETATM   26  O   UNL     1       7.794  27.061  58.341  1.00  0.00    -0.254 OA
HETATM   27  H   UNL     1       8.924  28.154  55.705  1.00  0.00     0.128 HD
HETATM   28  H   UNL     1       9.087  28.760  57.273  1.00  0.00     0.128 HD
HETATM   29  H   UNL     1       8.549  25.954  55.499  1.00  0.00     0.164 HD
ENDBRANCH  22  23
BRANCH  22  30
HETATM   30  C   UNL     1       7.401  23.675  55.565  1.00  0.00    -0.035 A 
HETATM   31  C   UNL     1       7.578  22.352  56.003  1.00  0.00     0.011 A 
HETATM   32  C   UNL     1       7.902  21.335  55.100  1.00  0.00     0.024 A 
HETATM   33  C   UNL     1       8.055  21.630  53.748  1.00  0.00     0.034 A 
HETATM   34 CL   UNL     1       8.458  20.378  52.640  1.00  0.00    -0.084 Cl
HETATM   35  C   UNL     1       7.883  22.932  53.290  1.00  0.00     0.024 A 
HETATM   36  C   UNL     1       7.556  23.948  54.193  1.00  0.00     0.011 A 
ENDBRANCH  22  30
ENDBRANCH  21  22
ENDBRANCH   2  21
TORSDOF 7
ENDMDL
MODEL 4
REMARK VINA RESULT:     -10.1      4.323      5.214
REMARK  7 active torsions:
REMARK  status: ('A' for Active; 'I' for Inactive)
REMARK    1  A    between atoms: C_4  and  C_5 
REMARK    2  A    between atoms: C_9  and  C_10 
REMARK       I    between atoms: C_10  and  N_11 
REMARK    3  A    between atoms: N_11  and  N_12 
REMARK       I    between atoms: N_12  and  C_13 
REMARK    4  A    between atoms: C_13  and  C_14 
REMARK    5  A    between atoms: C_14  and  C_15 
REMARK    6  A    between atoms: C_15  and  N_16 
REMARK    7  A    between atoms: C_15  and  C_20 
REMARK       I    between atoms: N_16  and  C_17 
REMARK       I    between atoms: C_17  and  N_18 
ROOT
HETATM    1  N   UNL     1       4.842  27.639  53.450  1.00  0.00    -0.267 N 
HETATM    2  C   UNL     1       4.360  28.850  53.907  1.00  0.00     0.238 C 
HETATM    3  O   UNL     1       3.475  29.474  53.322  1.00  0.00    -0.272 OA
HETATM    4  H   UNL     1       5.818  27.422  53.695  1.00  0.00     0.190 HD
ENDROOT
BRANCH   1   5
HETATM    5  N   UNL     1       4.377  27.210  52.195  1.00  0.00    -0.262 N 
HETATM    6  C   UNL     1       5.021  26.304  51.373  1.00  0.00     0.288 C 
HETATM    7  O   UNL     1       4.704  26.258  50.185  1.00  0.00    -0.264 OA
HETATM    8  H   UNL     1       3.667  27.798  51.759  1.00  0.00     0.190 HD
BRANCH   6   9
HETATM    9  C   UNL     1       6.034  25.443  51.930  1.00  0.00     0.121 A 
HETATM   10  N   UNL     1       7.383  25.618  51.848  1.00  0.00    -0.272 N 
HETATM   11  N   UNL     1       8.112  24.642  52.414  1.00  0.00    -0.174 NA
HETATM   12  H   UNL     1       7.863  26.373  51.373  1.00  0.00     0.189 HD
HETATM   13  C   UNL     1       7.196  23.828  52.970  1.00  0.00     0.089 A 
HETATM   14  C   UNL     1       5.886  24.310  52.703  1.00  0.00     0.071 A 
BRANCH  13  15
HETATM   15  C   UNL     1       7.571  22.620  53.708  1.00  0.00    -0.006 A 
HETATM   16  C   UNL     1       8.005  21.470  53.032  1.00  0.00     0.014 A 
HETATM   17  C   UNL     1       8.388  20.328  53.742  1.00  0.00     0.001 A 
HETATM   18  C   UNL     1       8.345  20.326  55.135  1.00  0.00     0.000 A 
HETATM   19  C   UNL     1       7.911  21.459  55.819  1.00  0.00     0.001 A 
HETATM   20  C   UNL     1       7.522  22.598  55.110  1.00  0.00     0.014 A 
ENDBRANCH  13  15
ENDBRANCH   6   9
ENDBRANCH   1   5
BRANCH   2  21
HETATM   21  C   UNL     1       5.011  29.378  55.171  1.00  0.00     0.134 C 
BRANCH  21  22
HETATM   22  C   UNL     1       4.717  28.565  56.446  1.00  0.00     0.127 C 
BRANCH  22  23
HETATM   23  N   UNL     1       4.304  29.303  57.644  1.00  0.00    -0.339 N 
HETATM   24  C   UNL     1       3.376  30.283  57.737  1.00  0.00     0.292 C 
HETATM   25  N   UNL     1       3.331  30.855  58.962  1.00  0.00    -0.254 NA
HETATM   26  O   UNL     1       2.651  30.667  56.832  1.00  0.00    -0.254 OA
HETATM   27  H   UNL     1       4.199  30.966  59.465  1.00  0.00     0.128 HD
HETATM   28  H   UNL     1       2.748  31.686  58.988  1.00  0.00     0.128 HD
HETATM   29  H   UNL     1       4.722  29.005  58.514  1.00  0.00     0.164 HD
ENDBRANCH  22  23
BRANCH  22  30
HETATM   30  C   UNL     1       5.762  27.498  56.758  1.00  0.00    -0.035 A 
HETATM   31  C   UNL     1       5.465  26.125  56.755  1.00  0.00     0.011 A 
HETATM   32  C   UNL     1       6.442  25.180  57.082  1.00  0.00     0.024 A 
HETATM   33  C   UNL     1       7.727  25.597  57.418  1.00  0.00     0.034 A 
HETATM   34 CL   UNL     1       8.926  24.432  57.824  1.00  0.00    -0.084 Cl
HETATM   35  C   UNL     1       8.045  26.951  57.426  1.00  0.00     0.024 A 
HETATM   36  C   UNL     1       7.069  27.895  57.096  1.00  0.00     0.011 A 
ENDBRANCH  22  30
ENDBRANCH  21  22
ENDBRANCH   2  21
TORSDOF 7
ENDMDL
MODEL 5
REMARK VINA RESULT:      -9.9      3.434      9.654
REMARK  7 active torsions:
REMARK  status: ('A' for Active; 'I' for Inactive)
REMARK    1  A    between atoms: C_4  and  C_5 
REMARK    2  A    between atoms: C_9  and  C_10 
REMARK       I    between atoms: C_10  and  N_11 
REMARK    3  A    between atoms: N_11  and  N_12 
REMARK       I    between atoms: N_12  and  C_13 
REMARK    4  A    between atoms: C_13  and  C_14 
REMARK    5  A    between atoms: C_14  and  C_15 
REMARK    6  A    between atoms: C_15  and  N_16 
REMARK    7  A    between atoms: C_15  and  C_20 
REMARK       I    between atoms: N_16  and  C_17 
REMARK       I    between atoms: C_17  and  N_18 
ROOT
HETATM    1  N   UNL     1       8.202  28.067  56.517  1.00  0.00    -0.267 N 
HETATM    2  C   UNL     1       7.782  26.853  57.024  1.00  0.00     0.238 C 
HETATM    3  O   UNL     1       8.479  26.171  57.775  1.00  0.00    -0.272 OA
HETATM    4  H   UNL     1       7.808  28.334  55.605  1.00  0.00     0.190 HD
ENDROOT
BRANCH   1   5
HETATM    5  N   UNL     1       9.533  28.432  56.781  1.00  0.00    -0.262 N 
HETATM    6  C   UNL     1       9.929  29.562  57.471  1.00  0.00     0.288 C 
HETATM    7  O   UNL     1      11.092  29.946  57.355  1.00  0.00    -0.264 OA
HETATM    8  H   UNL     1      10.241  27.978  56.205  1.00  0.00     0.190 HD
BRANCH   6   9
HETATM    9  C   UNL     1       8.974  30.249  58.305  1.00  0.00     0.121 A 
HETATM   10  N   UNL     1       7.677  30.527  57.995  1.00  0.00    -0.272 N 
HETATM   11  N   UNL     1       7.012  31.223  58.932  1.00  0.00    -0.174 NA
HETATM   12  H   UNL     1       7.205  30.300  57.127  1.00  0.00     0.189 HD
HETATM   13  C   UNL     1       7.890  31.333  59.944  1.00  0.00     0.089 A 
HETATM   14  C   UNL     1       9.123  30.718  59.594  1.00  0.00     0.071 A 
BRANCH  13  15
HETATM   15  C   UNL     1       7.560  32.027  61.192  1.00  0.00    -0.006 A 
HETATM   16  C   UNL     1       8.362  31.873  62.333  1.00  0.00     0.014 A 
HETATM   17  C   UNL     1       8.059  32.560  63.513  1.00  0.00     0.001 A 
HETATM   18  C   UNL     1       6.955  33.408  63.563  1.00  0.00     0.000 A 
HETATM   19  C   UNL     1       6.148  33.567  62.439  1.00  0.00     0.001 A 
HETATM   20  C   UNL     1       6.447  32.876  61.261  1.00  0.00     0.014 A 
ENDBRANCH  13  15
ENDBRANCH   6   9
ENDBRANCH   1   5
BRANCH   2  21
HETATM   21  C   UNL     1       6.406  26.398  56.575  1.00  0.00     0.134 C 
BRANCH  21  22
HETATM   22  C   UNL     1       6.270  26.117  55.066  1.00  0.00     0.127 C 
BRANCH  22  23
HETATM   23  N   UNL     1       4.983  26.416  54.432  1.00  0.00    -0.339 N 
HETATM   24  C   UNL     1       4.716  27.357  53.496  1.00  0.00     0.292 C 
HETATM   25  N   UNL     1       3.397  27.469  53.220  1.00  0.00    -0.254 NA
HETATM   26  O   UNL     1       5.541  28.073  52.950  1.00  0.00    -0.254 OA
HETATM   27  H   UNL     1       2.742  27.347  53.977  1.00  0.00     0.128 HD
HETATM   28  H   UNL     1       3.183  28.273  52.636  1.00  0.00     0.128 HD
HETATM   29  H   UNL     1       4.214  25.812  54.682  1.00  0.00     0.164 HD
ENDBRANCH  22  23
BRANCH  22  30
HETATM   30  C   UNL     1       6.827  24.765  54.632  1.00  0.00    -0.035 A 
HETATM   31  C   UNL     1       7.047  23.713  55.536  1.00  0.00     0.011 A 
HETATM   32  C   UNL     1       7.593  22.500  55.105  1.00  0.00     0.024 A 
HETATM   33  C   UNL     1       7.928  22.327  53.764  1.00  0.00     0.034 A 
HETATM   34 CL   UNL     1       8.604  20.836  53.237  1.00  0.00    -0.084 Cl
HETATM   35  C   UNL     1       7.718  23.355  52.851  1.00  0.00     0.024 A 
HETATM   36  C   UNL     1       7.169  24.565  53.282  1.00  0.00     0.011 A 
ENDBRANCH  22  30
ENDBRANCH  21  22
ENDBRANCH   2  21
TORSDOF 7
ENDMDL
MODEL 6
REMARK VINA RESULT:      -9.9      3.419      4.448
REMARK  7 active torsions:
REMARK  status: ('A' for Active; 'I' for Inactive)
REMARK    1  A    between atoms: C_4  and  C_5 
REMARK    2  A    between atoms: C_9  and  C_10 
REMARK       I    between atoms: C_10  and  N_11 
REMARK    3  A    between atoms: N_11  and  N_12 
REMARK       I    between atoms: N_12  and  C_13 
REMARK    4  A    between atoms: C_13  and  C_14 
REMARK    5  A    between atoms: C_14  and  C_15 
REMARK    6  A    between atoms: C_15  and  N_16 
REMARK    7  A    between atoms: C_15  and  C_20 
REMARK       I    between atoms: N_16  and  C_17 
REMARK       I    between atoms: C_17  and  N_18 
ROOT
HETATM    1  N   UNL     1       4.209  27.442  53.440  1.00  0.00    -0.267 N 
HETATM    2  C   UNL     1       4.443  28.766  53.754  1.00  0.00     0.238 C 
HETATM    3  O   UNL     1       4.445  29.658  52.907  1.00  0.00    -0.272 OA
HETATM    4  H   UNL     1       4.652  26.747  54.058  1.00  0.00     0.190 HD
ENDROOT
BRANCH   1   5
HETATM    5  N   UNL     1       4.114  27.127  52.074  1.00  0.00    -0.262 N 
HETATM    6  C   UNL     1       5.057  26.421  51.350  1.00  0.00     0.288 C 
HETATM    7  O   UNL     1       5.032  26.493  50.122  1.00  0.00    -0.264 OA
HETATM    8  H   UNL     1       3.444  27.676  51.536  1.00  0.00     0.190 HD
BRANCH   6   9
HETATM    9  C   UNL     1       6.032  25.623  52.052  1.00  0.00     0.121 A 
HETATM   10  N   UNL     1       7.268  26.026  52.460  1.00  0.00    -0.272 N 
HETATM   11  N   UNL     1       8.002  25.071  53.054  1.00  0.00    -0.174 NA
HETATM   12  H   UNL     1       7.679  26.941  52.317  1.00  0.00     0.189 HD
HETATM   13  C   UNL     1       7.176  24.011  53.115  1.00  0.00     0.089 A 
HETATM   14  C   UNL     1       5.927  24.327  52.514  1.00  0.00     0.071 A 
BRANCH  13  15
HETATM   15  C   UNL     1       7.584  22.736  53.708  1.00  0.00    -0.006 A 
HETATM   16  C   UNL     1       7.604  22.564  55.100  1.00  0.00     0.014 A 
HETATM   17  C   UNL     1       7.968  21.336  55.660  1.00  0.00     0.001 A 
HETATM   18  C   UNL     1       8.312  20.267  54.836  1.00  0.00     0.000 A 
HETATM   19  C   UNL     1       8.301  20.425  53.452  1.00  0.00     0.001 A 
HETATM   20  C   UNL     1       7.943  21.654  52.891  1.00  0.00     0.014 A 
ENDBRANCH  13  15
ENDBRANCH   6   9
ENDBRANCH   1   5
BRANCH   2  21
HETATM   21  C   UNL     1       4.723  29.051  55.218  1.00  0.00     0.134 C 
BRANCH  21  22
HETATM   22  C   UNL     1       5.651  28.038  55.915  1.00  0.00     0.127 C 
BRANCH  22  23
HETATM   23  N   UNL     1       5.050  27.123  56.890  1.00  0.00    -0.339 N 
HETATM   24  C   UNL     1       5.017  25.770  56.851  1.00  0.00     0.292 C 
HETATM   25  N   UNL     1       4.262  25.230  57.834  1.00  0.00    -0.254 NA
HETATM   26  O   UNL     1       5.571  25.068  56.018  1.00  0.00    -0.254 OA
HETATM   27  H   UNL     1       3.428  25.723  58.116  1.00  0.00     0.128 HD
HETATM   28  H   UNL     1       4.113  24.233  57.714  1.00  0.00     0.128 HD
HETATM   29  H   UNL     1       4.662  27.550  57.719  1.00  0.00     0.164 HD
ENDBRANCH  22  23
BRANCH  22  30
HETATM   30  C   UNL     1       6.961  28.638  56.418  1.00  0.00    -0.035 A 
HETATM   31  C   UNL     1       7.130  29.083  57.740  1.00  0.00     0.011 A 
HETATM   32  C   UNL     1       8.334  29.660  58.153  1.00  0.00     0.024 A 
HETATM   33  C   UNL     1       9.383  29.802  57.248  1.00  0.00     0.034 A 
HETATM   34 CL   UNL     1      10.862  30.516  57.757  1.00  0.00    -0.084 Cl
HETATM   35  C   UNL     1       9.239  29.367  55.934  1.00  0.00     0.024 A 
HETATM   36  C   UNL     1       8.036  28.787  55.523  1.00  0.00     0.011 A 
ENDBRANCH  22  30
ENDBRANCH  21  22
ENDBRANCH   2  21
TORSDOF 7
ENDMDL
MODEL 7
REMARK VINA RESULT:      -9.6      2.613      3.486
REMARK  7 active torsions:
REMARK  status: ('A' for Active; 'I' for Inactive)
REMARK    1  A    between atoms: C_4  and  C_5 
REMARK    2  A    between atoms: C_9  and  C_10 
REMARK       I    between atoms: C_10  and  N_11 
REMARK    3  A    between atoms: N_11  and  N_12 
REMARK       I    between atoms: N_12  and  C_13 
REMARK    4  A    between atoms: C_13  and  C_14 
REMARK    5  A    between atoms: C_14  and  C_15 
REMARK    6  A    between atoms: C_15  and  N_16 
REMARK    7  A    between atoms: C_15  and  C_20 
REMARK       I    between atoms: N_16  and  C_17 
REMARK       I    between atoms: C_17  and  N_18 
ROOT
HETATM    1  N   UNL     1       5.323  29.534  53.717  1.00  0.00    -0.267 N 
HETATM    2  C   UNL     1       4.345  30.239  54.391  1.00  0.00     0.238 C 
HETATM    3  O   UNL     1       3.292  30.589  53.857  1.00  0.00    -0.272 OA
HETATM    4  H   UNL     1       6.288  29.675  54.047  1.00  0.00     0.190 HD
ENDROOT
BRANCH   1   5
HETATM    5  N   UNL     1       5.129  29.354  52.336  1.00  0.00    -0.262 N 
HETATM    6  C   UNL     1       5.355  28.178  51.646  1.00  0.00     0.288 C 
HETATM    7  O   UNL     1       5.472  28.227  50.422  1.00  0.00    -0.264 OA
HETATM    8  H   UNL     1       5.074  30.207  51.780  1.00  0.00     0.190 HD
BRANCH   6   9
HETATM    9  C   UNL     1       5.442  26.938  52.376  1.00  0.00     0.121 A 
HETATM   10  N   UNL     1       4.438  26.334  53.072  1.00  0.00    -0.272 N 
HETATM   11  N   UNL     1       4.795  25.204  53.705  1.00  0.00    -0.174 NA
HETATM   12  H   UNL     1       3.493  26.679  53.183  1.00  0.00     0.189 HD
HETATM   13  C   UNL     1       6.074  25.011  53.338  1.00  0.00     0.089 A 
HETATM   14  C   UNL     1       6.506  26.067  52.490  1.00  0.00     0.071 A 
BRANCH  13  15
HETATM   15  C   UNL     1       6.856  23.864  53.806  1.00  0.00    -0.006 A 
HETATM   16  C   UNL     1       7.564  23.059  52.901  1.00  0.00     0.014 A 
HETATM   17  C   UNL     1       8.332  21.983  53.356  1.00  0.00     0.001 A 
HETATM   18  C   UNL     1       8.404  21.703  54.719  1.00  0.00     0.000 A 
HETATM   19  C   UNL     1       7.702  22.491  55.628  1.00  0.00     0.001 A 
HETATM   20  C   UNL     1       6.929  23.564  55.174  1.00  0.00     0.014 A 
ENDBRANCH  13  15
ENDBRANCH   6   9
ENDBRANCH   1   5
BRANCH   2  21
HETATM   21  C   UNL     1       4.662  30.578  55.836  1.00  0.00     0.134 C 
BRANCH  21  22
HETATM   22  C   UNL     1       5.557  29.559  56.565  1.00  0.00     0.127 C 
BRANCH  22  23
HETATM   23  N   UNL     1       4.960  28.272  56.937  1.00  0.00    -0.339 N 
HETATM   24  C   UNL     1       5.434  27.030  56.680  1.00  0.00     0.292 C 
HETATM   25  N   UNL     1       4.572  26.051  57.036  1.00  0.00    -0.254 NA
HETATM   26  O   UNL     1       6.507  26.771  56.156  1.00  0.00    -0.254 OA
HETATM   27  H   UNL     1       3.585  26.222  56.919  1.00  0.00     0.128 HD
HETATM   28  H   UNL     1       4.859  25.134  56.706  1.00  0.00     0.128 HD
HETATM   29  H   UNL     1       4.123  28.318  57.500  1.00  0.00     0.164 HD
ENDBRANCH  22  23
BRANCH  22  30
HETATM   30  C   UNL     1       6.389  30.157  57.695  1.00  0.00    -0.035 A 
HETATM   31  C   UNL     1       6.045  31.362  58.330  1.00  0.00     0.011 A 
HETATM   32  C   UNL     1       6.853  31.896  59.339  1.00  0.00     0.024 A 
HETATM   33  C   UNL     1       8.016  31.232  59.722  1.00  0.00     0.034 A 
HETATM   34 CL   UNL     1       9.010  31.894  60.959  1.00  0.00    -0.084 Cl
HETATM   35  C   UNL     1       8.375  30.037  59.108  1.00  0.00     0.024 A 
HETATM   36  C   UNL     1       7.565  29.502  58.103  1.00  0.00     0.011 A 
ENDBRANCH  22  30
ENDBRANCH  21  22
ENDBRANCH   2  21
TORSDOF 7
ENDMDL
MODEL 8
REMARK VINA RESULT:      -9.6      3.239      4.326
REMARK  7 active torsions:
REMARK  status: ('A' for Active; 'I' for Inactive)
REMARK    1  A    between atoms: C_4  and  C_5 
REMARK    2  A    between atoms: C_9  and  C_10 
REMARK       I    between atoms: C_10  and  N_11 
REMARK    3  A    between atoms: N_11  and  N_12 
REMARK       I    between atoms: N_12  and  C_13 
REMARK    4  A    between atoms: C_13  and  C_14 
REMARK    5  A    between atoms: C_14  and  C_15 
REMARK    6  A    between atoms: C_15  and  N_16 
REMARK    7  A    between atoms: C_15  and  C_20 
REMARK       I    between atoms: N_16  and  C_17 
REMARK       I    between atoms: C_17  and  N_18 
ROOT
HETATM    1  N   UNL     1       4.055  27.470  54.531  1.00  0.00    -0.267 N 
HETATM    2  C   UNL     1       4.383  28.699  55.068  1.00  0.00     0.238 C 
HETATM    3  O   UNL     1       4.497  29.714  54.380  1.00  0.00    -0.272 OA
HETATM    4  H   UNL     1       4.411  26.648  55.039  1.00  0.00     0.190 HD
ENDROOT
BRANCH   1   5
HETATM    5  N   UNL     1       3.997  27.391  53.129  1.00  0.00    -0.262 N 
HETATM    6  C   UNL     1       4.962  26.820  52.321  1.00  0.00     0.288 C 
HETATM    7  O   UNL     1       4.967  27.099  51.122  1.00  0.00    -0.264 OA
HETATM    8  H   UNL     1       3.336  28.022  52.675  1.00  0.00     0.190 HD
BRANCH   6   9
HETATM    9  C   UNL     1       5.924  25.918  52.902  1.00  0.00     0.121 A 
HETATM   10  N   UNL     1       7.107  26.259  53.487  1.00  0.00    -0.272 N 
HETATM   11  N   UNL     1       7.845  25.219  53.909  1.00  0.00    -0.174 NA
HETATM   12  H   UNL     1       7.481  27.195  53.584  1.00  0.00     0.189 HD
HETATM   13  C   UNL     1       7.071  24.146  53.666  1.00  0.00     0.089 A 
HETATM   14  C   UNL     1       5.853  24.548  53.054  1.00  0.00     0.071 A 
BRANCH  13  15
HETATM   15  C   UNL     1       7.501  22.784  53.990  1.00  0.00    -0.006 A 
HETATM   16  C   UNL     1       7.874  21.889  52.977  1.00  0.00     0.014 A 
HETATM   17  C   UNL     1       8.311  20.598  53.293  1.00  0.00     0.001 A 
HETATM   18  C   UNL     1       8.382  20.192  54.624  1.00  0.00     0.000 A 
HETATM   19  C   UNL     1       8.010  21.069  55.640  1.00  0.00     0.001 A 
HETATM   20  C   UNL     1       7.568  22.357  55.324  1.00  0.00     0.014 A 
ENDBRANCH  13  15
ENDBRANCH   6   9
ENDBRANCH   1   5
BRANCH   2  21
HETATM   21  C   UNL     1       4.618  28.716  56.567  1.00  0.00     0.134 C 
BRANCH  21  22
HETATM   22  C   UNL     1       5.336  29.970  57.101  1.00  0.00     0.127 C 
BRANCH  22  23
HETATM   23  N   UNL     1       4.836  31.278  56.667  1.00  0.00    -0.339 N 
HETATM   24  C   UNL     1       3.795  31.980  57.173  1.00  0.00     0.292 C 
HETATM   25  N   UNL     1       3.506  33.088  56.455  1.00  0.00    -0.254 NA
HETATM   26  O   UNL     1       3.138  31.670  58.155  1.00  0.00    -0.254 OA
HETATM   27  H   UNL     1       3.614  33.046  55.453  1.00  0.00     0.128 HD
HETATM   28  H   UNL     1       2.636  33.528  56.742  1.00  0.00     0.128 HD
HETATM   29  H   UNL     1       5.365  31.735  55.938  1.00  0.00     0.164 HD
ENDBRANCH  22  23
BRANCH  22  30
HETATM   30  C   UNL     1       6.858  29.887  57.045  1.00  0.00    -0.035 A 
HETATM   31  C   UNL     1       7.544  29.292  55.972  1.00  0.00     0.011 A 
HETATM   32  C   UNL     1       8.939  29.205  55.975  1.00  0.00     0.024 A 
HETATM   33  C   UNL     1       9.665  29.707  57.051  1.00  0.00     0.034 A 
HETATM   34 CL   UNL     1      11.381  29.593  57.055  1.00  0.00    -0.084 Cl
HETATM   35  C   UNL     1       9.008  30.301  58.124  1.00  0.00     0.024 A 
HETATM   36  C   UNL     1       7.613  30.392  58.119  1.00  0.00     0.011 A 
ENDBRANCH  22  30
ENDBRANCH  21  22
ENDBRANCH   2  21
TORSDOF 7
ENDMDL
MODEL 9
REMARK VINA RESULT:      -9.4      3.687      9.270
REMARK  7 active torsions:
REMARK  status: ('A' for Active; 'I' for Inactive)
REMARK    1  A    between atoms: C_4  and  C_5 
REMARK    2  A    between atoms: C_9  and  C_10 
REMARK       I    between atoms: C_10  and  N_11 
REMARK    3  A    between atoms: N_11  and  N_12 
REMARK       I    between atoms: N_12  and  C_13 
REMARK    4  A    between atoms: C_13  and  C_14 
REMARK    5  A    between atoms: C_14  and  C_15 
REMARK    6  A    between atoms: C_15  and  N_16 
REMARK    7  A    between atoms: C_15  and  C_20 
REMARK       I    between atoms: N_16  and  C_17 
REMARK       I    between atoms: C_17  and  N_18 
ROOT
HETATM    1  N   UNL     1       4.625  29.131  57.576  1.00  0.00    -0.267 N 
HETATM    2  C   UNL     1       5.206  28.263  56.673  1.00  0.00     0.238 C 
HETATM    3  O   UNL     1       5.273  28.507  55.468  1.00  0.00    -0.272 OA
HETATM    4  H   UNL     1       4.211  28.698  58.414  1.00  0.00     0.190 HD
ENDROOT
BRANCH   1   5
HETATM    5  N   UNL     1       3.976  30.256  57.039  1.00  0.00    -0.262 N 
HETATM    6  C   UNL     1       4.016  31.530  57.573  1.00  0.00     0.288 C 
HETATM    7  O   UNL     1       3.162  32.344  57.221  1.00  0.00    -0.264 OA
HETATM    8  H   UNL     1       3.226  30.062  56.375  1.00  0.00     0.190 HD
BRANCH   6   9
HETATM    9  C   UNL     1       5.053  31.867  58.517  1.00  0.00     0.121 A 
HETATM   10  N   UNL     1       6.394  31.887  58.276  1.00  0.00    -0.272 N 
HETATM   11  N   UNL     1       7.152  32.190  59.343  1.00  0.00    -0.174 NA
HETATM   12  H   UNL     1       6.851  31.656  57.402  1.00  0.00     0.189 HD
HETATM   13  C   UNL     1       6.260  32.466  60.311  1.00  0.00     0.089 A 
HETATM   14  C   UNL     1       4.937  32.293  59.824  1.00  0.00     0.071 A 
BRANCH  13  15
HETATM   15  C   UNL     1       6.671  32.858  61.662  1.00  0.00    -0.006 A 
HETATM   16  C   UNL     1       5.960  33.835  62.374  1.00  0.00     0.014 A 
HETATM   17  C   UNL     1       6.338  34.186  63.673  1.00  0.00     0.001 A 
HETATM   18  C   UNL     1       7.429  33.561  64.275  1.00  0.00     0.000 A 
HETATM   19  C   UNL     1       8.147  32.593  63.577  1.00  0.00     0.001 A 
HETATM   20  C   UNL     1       7.773  32.246  62.276  1.00  0.00     0.014 A 
ENDBRANCH  13  15
ENDBRANCH   6   9
ENDBRANCH   1   5
BRANCH   2  21
HETATM   21  C   UNL     1       5.738  26.969  57.259  1.00  0.00     0.134 C 
BRANCH  21  22
HETATM   22  C   UNL     1       7.259  26.768  57.126  1.00  0.00     0.127 C 
BRANCH  22  23
HETATM   23  N   UNL     1       8.077  27.945  56.815  1.00  0.00    -0.339 N 
HETATM   24  C   UNL     1       8.404  28.970  57.635  1.00  0.00     0.292 C 
HETATM   25  N   UNL     1       9.056  29.970  57.000  1.00  0.00    -0.254 NA
HETATM   26  O   UNL     1       8.137  29.044  58.825  1.00  0.00    -0.254 OA
HETATM   27  H   UNL     1       8.788  30.182  56.050  1.00  0.00     0.128 HD
HETATM   28  H   UNL     1       9.165  30.799  57.576  1.00  0.00     0.128 HD
HETATM   29  H   UNL     1       8.491  27.966  55.894  1.00  0.00     0.164 HD
ENDBRANCH  22  23
BRANCH  22  30
HETATM   30  C   UNL     1       7.656  25.554  56.293  1.00  0.00    -0.035 A 
HETATM   31  C   UNL     1       8.584  24.599  56.742  1.00  0.00     0.011 A 
HETATM   32  C   UNL     1       8.948  23.518  55.933  1.00  0.00     0.024 A 
HETATM   33  C   UNL     1       8.391  23.382  54.664  1.00  0.00     0.034 A 
HETATM   34 CL   UNL     1       8.845  22.054  53.669  1.00  0.00    -0.084 Cl
HETATM   35  C   UNL     1       7.470  24.314  54.198  1.00  0.00     0.024 A 
HETATM   36  C   UNL     1       7.104  25.392  55.009  1.00  0.00     0.011 A 
ENDBRANCH  22  30
ENDBRANCH  21  22
ENDBRANCH   2  21
TORSDOF 7
ENDMDL
MODEL 10
REMARK VINA RESULT:      -9.2      5.813      9.002
REMARK  7 active torsions:
REMARK  status: ('A' for Active; 'I' for Inactive)
REMARK    1  A    between atoms: C_4  and  C_5 
REMARK    2  A    between atoms: C_9  and  C_10 
REMARK       I    between atoms: C_10  and  N_11 
REMARK    3  A    between atoms: N_11  and  N_12 
REMARK       I    between atoms: N_12  and  C_13 
REMARK    4  A    between atoms: C_13  and  C_14 
REMARK    5  A    between atoms: C_14  and  C_15 
REMARK    6  A    between atoms: C_15  and  N_16 
REMARK    7  A    between atoms: C_15  and  C_20 
REMARK       I    between atoms: N_16  and  C_17 
REMARK       I    between atoms: C_17  and  N_18 
ROOT
HETATM    1  N   UNL     1       4.135  27.059  51.959  1.00  0.00    -0.267 N 
HETATM    2  C   UNL     1       4.943  27.537  50.947  1.00  0.00     0.238 C 
HETATM    3  O   UNL     1       5.806  28.394  51.136  1.00  0.00    -0.272 OA
HETATM    4  H   UNL     1       3.203  26.728  51.673  1.00  0.00     0.190 HD
ENDROOT
BRANCH   1   5
HETATM    5  N   UNL     1       4.240  27.702  53.205  1.00  0.00    -0.262 N 
HETATM    6  C   UNL     1       4.935  27.216  54.297  1.00  0.00     0.288 C 
HETATM    7  O   UNL     1       4.688  27.684  55.408  1.00  0.00    -0.264 OA
HETATM    8  H   UNL     1       3.551  28.430  53.390  1.00  0.00     0.190 HD
BRANCH   6   9
HETATM    9  C   UNL     1       5.926  26.187  54.101  1.00  0.00     0.121 A 
HETATM   10  N   UNL     1       7.149  26.338  53.522  1.00  0.00    -0.272 N 
HETATM   11  N   UNL     1       7.866  25.206  53.418  1.00  0.00    -0.174 NA
HETATM   12  H   UNL     1       7.530  27.194  53.136  1.00  0.00     0.189 HD
HETATM   13  C   UNL     1       7.109  24.281  54.036  1.00  0.00     0.089 A 
HETATM   14  C   UNL     1       5.897  24.864  54.493  1.00  0.00     0.071 A 
BRANCH  13  15
HETATM   15  C   UNL     1       7.531  22.883  54.159  1.00  0.00    -0.006 A 
HETATM   16  C   UNL     1       7.893  22.140  53.026  1.00  0.00     0.014 A 
HETATM   17  C   UNL     1       8.322  20.815  53.152  1.00  0.00     0.001 A 
HETATM   18  C   UNL     1       8.395  20.221  54.410  1.00  0.00     0.000 A 
HETATM   19  C   UNL     1       8.033  20.946  55.543  1.00  0.00     0.001 A 
HETATM   20  C   UNL     1       7.599  22.269  55.418  1.00  0.00     0.014 A 
ENDBRANCH  13  15
ENDBRANCH   6   9
ENDBRANCH   1   5
BRANCH   2  21
HETATM   21  C   UNL     1       4.681  26.953  49.571  1.00  0.00     0.134 C 
BRANCH  21  22
HETATM   22  C   UNL     1       3.274  27.219  49.005  1.00  0.00     0.127 C 
BRANCH  22  23
HETATM   23  N   UNL     1       2.942  26.631  47.703  1.00  0.00    -0.339 N 
HETATM   24  C   UNL     1       2.830  25.320  47.387  1.00  0.00     0.292 C 
HETATM   25  N   UNL     1       2.650  25.108  46.064  1.00  0.00    -0.254 NA
HETATM   26  O   UNL     1       2.906  24.388  48.173  1.00  0.00    -0.254 OA
HETATM   27  H   UNL     1       3.125  25.719  45.416  1.00  0.00     0.128 HD
HETATM   28  H   UNL     1       2.719  24.128  45.808  1.00  0.00     0.128 HD
HETATM   29  H   UNL     1       2.715  27.284  46.967  1.00  0.00     0.164 HD
ENDBRANCH  22  23
BRANCH  22  30
HETATM   30  C   UNL     1       2.823  28.672  49.114  1.00  0.00    -0.035 A 
HETATM   31  C   UNL     1       3.503  29.724  48.478  1.00  0.00     0.011 A 
HETATM   32  C   UNL     1       3.079  31.047  48.631  1.00  0.00     0.024 A 
HETATM   33  C   UNL     1       1.971  31.334  49.425  1.00  0.00     0.034 A 
HETATM   34 CL   UNL     1       1.455  32.963  49.616  1.00  0.00    -0.084 Cl
HETATM   35  C   UNL     1       1.281  30.308  50.063  1.00  0.00     0.024 A 
HETATM   36  C   UNL     1       1.703  28.986  49.906  1.00  0.00     0.011 A 
ENDBRANCH  22  30
ENDBRANCH  21  22
ENDBRANCH   2  21
TORSDOF 7
ENDMDL
