MODEL 1
REMARK VINA RESULT:      -9.1      0.000      0.000
REMARK  8 active torsions:
REMARK  status: ('A' for Active; 'I' for Inactive)
REMARK    1  A    between atoms: C_8  and  C_9 
REMARK       I    between atoms: C_9  and  N_10 
REMARK    2  A    between atoms: N_10  and  N_11 
REMARK    3  A    between atoms: N_11  and  C_12 
REMARK    4  A    between atoms: C_12  and  N_13 
REMARK    5  A    between atoms: N_13  and  C_14 
REMARK    6  A    between atoms: C_15  and  O_16 
REMARK    7  A    between atoms: C_19  and  O_20 
REMARK    8  A    between atoms: C_26  and  C_27 
ROOT
HETATM    1  C   UNL     1       5.607  25.406  54.906  1.00  0.00     0.275 C 
HETATM    2  N   UNL     1       5.124  26.446  54.133  1.00  0.00    -0.263 N 
HETATM    3  O   UNL     1       5.306  25.267  56.090  1.00  0.00    -0.266 OA
HETATM    4  H   UNL     1       5.630  26.710  53.288  1.00  0.00     0.190 HD
ENDROOT
BRANCH   2   5
HETATM    5  N   UNL     1       4.360  27.450  54.754  1.00  0.00    -0.273 N 
HETATM    6  H   UNL     1       3.901  27.146  55.614  1.00  0.00     0.189 HD
BRANCH   5   7
HETATM    7  C   UNL     1       4.735  28.766  54.671  1.00  0.00     0.191 C 
HETATM    8  S   UNL     1       3.779  29.981  54.014  1.00  0.00    -0.039 SA
BRANCH   7   9
HETATM    9  N   UNL     1       5.976  29.098  55.125  1.00  0.00    -0.330 N 
HETATM   10  H   UNL     1       6.719  28.973  54.441  1.00  0.00     0.168 HD
BRANCH   9  11
HETATM   11  C   UNL     1       6.432  29.600  56.366  1.00  0.00     0.068 A 
HETATM   12  C   UNL     1       7.457  28.874  57.011  1.00  0.00     0.097 A 
HETATM   13  C   UNL     1       7.964  29.315  58.241  1.00  0.00     0.075 A 
HETATM   14  C   UNL     1       7.469  30.483  58.824  1.00  0.00     0.070 A 
HETATM   15  C   UNL     1       6.488  31.220  58.160  1.00  0.00     0.039 A 
HETATM   16  C   UNL     1       5.974  30.787  56.935  1.00  0.00     0.035 A 
BRANCH  12  17
HETATM   17  O   UNL     1       7.882  27.745  56.346  1.00  0.00    -0.354 OA
HETATM   18  C   UNL     1       8.300  26.638  57.135  1.00  0.00     0.210 C 
ENDBRANCH  12  17
BRANCH  14  19
HETATM   19  O   UNL     1       7.874  31.023  60.013  1.00  0.00    -0.356 OA
HETATM   20  C   UNL     1       8.645  32.217  59.951  1.00  0.00     0.210 C 
ENDBRANCH  14  19
ENDBRANCH   9  11
ENDBRANCH   7   9
ENDBRANCH   5   7
ENDBRANCH   2   5
BRANCH   1  21
HETATM   21  C   UNL     1       6.527  24.526  54.217  1.00  0.00     0.098 A 
HETATM   22  C   UNL     1       7.395  23.584  54.740  1.00  0.00     0.138 A 
HETATM   23  N   UNL     1       7.726  23.235  56.009  1.00  0.00    -0.370 N 
HETATM   24  N   UNL     1       7.988  22.985  53.658  1.00  0.00    -0.240 N 
HETATM   25  C   UNL     1       8.692  22.183  56.305  1.00  0.00     0.081 C 
HETATM   26  H   UNL     1       7.504  23.841  56.800  1.00  0.00     0.161 HD
HETATM   27  C   UNL     1       7.955  20.943  56.797  1.00  0.00     0.032 C 
HETATM   28  C   UNL     1       9.649  21.948  55.130  1.00  0.00     0.061 C 
HETATM   29  C   UNL     1       8.994  21.947  53.739  1.00  0.00     0.221 C 
HETATM   30  N   UNL     1       7.658  23.541  52.480  1.00  0.00    -0.181 NA
HETATM   31  C   UNL     1       6.755  24.465  52.821  1.00  0.00     0.160 A 
BRANCH  29  32
HETATM   32  C   UNL     1       8.410  20.614  53.333  1.00  0.00     0.409 C 
HETATM   33  F   UNL     1       7.118  20.457  53.682  1.00  0.00    -0.169 F 
HETATM   34  F   UNL     1       8.499  20.396  52.001  1.00  0.00    -0.169 F 
HETATM   35  F   UNL     1       9.101  19.605  53.928  1.00  0.00    -0.169 F 
ENDBRANCH  29  32
ENDBRANCH   1  21
TORSDOF 8
ENDMDL
MODEL 2
REMARK VINA RESULT:      -9.0      1.040      1.871
REMARK  8 active torsions:
REMARK  status: ('A' for Active; 'I' for Inactive)
REMARK    1  A    between atoms: C_8  and  C_9 
REMARK       I    between atoms: C_9  and  N_10 
REMARK    2  A    between atoms: N_10  and  N_11 
REMARK    3  A    between atoms: N_11  and  C_12 
REMARK    4  A    between atoms: C_12  and  N_13 
REMARK    5  A    between atoms: N_13  and  C_14 
REMARK    6  A    between atoms: C_15  and  O_16 
REMARK    7  A    between atoms: C_19  and  O_20 
REMARK    8  A    between atoms: C_26  and  C_27 
ROOT
HETATM    1  C   UNL     1       5.701  25.409  54.831  1.00  0.00     0.275 C 
HETATM    2  N   UNL     1       5.127  26.351  53.997  1.00  0.00    -0.263 N 
HETATM    3  O   UNL     1       5.483  25.376  56.040  1.00  0.00    -0.266 OA
HETATM    4  H   UNL     1       5.566  26.549  53.099  1.00  0.00     0.190 HD
ENDROOT
BRANCH   2   5
HETATM    5  N   UNL     1       4.361  27.382  54.570  1.00  0.00    -0.273 N 
HETATM    6  H   UNL     1       4.068  27.193  55.530  1.00  0.00     0.189 HD
BRANCH   5   7
HETATM    7  C   UNL     1       4.581  28.690  54.224  1.00  0.00     0.191 C 
HETATM    8  S   UNL     1       3.485  29.639  53.375  1.00  0.00    -0.039 SA
BRANCH   7   9
HETATM    9  N   UNL     1       5.778  29.241  54.568  1.00  0.00    -0.330 N 
HETATM   10  H   UNL     1       6.267  29.695  53.798  1.00  0.00     0.168 HD
BRANCH   9  11
HETATM   11  C   UNL     1       6.472  29.318  55.797  1.00  0.00     0.068 A 
HETATM   12  C   UNL     1       6.111  30.368  56.670  1.00  0.00     0.097 A 
HETATM   13  C   UNL     1       6.751  30.502  57.910  1.00  0.00     0.075 A 
HETATM   14  C   UNL     1       7.736  29.590  58.293  1.00  0.00     0.070 A 
HETATM   15  C   UNL     1       8.057  28.529  57.444  1.00  0.00     0.039 A 
HETATM   16  C   UNL     1       7.426  28.387  56.206  1.00  0.00     0.035 A 
BRANCH  12  17
HETATM   17  O   UNL     1       5.121  31.203  56.202  1.00  0.00    -0.354 OA
HETATM   18  C   UNL     1       3.932  31.307  56.976  1.00  0.00     0.210 C 
ENDBRANCH  12  17
BRANCH  14  19
HETATM   19  O   UNL     1       8.435  29.605  59.468  1.00  0.00    -0.356 OA
HETATM   20  C   UNL     1       9.189  30.776  59.755  1.00  0.00     0.210 C 
ENDBRANCH  14  19
ENDBRANCH   9  11
ENDBRANCH   7   9
ENDBRANCH   5   7
ENDBRANCH   2   5
BRANCH   1  21
HETATM   21  C   UNL     1       6.613  24.500  54.169  1.00  0.00     0.098 A 
HETATM   22  C   UNL     1       7.469  23.564  54.718  1.00  0.00     0.138 A 
HETATM   23  N   UNL     1       7.796  23.248  55.997  1.00  0.00    -0.370 N 
HETATM   24  N   UNL     1       8.057  22.928  53.655  1.00  0.00    -0.240 N 
HETATM   25  C   UNL     1       8.750  22.194  56.324  1.00  0.00     0.081 C 
HETATM   26  H   UNL     1       7.580  23.878  56.770  1.00  0.00     0.161 HD
HETATM   27  C   UNL     1       8.001  20.976  56.850  1.00  0.00     0.032 C 
HETATM   28  C   UNL     1       9.706  21.916  55.157  1.00  0.00     0.061 C 
HETATM   29  C   UNL     1       9.052  21.882  53.766  1.00  0.00     0.221 C 
HETATM   30  N   UNL     1       7.735  23.454  52.461  1.00  0.00    -0.181 NA
HETATM   31  C   UNL     1       6.841  24.397  52.775  1.00  0.00     0.160 A 
BRANCH  29  32
HETATM   32  C   UNL     1       8.454  20.545  53.397  1.00  0.00     0.409 C 
HETATM   33  F   UNL     1       8.475  20.286  52.075  1.00  0.00    -0.169 F 
HETATM   34  F   UNL     1       9.068  19.515  54.021  1.00  0.00    -0.169 F 
HETATM   35  F   UNL     1       7.151  20.498  53.783  1.00  0.00    -0.169 F 
ENDBRANCH  29  32
ENDBRANCH   1  21
TORSDOF 8
ENDMDL
MODEL 3
REMARK VINA RESULT:      -8.8      3.157      5.125
REMARK  8 active torsions:
REMARK  status: ('A' for Active; 'I' for Inactive)
REMARK    1  A    between atoms: C_8  and  C_9 
REMARK       I    between atoms: C_9  and  N_10 
REMARK    2  A    between atoms: N_10  and  N_11 
REMARK    3  A    between atoms: N_11  and  C_12 
REMARK    4  A    between atoms: C_12  and  N_13 
REMARK    5  A    between atoms: N_13  and  C_14 
REMARK    6  A    between atoms: C_15  and  O_16 
REMARK    7  A    between atoms: C_19  and  O_20 
REMARK    8  A    between atoms: C_26  and  C_27 
ROOT
HETATM    1  C   UNL     1       7.849  28.321  56.650  1.00  0.00     0.275 C 
HETATM    2  N   UNL     1       7.448  28.903  57.839  1.00  0.00    -0.263 N 
HETATM    3  O   UNL     1       8.441  28.947  55.773  1.00  0.00    -0.266 OA
HETATM    4  H   UNL     1       6.703  28.464  58.377  1.00  0.00     0.190 HD
ENDROOT
BRANCH   2   5
HETATM    5  N   UNL     1       7.614  30.290  58.000  1.00  0.00    -0.273 N 
HETATM    6  H   UNL     1       6.805  30.839  57.701  1.00  0.00     0.189 HD
BRANCH   5   7
HETATM    7  C   UNL     1       8.369  30.789  59.030  1.00  0.00     0.191 C 
HETATM    8  S   UNL     1       9.857  31.541  58.831  1.00  0.00    -0.039 SA
BRANCH   7   9
HETATM    9  N   UNL     1       7.889  30.635  60.295  1.00  0.00    -0.330 N 
HETATM   10  H   UNL     1       7.707  29.668  60.559  1.00  0.00     0.168 HD
BRANCH   9  11
HETATM   11  C   UNL     1       7.608  31.562  61.326  1.00  0.00     0.068 A 
HETATM   12  C   UNL     1       6.426  32.323  61.195  1.00  0.00     0.097 A 
HETATM   13  C   UNL     1       6.079  33.257  62.182  1.00  0.00     0.075 A 
HETATM   14  C   UNL     1       6.892  33.425  63.304  1.00  0.00     0.070 A 
HETATM   15  C   UNL     1       8.035  32.637  63.449  1.00  0.00     0.039 A 
HETATM   16  C   UNL     1       8.391  31.706  62.470  1.00  0.00     0.035 A 
BRANCH  12  17
HETATM   17  O   UNL     1       5.691  32.071  60.058  1.00  0.00    -0.354 OA
HETATM   18  C   UNL     1       5.177  33.192  59.349  1.00  0.00     0.210 C 
ENDBRANCH  12  17
BRANCH  14  19
HETATM   19  O   UNL     1       6.670  34.295  64.335  1.00  0.00    -0.356 OA
HETATM   20  C   UNL     1       6.753  33.768  65.654  1.00  0.00     0.210 C 
ENDBRANCH  14  19
ENDBRANCH   9  11
ENDBRANCH   7   9
ENDBRANCH   5   7
ENDBRANCH   2   5
BRANCH   1  21
HETATM   21  C   UNL     1       7.474  26.929  56.509  1.00  0.00     0.098 A 
HETATM   22  C   UNL     1       7.195  26.210  55.362  1.00  0.00     0.138 A 
HETATM   23  N   UNL     1       7.099  26.556  54.053  1.00  0.00    -0.370 N 
HETATM   24  N   UNL     1       6.960  24.925  55.778  1.00  0.00    -0.240 N 
HETATM   25  C   UNL     1       6.785  25.589  53.007  1.00  0.00     0.081 C 
HETATM   26  H   UNL     1       7.004  27.532  53.769  1.00  0.00     0.161 HD
HETATM   27  C   UNL     1       8.046  25.276  52.211  1.00  0.00     0.032 C 
HETATM   28  C   UNL     1       6.052  24.365  53.572  1.00  0.00     0.061 C 
HETATM   29  C   UNL     1       6.601  23.827  54.903  1.00  0.00     0.221 C 
HETATM   30  N   UNL     1       6.953  24.778  57.113  1.00  0.00    -0.181 NA
HETATM   31  C   UNL     1       7.285  25.994  57.555  1.00  0.00     0.160 A 
BRANCH  29  32
HETATM   32  C   UNL     1       7.761  22.872  54.752  1.00  0.00     0.409 C 
HETATM   33  F   UNL     1       7.831  22.288  53.540  1.00  0.00    -0.169 F 
HETATM   34  F   UNL     1       8.953  23.468  54.984  1.00  0.00    -0.169 F 
HETATM   35  F   UNL     1       7.657  21.869  55.664  1.00  0.00    -0.169 F 
ENDBRANCH  29  32
ENDBRANCH   1  21
TORSDOF 8
ENDMDL
MODEL 4
REMARK VINA RESULT:      -8.6      5.093      9.318
REMARK  8 active torsions:
REMARK  status: ('A' for Active; 'I' for Inactive)
REMARK    1  A    between atoms: C_8  and  C_9 
REMARK       I    between atoms: C_9  and  N_10 
REMARK    2  A    between atoms: N_10  and  N_11 
REMARK    3  A    between atoms: N_11  and  C_12 
REMARK    4  A    between atoms: C_12  and  N_13 
REMARK    5  A    between atoms: N_13  and  C_14 
REMARK    6  A    between atoms: C_15  and  O_16 
REMARK    7  A    between atoms: C_19  and  O_20 
REMARK    8  A    between atoms: C_26  and  C_27 
ROOT
HETATM    1  C   UNL     1       6.260  29.323  57.383  1.00  0.00     0.275 C 
HETATM    2  N   UNL     1       6.782  28.215  56.742  1.00  0.00    -0.263 N 
HETATM    3  O   UNL     1       5.069  29.623  57.321  1.00  0.00    -0.266 OA
HETATM    4  H   UNL     1       7.782  28.182  56.548  1.00  0.00     0.190 HD
ENDROOT
BRANCH   2   5
HETATM    5  N   UNL     1       5.946  27.473  55.888  1.00  0.00    -0.273 N 
HETATM    6  H   UNL     1       4.950  27.613  56.063  1.00  0.00     0.189 HD
BRANCH   5   7
HETATM    7  C   UNL     1       6.328  27.202  54.599  1.00  0.00     0.191 C 
HETATM    8  S   UNL     1       5.532  27.782  53.238  1.00  0.00    -0.039 SA
BRANCH   7   9
HETATM    9  N   UNL     1       7.403  26.387  54.417  1.00  0.00    -0.330 N 
HETATM   10  H   UNL     1       8.296  26.875  54.376  1.00  0.00     0.168 HD
BRANCH   9  11
HETATM   11  C   UNL     1       7.522  24.984  54.288  1.00  0.00     0.068 A 
HETATM   12  C   UNL     1       7.533  24.231  55.483  1.00  0.00     0.097 A 
HETATM   13  C   UNL     1       7.641  22.834  55.432  1.00  0.00     0.075 A 
HETATM   14  C   UNL     1       7.722  22.182  54.201  1.00  0.00     0.070 A 
HETATM   15  C   UNL     1       7.666  22.928  53.023  1.00  0.00     0.039 A 
HETATM   16  C   UNL     1       7.561  24.321  53.062  1.00  0.00     0.035 A 
BRANCH  12  17
HETATM   17  O   UNL     1       7.435  24.970  56.640  1.00  0.00    -0.354 OA
HETATM   18  C   UNL     1       8.537  24.929  57.539  1.00  0.00     0.210 C 
ENDBRANCH  12  17
BRANCH  14  19
HETATM   19  O   UNL     1       7.829  20.832  54.011  1.00  0.00    -0.356 OA
HETATM   20  C   UNL     1       8.420  20.397  52.792  1.00  0.00     0.210 C 
ENDBRANCH  14  19
ENDBRANCH   9  11
ENDBRANCH   7   9
ENDBRANCH   5   7
ENDBRANCH   2   5
BRANCH   1  21
HETATM   21  C   UNL     1       7.238  30.120  58.093  1.00  0.00     0.098 A 
HETATM   22  C   UNL     1       7.049  31.034  59.113  1.00  0.00     0.138 A 
HETATM   23  N   UNL     1       5.939  31.534  59.713  1.00  0.00    -0.370 N 
HETATM   24  N   UNL     1       8.304  31.457  59.470  1.00  0.00    -0.240 N 
HETATM   25  C   UNL     1       6.006  32.512  60.793  1.00  0.00     0.081 C 
HETATM   26  H   UNL     1       5.018  31.438  59.285  1.00  0.00     0.161 HD
HETATM   27  C   UNL     1       5.681  31.829  62.116  1.00  0.00     0.032 C 
HETATM   28  C   UNL     1       7.328  33.289  60.771  1.00  0.00     0.061 C 
HETATM   29  C   UNL     1       8.582  32.445  60.492  1.00  0.00     0.221 C 
HETATM   30  N   UNL     1       9.283  30.976  58.686  1.00  0.00    -0.181 NA
HETATM   31  C   UNL     1       8.635  30.148  57.862  1.00  0.00     0.160 A 
BRANCH  29  32
HETATM   32  C   UNL     1       9.167  31.784  61.718  1.00  0.00     0.409 C 
HETATM   33  F   UNL     1      10.511  31.700  61.702  1.00  0.00    -0.169 F 
HETATM   34  F   UNL     1       8.814  32.413  62.861  1.00  0.00    -0.169 F 
HETATM   35  F   UNL     1       8.697  30.512  61.827  1.00  0.00    -0.169 F 
ENDBRANCH  29  32
ENDBRANCH   1  21
TORSDOF 8
ENDMDL
MODEL 5
REMARK VINA RESULT:      -8.4      5.316      9.550
REMARK  8 active torsions:
REMARK  status: ('A' for Active; 'I' for Inactive)
REMARK    1  A    between atoms: C_8  and  C_9 
REMARK       I    between atoms: C_9  and  N_10 
REMARK    2  A    between atoms: N_10  and  N_11 
REMARK    3  A    between atoms: N_11  and  C_12 
REMARK    4  A    between atoms: C_12  and  N_13 
REMARK    5  A    between atoms: N_13  and  C_14 
REMARK    6  A    between atoms: C_15  and  O_16 
REMARK    7  A    between atoms: C_19  and  O_20 
REMARK    8  A    between atoms: C_26  and  C_27 
ROOT
HETATM    1  C   UNL     1       5.219  30.504  57.763  1.00  0.00     0.275 C 
HETATM    2  N   UNL     1       5.220  29.124  57.858  1.00  0.00    -0.263 N 
HETATM    3  O   UNL     1       4.438  31.117  57.038  1.00  0.00    -0.266 OA
HETATM    4  H   UNL     1       6.058  28.653  58.196  1.00  0.00     0.190 HD
ENDROOT
BRANCH   2   5
HETATM    5  N   UNL     1       4.380  28.389  57.003  1.00  0.00    -0.273 N 
HETATM    6  H   UNL     1       3.428  28.756  56.944  1.00  0.00     0.189 HD
BRANCH   5   7
HETATM    7  C   UNL     1       4.886  27.768  55.891  1.00  0.00     0.191 C 
HETATM    8  S   UNL     1       5.434  28.577  54.525  1.00  0.00    -0.039 SA
BRANCH   7   9
HETATM    9  N   UNL     1       4.916  26.406  55.887  1.00  0.00    -0.330 N 
HETATM   10  H   UNL     1       4.312  25.972  56.582  1.00  0.00     0.168 HD
BRANCH   9  11
HETATM   11  C   UNL     1       5.618  25.472  55.091  1.00  0.00     0.068 A 
HETATM   12  C   UNL     1       6.620  24.711  55.732  1.00  0.00     0.097 A 
HETATM   13  C   UNL     1       7.352  23.761  55.007  1.00  0.00     0.075 A 
HETATM   14  C   UNL     1       7.082  23.551  53.653  1.00  0.00     0.070 A 
HETATM   15  C   UNL     1       6.060  24.275  53.037  1.00  0.00     0.039 A 
HETATM   16  C   UNL     1       5.326  25.226  53.750  1.00  0.00     0.035 A 
BRANCH  12  17
HETATM   17  O   UNL     1       6.798  24.987  57.069  1.00  0.00    -0.354 OA
HETATM   18  C   UNL     1       8.069  25.481  57.472  1.00  0.00     0.210 C 
ENDBRANCH  12  17
BRANCH  14  19
HETATM   19  O   UNL     1       7.717  22.659  52.834  1.00  0.00    -0.356 OA
HETATM   20  C   UNL     1       8.048  21.393  53.392  1.00  0.00     0.210 C 
ENDBRANCH  14  19
ENDBRANCH   9  11
ENDBRANCH   7   9
ENDBRANCH   5   7
ENDBRANCH   2   5
BRANCH   1  21
HETATM   21  C   UNL     1       6.241  31.159  58.551  1.00  0.00     0.098 A 
HETATM   22  C   UNL     1       6.133  31.783  59.780  1.00  0.00     0.138 A 
HETATM   23  N   UNL     1       5.079  32.056  60.590  1.00  0.00    -0.370 N 
HETATM   24  N   UNL     1       7.405  32.179  60.109  1.00  0.00    -0.240 N 
HETATM   25  C   UNL     1       5.229  32.743  61.868  1.00  0.00     0.081 C 
HETATM   26  H   UNL     1       4.120  32.014  60.242  1.00  0.00     0.161 HD
HETATM   27  C   UNL     1       5.070  31.739  63.004  1.00  0.00     0.032 C 
HETATM   28  C   UNL     1       6.516  33.577  61.913  1.00  0.00     0.061 C 
HETATM   29  C   UNL     1       7.759  32.901  61.313  1.00  0.00     0.221 C 
HETATM   30  N   UNL     1       8.310  31.961  59.140  1.00  0.00    -0.181 NA
HETATM   31  C   UNL     1       7.603  31.323  58.201  1.00  0.00     0.160 A 
BRANCH  29  32
HETATM   32  C   UNL     1       8.493  31.995  62.274  1.00  0.00     0.409 C 
HETATM   33  F   UNL     1       8.360  32.350  63.567  1.00  0.00    -0.169 F 
HETATM   34  F   UNL     1       8.104  30.705  62.166  1.00  0.00    -0.169 F 
HETATM   35  F   UNL     1       9.825  32.012  62.000  1.00  0.00    -0.169 F 
ENDBRANCH  29  32
ENDBRANCH   1  21
TORSDOF 8
ENDMDL
MODEL 6
REMARK VINA RESULT:      -8.3      3.396      5.251
REMARK  8 active torsions:
REMARK  status: ('A' for Active; 'I' for Inactive)
REMARK    1  A    between atoms: C_8  and  C_9 
REMARK       I    between atoms: C_9  and  N_10 
REMARK    2  A    between atoms: N_10  and  N_11 
REMARK    3  A    between atoms: N_11  and  C_12 
REMARK    4  A    between atoms: C_12  and  N_13 
REMARK    5  A    between atoms: N_13  and  C_14 
REMARK    6  A    between atoms: C_15  and  O_16 
REMARK    7  A    between atoms: C_19  and  O_20 
REMARK    8  A    between atoms: C_26  and  C_27 
ROOT
HETATM    1  C   UNL     1       5.735  25.588  54.541  1.00  0.00     0.275 C 
HETATM    2  N   UNL     1       4.992  26.299  53.615  1.00  0.00    -0.263 N 
HETATM    3  O   UNL     1       5.648  25.787  55.751  1.00  0.00    -0.266 OA
HETATM    4  H   UNL     1       5.316  26.339  52.649  1.00  0.00     0.190 HD
ENDROOT
BRANCH   2   5
HETATM    5  N   UNL     1       4.201  27.371  54.064  1.00  0.00    -0.273 N 
HETATM    6  H   UNL     1       3.743  27.198  54.961  1.00  0.00     0.189 HD
BRANCH   5   7
HETATM    7  C   UNL     1       4.546  28.665  53.772  1.00  0.00     0.191 C 
HETATM    8  S   UNL     1       3.911  30.010  54.552  1.00  0.00    -0.039 SA
BRANCH   7   9
HETATM    9  N   UNL     1       5.440  28.867  52.764  1.00  0.00    -0.330 N 
HETATM   10  H   UNL     1       6.402  28.635  53.005  1.00  0.00     0.168 HD
BRANCH   9  11
HETATM   11  C   UNL     1       5.287  29.326  51.436  1.00  0.00     0.068 A 
HETATM   12  C   UNL     1       5.266  28.346  50.420  1.00  0.00     0.097 A 
HETATM   13  C   UNL     1       5.111  28.726  49.079  1.00  0.00     0.075 A 
HETATM   14  C   UNL     1       4.961  30.074  48.746  1.00  0.00     0.070 A 
HETATM   15  C   UNL     1       4.938  31.033  49.759  1.00  0.00     0.039 A 
HETATM   16  C   UNL     1       5.094  30.665  51.098  1.00  0.00     0.035 A 
BRANCH  12  17
HETATM   17  O   UNL     1       5.410  27.048  50.856  1.00  0.00    -0.354 OA
HETATM   18  C   UNL     1       4.786  26.026  50.088  1.00  0.00     0.210 C 
ENDBRANCH  12  17
BRANCH  14  19
HETATM   19  O   UNL     1       4.801  30.578  47.485  1.00  0.00    -0.356 OA
HETATM   20  C   UNL     1       3.473  30.641  46.979  1.00  0.00     0.210 C 
ENDBRANCH  14  19
ENDBRANCH   9  11
ENDBRANCH   7   9
ENDBRANCH   5   7
ENDBRANCH   2   5
BRANCH   1  21
HETATM   21  C   UNL     1       6.651  24.627  53.963  1.00  0.00     0.098 A 
HETATM   22  C   UNL     1       7.464  23.705  54.594  1.00  0.00     0.138 A 
HETATM   23  N   UNL     1       7.734  23.450  55.900  1.00  0.00    -0.370 N 
HETATM   24  N   UNL     1       8.078  23.002  53.589  1.00  0.00    -0.240 N 
HETATM   25  C   UNL     1       8.652  22.396  56.318  1.00  0.00     0.081 C 
HETATM   26  H   UNL     1       7.503  24.124  56.630  1.00  0.00     0.161 HD
HETATM   27  C   UNL     1       7.856  21.223  56.876  1.00  0.00     0.032 C 
HETATM   28  C   UNL     1       9.645  22.037  55.206  1.00  0.00     0.061 C 
HETATM   29  C   UNL     1       9.045  21.943  53.794  1.00  0.00     0.221 C 
HETATM   30  N   UNL     1       7.814  23.471  52.358  1.00  0.00    -0.181 NA
HETATM   31  C   UNL     1       6.930  24.447  52.587  1.00  0.00     0.160 A 
BRANCH  29  32
HETATM   32  C   UNL     1       8.431  20.600  53.471  1.00  0.00     0.409 C 
HETATM   33  F   UNL     1       7.136  20.495  53.824  1.00  0.00    -0.169 F 
HETATM   34  F   UNL     1       8.520  20.295  52.157  1.00  0.00    -0.169 F 
HETATM   35  F   UNL     1       9.097  19.617  54.133  1.00  0.00    -0.169 F 
ENDBRANCH  29  32
ENDBRANCH   1  21
TORSDOF 8
ENDMDL
MODEL 7
REMARK VINA RESULT:      -8.1      5.155      8.006
REMARK  8 active torsions:
REMARK  status: ('A' for Active; 'I' for Inactive)
REMARK    1  A    between atoms: C_8  and  C_9 
REMARK       I    between atoms: C_9  and  N_10 
REMARK    2  A    between atoms: N_10  and  N_11 
REMARK    3  A    between atoms: N_11  and  C_12 
REMARK    4  A    between atoms: C_12  and  N_13 
REMARK    5  A    between atoms: N_13  and  C_14 
REMARK    6  A    between atoms: C_15  and  O_16 
REMARK    7  A    between atoms: C_19  and  O_20 
REMARK    8  A    between atoms: C_26  and  C_27 
ROOT
HETATM    1  C   UNL     1       4.861  26.847  52.858  1.00  0.00     0.275 C 
HETATM    2  N   UNL     1       5.118  27.529  54.033  1.00  0.00    -0.263 N 
HETATM    3  O   UNL     1       4.599  25.646  52.833  1.00  0.00    -0.266 OA
HETATM    4  H   UNL     1       5.634  28.407  53.992  1.00  0.00     0.190 HD
ENDROOT
BRANCH   2   5
HETATM    5  N   UNL     1       5.204  26.798  55.232  1.00  0.00    -0.273 N 
HETATM    6  H   UNL     1       4.715  25.901  55.204  1.00  0.00     0.189 HD
BRANCH   5   7
HETATM    7  C   UNL     1       6.321  26.882  56.023  1.00  0.00     0.191 C 
HETATM    8  S   UNL     1       6.417  27.804  57.424  1.00  0.00    -0.039 SA
BRANCH   7   9
HETATM    9  N   UNL     1       7.428  26.196  55.627  1.00  0.00    -0.330 N 
HETATM   10  H   UNL     1       8.232  26.785  55.414  1.00  0.00     0.168 HD
BRANCH   9  11
HETATM   11  C   UNL     1       7.685  24.815  55.466  1.00  0.00     0.068 A 
HETATM   12  C   UNL     1       7.972  24.367  54.158  1.00  0.00     0.097 A 
HETATM   13  C   UNL     1       8.244  23.012  53.923  1.00  0.00     0.075 A 
HETATM   14  C   UNL     1       8.248  22.104  54.984  1.00  0.00     0.070 A 
HETATM   15  C   UNL     1       8.008  22.562  56.280  1.00  0.00     0.039 A 
HETATM   16  C   UNL     1       7.734  23.909  56.525  1.00  0.00     0.035 A 
BRANCH  12  17
HETATM   17  O   UNL     1       7.954  25.344  53.188  1.00  0.00    -0.354 OA
HETATM   18  C   UNL     1       7.806  24.923  51.837  1.00  0.00     0.210 C 
ENDBRANCH  12  17
BRANCH  14  19
HETATM   19  O   UNL     1       8.498  20.763  54.894  1.00  0.00    -0.356 OA
HETATM   20  C   UNL     1       8.374  20.002  56.089  1.00  0.00     0.210 C 
ENDBRANCH  14  19
ENDBRANCH   9  11
ENDBRANCH   7   9
ENDBRANCH   5   7
ENDBRANCH   2   5
BRANCH   1  21
HETATM   21  C   UNL     1       4.970  27.655  51.661  1.00  0.00     0.098 A 
HETATM   22  C   UNL     1       4.718  27.311  50.346  1.00  0.00     0.138 A 
HETATM   23  N   UNL     1       4.380  26.142  49.744  1.00  0.00    -0.370 N 
HETATM   24  N   UNL     1       4.914  28.456  49.618  1.00  0.00    -0.240 N 
HETATM   25  C   UNL     1       4.163  26.036  48.306  1.00  0.00     0.081 C 
HETATM   26  H   UNL     1       4.495  25.248  50.223  1.00  0.00     0.161 HD
HETATM   27  C   UNL     1       2.670  25.916  48.026  1.00  0.00     0.032 C 
HETATM   28  C   UNL     1       4.881  27.156  47.542  1.00  0.00     0.061 C 
HETATM   29  C   UNL     1       4.783  28.552  48.179  1.00  0.00     0.221 C 
HETATM   30  N   UNL     1       5.383  29.487  50.342  1.00  0.00    -0.181 NA
HETATM   31  C   UNL     1       5.398  29.003  51.587  1.00  0.00     0.160 A 
BRANCH  29  32
HETATM   32  C   UNL     1       3.530  29.312  47.813  1.00  0.00     0.409 C 
HETATM   33  F   UNL     1       2.966  28.907  46.658  1.00  0.00    -0.169 F 
HETATM   34  F   UNL     1       2.582  29.238  48.774  1.00  0.00    -0.169 F 
HETATM   35  F   UNL     1       3.817  30.633  47.666  1.00  0.00    -0.169 F 
ENDBRANCH  29  32
ENDBRANCH   1  21
TORSDOF 8
ENDMDL
MODEL 8
REMARK VINA RESULT:      -8.0      3.505      5.294
REMARK  8 active torsions:
REMARK  status: ('A' for Active; 'I' for Inactive)
REMARK    1  A    between atoms: C_8  and  C_9 
REMARK       I    between atoms: C_9  and  N_10 
REMARK    2  A    between atoms: N_10  and  N_11 
REMARK    3  A    between atoms: N_11  and  C_12 
REMARK    4  A    between atoms: C_12  and  N_13 
REMARK    5  A    between atoms: N_13  and  C_14 
REMARK    6  A    between atoms: C_15  and  O_16 
REMARK    7  A    between atoms: C_19  and  O_20 
REMARK    8  A    between atoms: C_26  and  C_27 
ROOT
HETATM    1  C   UNL     1       6.268  28.651  56.940  1.00  0.00     0.275 C 
HETATM    2  N   UNL     1       7.544  28.872  57.424  1.00  0.00    -0.263 N 
HETATM    3  O   UNL     1       5.260  28.859  57.612  1.00  0.00    -0.266 OA
HETATM    4  H   UNL     1       8.329  28.398  56.980  1.00  0.00     0.190 HD
ENDROOT
BRANCH   2   5
HETATM    5  N   UNL     1       7.701  29.231  58.774  1.00  0.00    -0.273 N 
HETATM    6  H   UNL     1       8.088  28.486  59.357  1.00  0.00     0.189 HD
BRANCH   5   7
HETATM    7  C   UNL     1       7.997  30.523  59.124  1.00  0.00     0.191 C 
HETATM    8  S   UNL     1       9.410  31.318  58.687  1.00  0.00    -0.039 SA
BRANCH   7   9
HETATM    9  N   UNL     1       7.098  31.188  59.901  1.00  0.00    -0.330 N 
HETATM   10  H   UNL     1       6.154  31.213  59.520  1.00  0.00     0.168 HD
BRANCH   9  11
HETATM   11  C   UNL     1       7.218  31.843  61.148  1.00  0.00     0.068 A 
HETATM   12  C   UNL     1       6.200  32.760  61.489  1.00  0.00     0.097 A 
HETATM   13  C   UNL     1       6.249  33.441  62.714  1.00  0.00     0.075 A 
HETATM   14  C   UNL     1       7.296  33.203  63.606  1.00  0.00     0.070 A 
HETATM   15  C   UNL     1       8.275  32.263  63.282  1.00  0.00     0.039 A 
HETATM   16  C   UNL     1       8.237  31.581  62.064  1.00  0.00     0.035 A 
BRANCH  12  17
HETATM   17  O   UNL     1       5.209  32.911  60.546  1.00  0.00    -0.354 OA
HETATM   18  C   UNL     1       3.866  32.708  60.968  1.00  0.00     0.210 C 
ENDBRANCH  12  17
BRANCH  14  19
HETATM   19  O   UNL     1       7.463  33.796  64.827  1.00  0.00    -0.356 OA
HETATM   20  C   UNL     1       6.300  33.959  65.630  1.00  0.00     0.210 C 
ENDBRANCH  14  19
ENDBRANCH   9  11
ENDBRANCH   7   9
ENDBRANCH   5   7
ENDBRANCH   2   5
BRANCH   1  21
HETATM   21  C   UNL     1       6.222  28.114  55.596  1.00  0.00     0.098 A 
HETATM   22  C   UNL     1       6.724  26.920  55.113  1.00  0.00     0.138 A 
HETATM   23  N   UNL     1       7.464  25.932  55.677  1.00  0.00    -0.370 N 
HETATM   24  N   UNL     1       6.357  26.869  53.792  1.00  0.00    -0.240 N 
HETATM   25  C   UNL     1       7.877  24.744  54.939  1.00  0.00     0.081 C 
HETATM   26  H   UNL     1       7.963  26.080  56.555  1.00  0.00     0.161 HD
HETATM   27  C   UNL     1       7.041  23.551  55.387  1.00  0.00     0.032 C 
HETATM   28  C   UNL     1       7.891  24.995  53.425  1.00  0.00     0.061 C 
HETATM   29  C   UNL     1       6.696  25.796  52.882  1.00  0.00     0.221 C 
HETATM   30  N   UNL     1       5.754  27.987  53.353  1.00  0.00    -0.181 NA
HETATM   31  C   UNL     1       5.656  28.735  54.456  1.00  0.00     0.160 A 
BRANCH  29  32
HETATM   32  C   UNL     1       5.477  24.957  52.578  1.00  0.00     0.409 C 
HETATM   33  F   UNL     1       4.572  24.931  53.575  1.00  0.00    -0.169 F 
HETATM   34  F   UNL     1       4.836  25.365  51.460  1.00  0.00    -0.169 F 
HETATM   35  F   UNL     1       5.847  23.668  52.352  1.00  0.00    -0.169 F 
ENDBRANCH  29  32
ENDBRANCH   1  21
TORSDOF 8
ENDMDL
MODEL 9
REMARK VINA RESULT:      -7.9      5.179      6.905
REMARK  8 active torsions:
REMARK  status: ('A' for Active; 'I' for Inactive)
REMARK    1  A    between atoms: C_8  and  C_9 
REMARK       I    between atoms: C_9  and  N_10 
REMARK    2  A    between atoms: N_10  and  N_11 
REMARK    3  A    between atoms: N_11  and  C_12 
REMARK    4  A    between atoms: C_12  and  N_13 
REMARK    5  A    between atoms: N_13  and  C_14 
REMARK    6  A    between atoms: C_15  and  O_16 
REMARK    7  A    between atoms: C_19  and  O_20 
REMARK    8  A    between atoms: C_26  and  C_27 
ROOT
HETATM    1  C   UNL     1       4.999  26.149  52.454  1.00  0.00     0.275 C 
HETATM    2  N   UNL     1       4.921  26.507  53.788  1.00  0.00    -0.263 N 
HETATM    3  O   UNL     1       4.933  24.981  52.078  1.00  0.00    -0.266 OA
HETATM    4  H   UNL     1       5.294  27.410  54.080  1.00  0.00     0.190 HD
ENDROOT
BRANCH   2   5
HETATM    5  N   UNL     1       4.889  25.490  54.759  1.00  0.00    -0.273 N 
HETATM    6  H   UNL     1       4.221  24.745  54.553  1.00  0.00     0.189 HD
BRANCH   5   7
HETATM    7  C   UNL     1       6.023  25.148  55.450  1.00  0.00     0.191 C 
HETATM    8  S   UNL     1       7.090  23.942  54.974  1.00  0.00    -0.039 SA
BRANCH   7   9
HETATM    9  N   UNL     1       6.278  25.812  56.611  1.00  0.00    -0.330 N 
HETATM   10  H   UNL     1       5.943  25.336  57.447  1.00  0.00     0.168 HD
BRANCH   9  11
HETATM   11  C   UNL     1       6.934  27.034  56.884  1.00  0.00     0.068 A 
HETATM   12  C   UNL     1       6.125  28.189  56.968  1.00  0.00     0.097 A 
HETATM   13  C   UNL     1       6.705  29.435  57.242  1.00  0.00     0.075 A 
HETATM   14  C   UNL     1       8.082  29.536  57.451  1.00  0.00     0.070 A 
HETATM   15  C   UNL     1       8.868  28.385  57.412  1.00  0.00     0.039 A 
HETATM   16  C   UNL     1       8.301  27.138  57.136  1.00  0.00     0.035 A 
BRANCH  12  17
HETATM   17  O   UNL     1       4.780  27.977  56.758  1.00  0.00    -0.354 OA
HETATM   18  C   UNL     1       4.043  29.020  56.133  1.00  0.00     0.210 C 
ENDBRANCH  12  17
BRANCH  14  19
HETATM   19  O   UNL     1       8.771  30.684  57.727  1.00  0.00    -0.356 OA
HETATM   20  C   UNL     1      10.187  30.580  57.820  1.00  0.00     0.210 C 
ENDBRANCH  14  19
ENDBRANCH   9  11
ENDBRANCH   7   9
ENDBRANCH   5   7
ENDBRANCH   2   5
BRANCH   1  21
HETATM   21  C   UNL     1       5.208  27.259  51.548  1.00  0.00     0.098 A 
HETATM   22  C   UNL     1       5.079  27.301  50.172  1.00  0.00     0.138 A 
HETATM   23  N   UNL     1       4.808  26.354  49.238  1.00  0.00    -0.370 N 
HETATM   24  N   UNL     1       5.330  28.602  49.816  1.00  0.00    -0.240 N 
HETATM   25  C   UNL     1       4.724  26.659  47.815  1.00  0.00     0.081 C 
HETATM   26  H   UNL     1       4.888  25.360  49.454  1.00  0.00     0.161 HD
HETATM   27  C   UNL     1       3.264  26.648  47.380  1.00  0.00     0.032 C 
HETATM   28  C   UNL     1       5.497  27.937  47.464  1.00  0.00     0.061 C 
HETATM   29  C   UNL     1       5.329  29.099  48.456  1.00  0.00     0.221 C 
HETATM   30  N   UNL     1       5.722  29.380  50.839  1.00  0.00    -0.181 NA
HETATM   31  C   UNL     1       5.628  28.566  51.894  1.00  0.00     0.160 A 
BRANCH  29  32
HETATM   32  C   UNL     1       4.107  29.952  48.207  1.00  0.00     0.409 C 
HETATM   33  F   UNL     1       3.027  29.576  48.919  1.00  0.00    -0.169 F 
HETATM   34  F   UNL     1       4.328  31.260  48.469  1.00  0.00    -0.169 F 
HETATM   35  F   UNL     1       3.754  29.884  46.896  1.00  0.00    -0.169 F 
ENDBRANCH  29  32
ENDBRANCH   1  21
TORSDOF 8
ENDMDL
MODEL 10
REMARK VINA RESULT:      -7.6      4.314      6.042
REMARK  8 active torsions:
REMARK  status: ('A' for Active; 'I' for Inactive)
REMARK    1  A    between atoms: C_8  and  C_9 
REMARK       I    between atoms: C_9  and  N_10 
REMARK    2  A    between atoms: N_10  and  N_11 
REMARK    3  A    between atoms: N_11  and  C_12 
REMARK    4  A    between atoms: C_12  and  N_13 
REMARK    5  A    between atoms: N_13  and  C_14 
REMARK    6  A    between atoms: C_15  and  O_16 
REMARK    7  A    between atoms: C_19  and  O_20 
REMARK    8  A    between atoms: C_26  and  C_27 
ROOT
HETATM    1  C   UNL     1       4.428  28.996  56.311  1.00  0.00     0.275 C 
HETATM    2  N   UNL     1       4.305  29.309  57.653  1.00  0.00    -0.263 N 
HETATM    3  O   UNL     1       3.970  29.710  55.421  1.00  0.00    -0.266 OA
HETATM    4  H   UNL     1       4.399  28.565  58.344  1.00  0.00     0.190 HD
ENDROOT
BRANCH   2   5
HETATM    5  N   UNL     1       3.523  30.419  58.018  1.00  0.00    -0.273 N 
HETATM    6  H   UNL     1       2.522  30.221  58.065  1.00  0.00     0.189 HD
BRANCH   5   7
HETATM    7  C   UNL     1       4.018  31.372  58.870  1.00  0.00     0.191 C 
HETATM    8  S   UNL     1       5.317  32.375  58.513  1.00  0.00    -0.039 SA
BRANCH   7   9
HETATM    9  N   UNL     1       3.434  31.488  60.095  1.00  0.00    -0.330 N 
HETATM   10  H   UNL     1       2.631  30.877  60.235  1.00  0.00     0.168 HD
BRANCH   9  11
HETATM   11  C   UNL     1       3.737  32.286  61.222  1.00  0.00     0.068 A 
HETATM   12  C   UNL     1       2.982  33.467  61.390  1.00  0.00     0.097 A 
HETATM   13  C   UNL     1       3.222  34.305  62.489  1.00  0.00     0.075 A 
HETATM   14  C   UNL     1       4.196  33.965  63.429  1.00  0.00     0.070 A 
HETATM   15  C   UNL     1       4.907  32.774  63.281  1.00  0.00     0.039 A 
HETATM   16  C   UNL     1       4.678  31.933  62.189  1.00  0.00     0.035 A 
BRANCH  12  17
HETATM   17  O   UNL     1       2.039  33.703  60.414  1.00  0.00    -0.354 OA
HETATM   18  C   UNL     1       1.678  35.056  60.165  1.00  0.00     0.210 C 
ENDBRANCH  12  17
BRANCH  14  19
HETATM   19  O   UNL     1       4.528  34.688  64.541  1.00  0.00    -0.356 OA
HETATM   20  C   UNL     1       4.744  33.960  65.744  1.00  0.00     0.210 C 
ENDBRANCH  14  19
ENDBRANCH   9  11
ENDBRANCH   7   9
ENDBRANCH   5   7
ENDBRANCH   2   5
BRANCH   1  21
HETATM   21  C   UNL     1       5.098  27.740  56.048  1.00  0.00     0.098 A 
HETATM   22  C   UNL     1       5.112  26.980  54.893  1.00  0.00     0.138 A 
HETATM   23  N   UNL     1       4.475  27.098  53.701  1.00  0.00    -0.370 N 
HETATM   24  N   UNL     1       5.945  25.923  55.154  1.00  0.00    -0.240 N 
HETATM   25  C   UNL     1       4.662  26.143  52.614  1.00  0.00     0.081 C 
HETATM   26  H   UNL     1       3.665  27.709  53.592  1.00  0.00     0.161 HD
HETATM   27  C   UNL     1       5.530  26.772  51.531  1.00  0.00     0.032 C 
HETATM   28  C   UNL     1       5.154  24.786  53.134  1.00  0.00     0.061 C 
HETATM   29  C   UNL     1       6.236  24.852  54.224  1.00  0.00     0.221 C 
HETATM   30  N   UNL     1       6.383  25.876  56.424  1.00  0.00    -0.181 NA
HETATM   31  C   UNL     1       5.881  26.992  56.960  1.00  0.00     0.160 A 
BRANCH  29  32
HETATM   32  C   UNL     1       7.643  24.986  53.689  1.00  0.00     0.409 C 
HETATM   33  F   UNL     1       7.811  24.457  52.462  1.00  0.00    -0.169 F 
HETATM   34  F   UNL     1       8.055  26.272  53.636  1.00  0.00    -0.169 F 
HETATM   35  F   UNL     1       8.514  24.345  54.514  1.00  0.00    -0.169 F 
ENDBRANCH  29  32
ENDBRANCH   1  21
TORSDOF 8
ENDMDL
