MODEL 1
REMARK VINA RESULT:      -9.5      0.000      0.000
REMARK  5 active torsions:
REMARK  status: ('A' for Active; 'I' for Inactive)
REMARK    1  A    between atoms: C_2  and  C_3 
REMARK    2  A    between atoms: C_3  and  N_4 
REMARK    3  A    between atoms: N_4  and  C_7 
REMARK    4  A    between atoms: C_10  and  O_11 
REMARK    5  A    between atoms: O_11  and  C_12 
ROOT
HETATM    1  C   UNL     1       7.741  30.764  59.051  1.00  0.00     0.164 A 
HETATM    2  N   UNL     1       6.807  31.668  59.409  1.00  0.00    -0.236 NA
HETATM    3  C   UNL     1       6.915  32.186  60.658  1.00  0.00     0.142 A 
HETATM    4  C   UNL     1       7.909  31.833  61.563  1.00  0.00     0.062 A 
HETATM    5  C   UNL     1       7.954  32.427  62.861  1.00  0.00     0.101 C 
HETATM    6  N   UNL     1       7.987  32.911  63.914  1.00  0.00    -0.191 NA
HETATM    7  C   UNL     1       8.850  30.886  61.163  1.00  0.00     0.028 A 
HETATM    8  C   UNL     1       8.762  30.336  59.886  1.00  0.00     0.059 A 
ENDROOT
BRANCH   1   9
HETATM    9  O   UNL     1       7.681  30.176  57.806  1.00  0.00    -0.329 OA
BRANCH   9  10
HETATM   10  C   UNL     1       7.586  28.746  57.815  1.00  0.00     0.130 C 
HETATM   11  C   UNL     1       6.143  28.408  57.419  1.00  0.00     0.034 C 
HETATM   12  C   UNL     1       5.809  28.901  56.007  1.00  0.00     0.035 C 
HETATM   13  C   UNL     1       6.788  28.396  54.942  1.00  0.00     0.186 C 
HETATM   14  C   UNL     1       8.248  28.610  55.360  1.00  0.00     0.035 C 
HETATM   15  C   UNL     1       8.552  28.141  56.786  1.00  0.00     0.034 C 
BRANCH  13  16
HETATM   16  N   UNL     1       6.566  26.931  54.673  1.00  0.00    -0.067 N 
HETATM   17  H   UNL     1       5.589  26.734  54.427  1.00  0.00     0.277 HD
HETATM   18  H   UNL     1       6.734  26.397  55.537  1.00  0.00     0.277 HD
BRANCH  16  19
HETATM   19  C   UNL     1       7.457  26.334  53.629  1.00  0.00     0.271 C 
BRANCH  19  20
HETATM   20  C   UNL     1       7.688  24.870  53.866  1.00  0.00    -0.030 A 
HETATM   21  C   UNL     1       7.669  23.962  52.795  1.00  0.00     0.012 A 
HETATM   22  C   UNL     1       7.917  22.604  53.014  1.00  0.00     0.040 A 
HETATM   23  C   UNL     1       8.190  22.145  54.300  1.00  0.00     0.102 A 
HETATM   24  C   UNL     1       8.169  23.032  55.377  1.00  0.00     0.102 A 
HETATM   25  O   UNL     1       8.474  20.812  54.433  1.00  0.00    -0.346 OA
HETATM   26  C   UNL     1       7.925  24.388  55.163  1.00  0.00     0.048 A 
HETATM   27  O   UNL     1       8.402  22.650  56.672  1.00  0.00    -0.346 OA
HETATM   28  C   UNL     1       8.377  21.222  56.822  1.00  0.00     0.202 C 
HETATM   29  C   UNL     1       9.121  20.542  55.683  1.00  0.00     0.202 C 
ENDBRANCH  19  20
ENDBRANCH  16  19
ENDBRANCH  13  16
ENDBRANCH   9  10
ENDBRANCH   1   9
TORSDOF 5
ENDMDL
MODEL 2
REMARK VINA RESULT:      -9.2      2.645     10.128
REMARK  5 active torsions:
REMARK  status: ('A' for Active; 'I' for Inactive)
REMARK    1  A    between atoms: C_2  and  C_3 
REMARK    2  A    between atoms: C_3  and  N_4 
REMARK    3  A    between atoms: N_4  and  C_7 
REMARK    4  A    between atoms: C_10  and  O_11 
REMARK    5  A    between atoms: O_11  and  C_12 
ROOT
HETATM    1  C   UNL     1       7.342  24.890  54.774  1.00  0.00     0.164 A 
HETATM    2  N   UNL     1       7.287  23.848  55.627  1.00  0.00    -0.236 NA
HETATM    3  C   UNL     1       7.578  22.628  55.109  1.00  0.00     0.142 A 
HETATM    4  C   UNL     1       7.913  22.406  53.779  1.00  0.00     0.062 A 
HETATM    5  C   UNL     1       8.208  21.089  53.313  1.00  0.00     0.101 C 
HETATM    6  N   UNL     1       8.447  20.019  52.938  1.00  0.00    -0.191 NA
HETATM    7  C   UNL     1       7.947  23.506  52.923  1.00  0.00     0.028 A 
HETATM    8  C   UNL     1       7.650  24.771  53.427  1.00  0.00     0.059 A 
ENDROOT
BRANCH   1   9
HETATM    9  O   UNL     1       7.034  26.157  55.222  1.00  0.00    -0.329 OA
BRANCH   9  10
HETATM   10  C   UNL     1       6.952  26.291  56.647  1.00  0.00     0.130 C 
HETATM   11  C   UNL     1       8.226  27.030  57.082  1.00  0.00     0.034 C 
HETATM   12  C   UNL     1       8.307  28.433  56.471  1.00  0.00     0.035 C 
HETATM   13  C   UNL     1       7.067  29.290  56.755  1.00  0.00     0.186 C 
HETATM   14  C   UNL     1       5.768  28.536  56.443  1.00  0.00     0.035 C 
HETATM   15  C   UNL     1       5.722  27.124  57.035  1.00  0.00     0.034 C 
BRANCH  13  16
HETATM   16  N   UNL     1       7.046  29.727  58.196  1.00  0.00    -0.067 N 
HETATM   17  H   UNL     1       6.812  28.949  58.825  1.00  0.00     0.277 HD
HETATM   18  H   UNL     1       6.291  30.414  58.333  1.00  0.00     0.277 HD
BRANCH  16  19
HETATM   19  C   UNL     1       8.303  30.379  58.681  1.00  0.00     0.271 C 
BRANCH  19  20
HETATM   20  C   UNL     1       8.140  30.942  60.063  1.00  0.00    -0.030 A 
HETATM   21  C   UNL     1       9.140  30.759  61.031  1.00  0.00     0.012 A 
HETATM   22  C   UNL     1       9.000  31.313  62.306  1.00  0.00     0.040 A 
HETATM   23  C   UNL     1       7.867  32.056  62.622  1.00  0.00     0.102 A 
HETATM   24  C   UNL     1       6.848  32.208  61.682  1.00  0.00     0.102 A 
HETATM   25  O   UNL     1       7.821  32.611  63.873  1.00  0.00    -0.346 OA
HETATM   26  C   UNL     1       6.984  31.660  60.406  1.00  0.00     0.048 A 
HETATM   27  O   UNL     1       5.693  32.903  61.927  1.00  0.00    -0.346 OA
HETATM   28  C   UNL     1       5.531  33.195  63.324  1.00  0.00     0.202 C 
HETATM   29  C   UNL     1       6.842  33.656  63.941  1.00  0.00     0.202 C 
ENDBRANCH  19  20
ENDBRANCH  16  19
ENDBRANCH  13  16
ENDBRANCH   9  10
ENDBRANCH   1   9
TORSDOF 5
ENDMDL
MODEL 3
REMARK VINA RESULT:      -8.9      2.681      9.356
REMARK  5 active torsions:
REMARK  status: ('A' for Active; 'I' for Inactive)
REMARK    1  A    between atoms: C_2  and  C_3 
REMARK    2  A    between atoms: C_3  and  N_4 
REMARK    3  A    between atoms: N_4  and  C_7 
REMARK    4  A    between atoms: C_10  and  O_11 
REMARK    5  A    between atoms: O_11  and  C_12 
ROOT
HETATM    1  C   UNL     1       6.530  24.381  54.629  1.00  0.00     0.164 A 
HETATM    2  N   UNL     1       6.616  24.039  53.327  1.00  0.00    -0.236 NA
HETATM    3  C   UNL     1       7.234  22.862  53.052  1.00  0.00     0.142 A 
HETATM    4  C   UNL     1       7.772  22.021  54.018  1.00  0.00     0.062 A 
HETATM    5  C   UNL     1       8.405  20.797  53.645  1.00  0.00     0.101 C 
HETATM    6  N   UNL     1       8.919  19.804  53.338  1.00  0.00    -0.191 NA
HETATM    7  C   UNL     1       7.675  22.414  55.352  1.00  0.00     0.028 A 
HETATM    8  C   UNL     1       7.048  23.618  55.664  1.00  0.00     0.059 A 
ENDROOT
BRANCH   1   9
HETATM    9  O   UNL     1       5.938  25.574  54.983  1.00  0.00    -0.329 OA
BRANCH   9  10
HETATM   10  C   UNL     1       6.688  26.370  55.909  1.00  0.00     0.130 C 
HETATM   11  C   UNL     1       7.561  27.308  55.062  1.00  0.00     0.034 C 
HETATM   12  C   UNL     1       6.713  28.247  54.198  1.00  0.00     0.035 C 
HETATM   13  C   UNL     1       5.689  29.053  55.004  1.00  0.00     0.186 C 
HETATM   14  C   UNL     1       4.879  28.161  55.953  1.00  0.00     0.035 C 
HETATM   15  C   UNL     1       5.743  27.206  56.783  1.00  0.00     0.034 C 
BRANCH  13  16
HETATM   16  N   UNL     1       6.376  30.126  55.809  1.00  0.00    -0.067 N 
HETATM   17  H   UNL     1       6.965  30.724  55.218  1.00  0.00     0.277 HD
HETATM   18  H   UNL     1       7.029  29.687  56.473  1.00  0.00     0.277 HD
BRANCH  16  19
HETATM   19  C   UNL     1       5.466  30.992  56.622  1.00  0.00     0.271 C 
BRANCH  19  20
HETATM   20  C   UNL     1       6.060  31.319  57.961  1.00  0.00    -0.030 A 
HETATM   21  C   UNL     1       5.524  32.353  58.746  1.00  0.00     0.012 A 
HETATM   22  C   UNL     1       6.058  32.633  60.006  1.00  0.00     0.040 A 
HETATM   23  C   UNL     1       7.124  31.883  60.494  1.00  0.00     0.102 A 
HETATM   24  C   UNL     1       7.691  30.881  59.705  1.00  0.00     0.102 A 
HETATM   25  O   UNL     1       7.563  32.179  61.757  1.00  0.00    -0.346 OA
HETATM   26  C   UNL     1       7.160  30.595  58.447  1.00  0.00     0.048 A 
HETATM   27  O   UNL     1       8.756  30.118  60.105  1.00  0.00    -0.346 OA
HETATM   28  C   UNL     1       9.389  30.656  61.276  1.00  0.00     0.202 C 
HETATM   29  C   UNL     1       8.356  31.113  62.294  1.00  0.00     0.202 C 
ENDBRANCH  19  20
ENDBRANCH  16  19
ENDBRANCH  13  16
ENDBRANCH   9  10
ENDBRANCH   1   9
TORSDOF 5
ENDMDL
MODEL 4
REMARK VINA RESULT:      -8.8      1.311      2.098
REMARK  5 active torsions:
REMARK  status: ('A' for Active; 'I' for Inactive)
REMARK    1  A    between atoms: C_2  and  C_3 
REMARK    2  A    between atoms: C_3  and  N_4 
REMARK    3  A    between atoms: N_4  and  C_7 
REMARK    4  A    between atoms: C_10  and  O_11 
REMARK    5  A    between atoms: O_11  and  C_12 
ROOT
HETATM    1  C   UNL     1       6.863  30.787  58.122  1.00  0.00     0.164 A 
HETATM    2  N   UNL     1       7.845  30.589  59.024  1.00  0.00    -0.236 NA
HETATM    3  C   UNL     1       7.797  31.352  60.146  1.00  0.00     0.142 A 
HETATM    4  C   UNL     1       6.818  32.304  60.398  1.00  0.00     0.062 A 
HETATM    5  C   UNL     1       6.838  33.066  61.606  1.00  0.00     0.101 C 
HETATM    6  N   UNL     1       6.858  33.683  62.587  1.00  0.00    -0.191 NA
HETATM    7  C   UNL     1       5.826  32.490  59.436  1.00  0.00     0.028 A 
HETATM    8  C   UNL     1       5.851  31.722  58.274  1.00  0.00     0.059 A 
ENDROOT
BRANCH   1   9
HETATM    9  O   UNL     1       6.859  30.066  56.947  1.00  0.00    -0.329 OA
BRANCH   9  10
HETATM   10  C   UNL     1       6.964  28.645  57.108  1.00  0.00     0.130 C 
HETATM   11  C   UNL     1       5.530  28.125  57.280  1.00  0.00     0.034 C 
HETATM   12  C   UNL     1       4.671  28.406  56.043  1.00  0.00     0.035 C 
HETATM   13  C   UNL     1       5.283  27.867  54.745  1.00  0.00     0.186 C 
HETATM   14  C   UNL     1       6.756  28.269  54.599  1.00  0.00     0.035 C 
HETATM   15  C   UNL     1       7.590  28.011  55.858  1.00  0.00     0.034 C 
BRANCH  13  16
HETATM   16  N   UNL     1       5.178  26.365  54.696  1.00  0.00    -0.067 N 
HETATM   17  H   UNL     1       4.200  26.055  54.655  1.00  0.00     0.277 HD
HETATM   18  H   UNL     1       5.545  25.969  55.573  1.00  0.00     0.277 HD
BRANCH  16  19
HETATM   19  C   UNL     1       5.940  25.711  53.587  1.00  0.00     0.271 C 
BRANCH  19  20
HETATM   20  C   UNL     1       6.751  24.548  54.079  1.00  0.00    -0.030 A 
HETATM   21  C   UNL     1       7.287  24.550  55.377  1.00  0.00     0.012 A 
HETATM   22  C   UNL     1       8.013  23.451  55.844  1.00  0.00     0.040 A 
HETATM   23  C   UNL     1       8.204  22.343  55.024  1.00  0.00     0.102 A 
HETATM   24  C   UNL     1       7.711  22.348  53.719  1.00  0.00     0.102 A 
HETATM   25  O   UNL     1       8.880  21.282  55.565  1.00  0.00    -0.346 OA
HETATM   26  C   UNL     1       6.984  23.441  53.249  1.00  0.00     0.048 A 
HETATM   27  O   UNL     1       7.881  21.306  52.845  1.00  0.00    -0.346 OA
HETATM   28  C   UNL     1       8.852  20.362  53.321  1.00  0.00     0.202 C 
HETATM   29  C   UNL     1       8.664  20.087  54.805  1.00  0.00     0.202 C 
ENDBRANCH  19  20
ENDBRANCH  16  19
ENDBRANCH  13  16
ENDBRANCH   9  10
ENDBRANCH   1   9
TORSDOF 5
ENDMDL
MODEL 5
REMARK VINA RESULT:      -8.2      2.927     10.593
REMARK  5 active torsions:
REMARK  status: ('A' for Active; 'I' for Inactive)
REMARK    1  A    between atoms: C_2  and  C_3 
REMARK    2  A    between atoms: C_3  and  N_4 
REMARK    3  A    between atoms: N_4  and  C_7 
REMARK    4  A    between atoms: C_10  and  O_11 
REMARK    5  A    between atoms: O_11  and  C_12 
ROOT
HETATM    1  C   UNL     1       7.018  27.008  55.276  1.00  0.00     0.164 A 
HETATM    2  N   UNL     1       7.347  26.977  53.968  1.00  0.00    -0.236 NA
HETATM    3  C   UNL     1       7.553  25.751  53.426  1.00  0.00     0.142 A 
HETATM    4  C   UNL     1       7.452  24.559  54.134  1.00  0.00     0.062 A 
HETATM    5  C   UNL     1       7.684  23.308  53.488  1.00  0.00     0.101 C 
HETATM    6  N   UNL     1       7.873  22.293  52.960  1.00  0.00    -0.191 NA
HETATM    7  C   UNL     1       7.123  24.631  55.487  1.00  0.00     0.028 A 
HETATM    8  C   UNL     1       6.907  25.877  56.071  1.00  0.00     0.059 A 
ENDROOT
BRANCH   1   9
HETATM    9  O   UNL     1       6.817  28.219  55.902  1.00  0.00    -0.329 OA
BRANCH   9  10
HETATM   10  C   UNL     1       6.331  28.132  57.247  1.00  0.00     0.130 C 
HETATM   11  C   UNL     1       7.551  28.328  58.159  1.00  0.00     0.034 C 
HETATM   12  C   UNL     1       8.189  29.708  57.967  1.00  0.00     0.035 C 
HETATM   13  C   UNL     1       7.197  30.864  58.144  1.00  0.00     0.186 C 
HETATM   14  C   UNL     1       5.911  30.642  57.338  1.00  0.00     0.035 C 
HETATM   15  C   UNL     1       5.308  29.245  57.518  1.00  0.00     0.034 C 
BRANCH  13  16
HETATM   16  N   UNL     1       6.841  31.035  59.598  1.00  0.00    -0.067 N 
HETATM   17  H   UNL     1       6.441  30.177  59.994  1.00  0.00     0.277 HD
HETATM   18  H   UNL     1       6.094  31.739  59.684  1.00  0.00     0.277 HD
BRANCH  16  19
HETATM   19  C   UNL     1       7.960  31.499  60.476  1.00  0.00     0.271 C 
BRANCH  19  20
HETATM   20  C   UNL     1       7.451  32.156  61.725  1.00  0.00    -0.030 A 
HETATM   21  C   UNL     1       8.275  32.276  62.856  1.00  0.00     0.012 A 
HETATM   22  C   UNL     1       7.809  32.919  64.006  1.00  0.00     0.040 A 
HETATM   23  C   UNL     1       6.523  33.450  64.035  1.00  0.00     0.102 A 
HETATM   24  C   UNL     1       5.681  33.299  62.932  1.00  0.00     0.102 A 
HETATM   25  O   UNL     1       6.151  34.110  65.175  1.00  0.00    -0.346 OA
HETATM   26  C   UNL     1       6.143  32.661  61.780  1.00  0.00     0.048 A 
HETATM   27  O   UNL     1       4.396  33.772  62.894  1.00  0.00    -0.346 OA
HETATM   28  C   UNL     1       3.933  34.167  64.195  1.00  0.00     0.202 C 
HETATM   29  C   UNL     1       5.006  34.941  64.944  1.00  0.00     0.202 C 
ENDBRANCH  19  20
ENDBRANCH  16  19
ENDBRANCH  13  16
ENDBRANCH   9  10
ENDBRANCH   1   9
TORSDOF 5
ENDMDL
MODEL 6
REMARK VINA RESULT:      -8.1      3.459      4.627
REMARK  5 active torsions:
REMARK  status: ('A' for Active; 'I' for Inactive)
REMARK    1  A    between atoms: C_2  and  C_3 
REMARK    2  A    between atoms: C_3  and  N_4 
REMARK    3  A    between atoms: N_4  and  C_7 
REMARK    4  A    between atoms: C_10  and  O_11 
REMARK    5  A    between atoms: O_11  and  C_12 
ROOT
HETATM    1  C   UNL     1       8.151  31.080  59.615  1.00  0.00     0.164 A 
HETATM    2  N   UNL     1       8.880  30.537  60.611  1.00  0.00    -0.236 NA
HETATM    3  C   UNL     1       8.725  31.086  61.842  1.00  0.00     0.142 A 
HETATM    4  C   UNL     1       7.881  32.155  62.117  1.00  0.00     0.062 A 
HETATM    5  C   UNL     1       7.773  32.673  63.442  1.00  0.00     0.101 C 
HETATM    6  N   UNL     1       7.688  33.093  64.520  1.00  0.00    -0.191 NA
HETATM    7  C   UNL     1       7.153  32.699  61.060  1.00  0.00     0.028 A 
HETATM    8  C   UNL     1       7.294  32.157  59.784  1.00  0.00     0.059 A 
ENDROOT
BRANCH   1   9
HETATM    9  O   UNL     1       8.276  30.591  58.332  1.00  0.00    -0.329 OA
BRANCH   9  10
HETATM   10  C   UNL     1       8.318  29.162  58.231  1.00  0.00     0.130 C 
HETATM   11  C   UNL     1       6.921  28.722  57.772  1.00  0.00     0.034 C 
HETATM   12  C   UNL     1       6.570  29.291  56.393  1.00  0.00     0.035 C 
HETATM   13  C   UNL     1       7.613  28.964  55.319  1.00  0.00     0.186 C 
HETATM   14  C   UNL     1       9.038  29.281  55.791  1.00  0.00     0.035 C 
HETATM   15  C   UNL     1       9.357  28.732  57.185  1.00  0.00     0.034 C 
BRANCH  13  16
HETATM   16  N   UNL     1       7.537  27.510  54.934  1.00  0.00    -0.067 N 
HETATM   17  H   UNL     1       8.067  26.917  55.583  1.00  0.00     0.277 HD
HETATM   18  H   UNL     1       7.995  27.375  54.021  1.00  0.00     0.277 HD
BRANCH  16  19
HETATM   19  C   UNL     1       6.152  26.961  54.796  1.00  0.00     0.271 C 
BRANCH  19  20
HETATM   20  C   UNL     1       5.778  26.749  53.358  1.00  0.00    -0.030 A 
HETATM   21  C   UNL     1       5.388  25.480  52.900  1.00  0.00     0.012 A 
HETATM   22  C   UNL     1       5.009  25.294  51.568  1.00  0.00     0.040 A 
HETATM   23  C   UNL     1       5.011  26.371  50.686  1.00  0.00     0.102 A 
HETATM   24  C   UNL     1       5.436  27.627  51.120  1.00  0.00     0.102 A 
HETATM   25  O   UNL     1       4.579  26.126  49.410  1.00  0.00    -0.346 OA
HETATM   26  C   UNL     1       5.813  27.819  52.449  1.00  0.00     0.048 A 
HETATM   27  O   UNL     1       5.489  28.727  50.305  1.00  0.00    -0.346 OA
HETATM   28  C   UNL     1       5.343  28.376  48.921  1.00  0.00     0.202 C 
HETATM   29  C   UNL     1       4.241  27.344  48.734  1.00  0.00     0.202 C 
ENDBRANCH  19  20
ENDBRANCH  16  19
ENDBRANCH  13  16
ENDBRANCH   9  10
ENDBRANCH   1   9
TORSDOF 5
ENDMDL
MODEL 7
REMARK VINA RESULT:      -7.9      3.585     10.651
REMARK  5 active torsions:
REMARK  status: ('A' for Active; 'I' for Inactive)
REMARK    1  A    between atoms: C_2  and  C_3 
REMARK    2  A    between atoms: C_3  and  N_4 
REMARK    3  A    between atoms: N_4  and  C_7 
REMARK    4  A    between atoms: C_10  and  O_11 
REMARK    5  A    between atoms: O_11  and  C_12 
ROOT
HETATM    1  C   UNL     1       6.708  28.430  54.565  1.00  0.00     0.164 A 
HETATM    2  N   UNL     1       5.528  28.829  54.049  1.00  0.00    -0.236 NA
HETATM    3  C   UNL     1       5.090  28.158  52.954  1.00  0.00     0.142 A 
HETATM    4  C   UNL     1       5.783  27.116  52.350  1.00  0.00     0.062 A 
HETATM    5  C   UNL     1       5.251  26.460  51.199  1.00  0.00     0.101 C 
HETATM    6  N   UNL     1       4.817  25.930  50.264  1.00  0.00    -0.191 NA
HETATM    7  C   UNL     1       7.006  26.740  52.903  1.00  0.00     0.028 A 
HETATM    8  C   UNL     1       7.482  27.412  54.027  1.00  0.00     0.059 A 
ENDROOT
BRANCH   1   9
HETATM    9  O   UNL     1       7.229  29.081  55.662  1.00  0.00    -0.329 OA
BRANCH   9  10
HETATM   10  C   UNL     1       6.724  28.634  56.927  1.00  0.00     0.130 C 
HETATM   11  C   UNL     1       7.948  28.410  57.825  1.00  0.00     0.034 C 
HETATM   12  C   UNL     1       8.732  29.707  58.053  1.00  0.00     0.035 C 
HETATM   13  C   UNL     1       7.868  30.848  58.601  1.00  0.00     0.186 C 
HETATM   14  C   UNL     1       6.573  31.021  57.797  1.00  0.00     0.035 C 
HETATM   15  C   UNL     1       5.823  29.709  57.552  1.00  0.00     0.034 C 
BRANCH  13  16
HETATM   16  N   UNL     1       7.518  30.598  60.045  1.00  0.00    -0.067 N 
HETATM   17  H   UNL     1       7.470  29.595  60.255  1.00  0.00     0.277 HD
HETATM   18  H   UNL     1       6.569  30.953  60.231  1.00  0.00     0.277 HD
BRANCH  16  19
HETATM   19  C   UNL     1       8.418  31.260  61.040  1.00  0.00     0.271 C 
BRANCH  19  20
HETATM   20  C   UNL     1       7.644  32.074  62.035  1.00  0.00    -0.030 A 
HETATM   21  C   UNL     1       8.200  32.395  63.284  1.00  0.00     0.012 A 
HETATM   22  C   UNL     1       7.489  33.181  64.194  1.00  0.00     0.040 A 
HETATM   23  C   UNL     1       6.223  33.657  63.865  1.00  0.00     0.102 A 
HETATM   24  C   UNL     1       5.644  33.309  62.644  1.00  0.00     0.102 A 
HETATM   25  O   UNL     1       5.607  34.463  64.784  1.00  0.00    -0.346 OA
HETATM   26  C   UNL     1       6.351  32.527  61.730  1.00  0.00     0.048 A 
HETATM   27  O   UNL     1       4.394  33.718  62.260  1.00  0.00    -0.346 OA
HETATM   28  C   UNL     1       3.655  34.282  63.354  1.00  0.00     0.202 C 
HETATM   29  C   UNL     1       4.533  35.202  64.188  1.00  0.00     0.202 C 
ENDBRANCH  19  20
ENDBRANCH  16  19
ENDBRANCH  13  16
ENDBRANCH   9  10
ENDBRANCH   1   9
TORSDOF 5
ENDMDL
MODEL 8
REMARK VINA RESULT:      -7.8      5.432      7.785
REMARK  5 active torsions:
REMARK  status: ('A' for Active; 'I' for Inactive)
REMARK    1  A    between atoms: C_2  and  C_3 
REMARK    2  A    between atoms: C_3  and  N_4 
REMARK    3  A    between atoms: N_4  and  C_7 
REMARK    4  A    between atoms: C_10  and  O_11 
REMARK    5  A    between atoms: O_11  and  C_12 
ROOT
HETATM    1  C   UNL     1       5.480  29.695  49.688  1.00  0.00     0.164 A 
HETATM    2  N   UNL     1       6.355  30.693  49.928  1.00  0.00    -0.236 NA
HETATM    3  C   UNL     1       6.025  31.915  49.442  1.00  0.00     0.142 A 
HETATM    4  C   UNL     1       4.866  32.180  48.723  1.00  0.00     0.062 A 
HETATM    5  C   UNL     1       4.591  33.498  48.247  1.00  0.00     0.101 C 
HETATM    6  N   UNL     1       4.371  34.569  47.861  1.00  0.00    -0.191 NA
HETATM    7  C   UNL     1       3.991  31.121  48.483  1.00  0.00     0.028 A 
HETATM    8  C   UNL     1       4.306  29.854  48.969  1.00  0.00     0.059 A 
ENDROOT
BRANCH   1   9
HETATM    9  O   UNL     1       5.760  28.420  50.130  1.00  0.00    -0.329 OA
BRANCH   9  10
HETATM   10  C   UNL     1       4.693  27.776  50.837  1.00  0.00     0.130 C 
HETATM   11  C   UNL     1       5.056  26.286  50.902  1.00  0.00     0.034 C 
HETATM   12  C   UNL     1       6.356  26.050  51.677  1.00  0.00     0.035 C 
HETATM   13  C   UNL     1       6.341  26.658  53.084  1.00  0.00     0.186 C 
HETATM   14  C   UNL     1       5.866  28.116  53.071  1.00  0.00     0.035 C 
HETATM   15  C   UNL     1       4.583  28.336  52.263  1.00  0.00     0.034 C 
BRANCH  13  16
HETATM   16  N   UNL     1       5.446  25.859  53.995  1.00  0.00    -0.067 N 
HETATM   17  H   UNL     1       5.209  24.946  53.589  1.00  0.00     0.277 HD
HETATM   18  H   UNL     1       4.544  26.345  54.096  1.00  0.00     0.277 HD
BRANCH  16  19
HETATM   19  C   UNL     1       5.972  25.652  55.380  1.00  0.00     0.271 C 
BRANCH  19  20
HETATM   20  C   UNL     1       6.846  24.435  55.467  1.00  0.00    -0.030 A 
HETATM   21  C   UNL     1       7.597  24.176  56.625  1.00  0.00     0.012 A 
HETATM   22  C   UNL     1       8.384  23.025  56.715  1.00  0.00     0.040 A 
HETATM   23  C   UNL     1       8.424  22.123  55.655  1.00  0.00     0.102 A 
HETATM   24  C   UNL     1       7.716  22.392  54.484  1.00  0.00     0.102 A 
HETATM   25  O   UNL     1       9.176  20.993  55.833  1.00  0.00    -0.346 OA
HETATM   26  C   UNL     1       6.926  23.539  54.390  1.00  0.00     0.048 A 
HETATM   27  O   UNL     1       7.726  21.567  53.391  1.00  0.00    -0.346 OA
HETATM   28  C   UNL     1       8.758  20.572  53.481  1.00  0.00     0.202 C 
HETATM   29  C   UNL     1       8.824  19.981  54.880  1.00  0.00     0.202 C 
ENDBRANCH  19  20
ENDBRANCH  16  19
ENDBRANCH  13  16
ENDBRANCH   9  10
ENDBRANCH   1   9
TORSDOF 5
ENDMDL
MODEL 9
REMARK VINA RESULT:      -7.8      3.290     10.007
REMARK  5 active torsions:
REMARK  status: ('A' for Active; 'I' for Inactive)
REMARK    1  A    between atoms: C_2  and  C_3 
REMARK    2  A    between atoms: C_3  and  N_4 
REMARK    3  A    between atoms: N_4  and  C_7 
REMARK    4  A    between atoms: C_10  and  O_11 
REMARK    5  A    between atoms: O_11  and  C_12 
ROOT
HETATM    1  C   UNL     1       6.231  26.361  53.390  1.00  0.00     0.164 A 
HETATM    2  N   UNL     1       6.327  27.423  52.565  1.00  0.00    -0.236 NA
HETATM    3  C   UNL     1       5.727  27.303  51.354  1.00  0.00     0.142 A 
HETATM    4  C   UNL     1       5.044  26.169  50.933  1.00  0.00     0.062 A 
HETATM    5  C   UNL     1       4.437  26.123  49.641  1.00  0.00     0.101 C 
HETATM    6  N   UNL     1       3.946  26.090  48.592  1.00  0.00    -0.191 NA
HETATM    7  C   UNL     1       4.976  25.086  51.808  1.00  0.00     0.028 A 
HETATM    8  C   UNL     1       5.585  25.180  53.058  1.00  0.00     0.059 A 
ENDROOT
BRANCH   1   9
HETATM    9  O   UNL     1       6.838  26.400  54.627  1.00  0.00    -0.329 OA
BRANCH   9  10
HETATM   10  C   UNL     1       6.125  27.139  55.628  1.00  0.00     0.130 C 
HETATM   11  C   UNL     1       6.525  26.530  56.979  1.00  0.00     0.034 C 
HETATM   12  C   UNL     1       8.026  26.681  57.249  1.00  0.00     0.035 C 
HETATM   13  C   UNL     1       8.517  28.129  57.149  1.00  0.00     0.186 C 
HETATM   14  C   UNL     1       8.033  28.809  55.862  1.00  0.00     0.035 C 
HETATM   15  C   UNL     1       6.537  28.618  55.593  1.00  0.00     0.034 C 
BRANCH  13  16
HETATM   16  N   UNL     1       8.044  28.930  58.333  1.00  0.00    -0.067 N 
HETATM   17  H   UNL     1       8.223  28.441  59.218  1.00  0.00     0.277 HD
HETATM   18  H   UNL     1       7.020  29.031  58.289  1.00  0.00     0.277 HD
BRANCH  16  19
HETATM   19  C   UNL     1       8.600  30.316  58.425  1.00  0.00     0.271 C 
BRANCH  19  20
HETATM   20  C   UNL     1       7.905  31.125  59.481  1.00  0.00    -0.030 A 
HETATM   21  C   UNL     1       6.734  31.839  59.179  1.00  0.00     0.012 A 
HETATM   22  C   UNL     1       6.071  32.564  60.173  1.00  0.00     0.040 A 
HETATM   23  C   UNL     1       6.567  32.577  61.473  1.00  0.00     0.102 A 
HETATM   24  C   UNL     1       7.752  31.906  61.775  1.00  0.00     0.102 A 
HETATM   25  O   UNL     1       5.838  33.266  62.406  1.00  0.00    -0.346 OA
HETATM   26  C   UNL     1       8.416  31.179  60.787  1.00  0.00     0.048 A 
HETATM   27  O   UNL     1       8.315  31.895  63.024  1.00  0.00    -0.346 OA
HETATM   28  C   UNL     1       7.716  32.872  63.889  1.00  0.00     0.202 C 
HETATM   29  C   UNL     1       6.203  32.881  63.737  1.00  0.00     0.202 C 
ENDBRANCH  19  20
ENDBRANCH  16  19
ENDBRANCH  13  16
ENDBRANCH   9  10
ENDBRANCH   1   9
TORSDOF 5
ENDMDL
MODEL 10
REMARK VINA RESULT:      -7.6      5.413      9.623
REMARK  5 active torsions:
REMARK  status: ('A' for Active; 'I' for Inactive)
REMARK    1  A    between atoms: C_2  and  C_3 
REMARK    2  A    between atoms: C_3  and  N_4 
REMARK    3  A    between atoms: N_4  and  C_7 
REMARK    4  A    between atoms: C_10  and  O_11 
REMARK    5  A    between atoms: O_11  and  C_12 
ROOT
HETATM    1  C   UNL     1       6.714  24.429  54.334  1.00  0.00     0.164 A 
HETATM    2  N   UNL     1       6.996  23.938  53.110  1.00  0.00    -0.236 NA
HETATM    3  C   UNL     1       7.561  22.705  53.069  1.00  0.00     0.142 A 
HETATM    4  C   UNL     1       7.863  21.950  54.196  1.00  0.00     0.062 A 
HETATM    5  C   UNL     1       8.457  20.658  54.067  1.00  0.00     0.101 C 
HETATM    6  N   UNL     1       8.941  19.610  53.958  1.00  0.00    -0.191 NA
HETATM    7  C   UNL     1       7.570  22.495  55.445  1.00  0.00     0.028 A 
HETATM    8  C   UNL     1       6.990  23.760  55.517  1.00  0.00     0.059 A 
ENDROOT
BRANCH   1   9
HETATM    9  O   UNL     1       6.161  25.686  54.455  1.00  0.00    -0.329 OA
BRANCH   9  10
HETATM   10  C   UNL     1       6.264  26.507  53.286  1.00  0.00     0.130 C 
HETATM   11  C   UNL     1       4.828  26.883  52.896  1.00  0.00     0.034 C 
HETATM   12  C   UNL     1       4.134  27.696  53.995  1.00  0.00     0.035 C 
HETATM   13  C   UNL     1       4.920  28.945  54.411  1.00  0.00     0.186 C 
HETATM   14  C   UNL     1       6.393  28.626  54.692  1.00  0.00     0.035 C 
HETATM   15  C   UNL     1       7.058  27.784  53.598  1.00  0.00     0.034 C 
BRANCH  13  16
HETATM   16  N   UNL     1       4.843  29.999  53.337  1.00  0.00    -0.067 N 
HETATM   17  H   UNL     1       5.402  29.744  52.515  1.00  0.00     0.277 HD
HETATM   18  H   UNL     1       5.268  30.870  53.685  1.00  0.00     0.277 HD
BRANCH  16  19
HETATM   19  C   UNL     1       3.459  30.353  52.892  1.00  0.00     0.271 C 
BRANCH  19  20
HETATM   20  C   UNL     1       3.239  30.022  51.445  1.00  0.00    -0.030 A 
HETATM   21  C   UNL     1       2.198  29.162  51.059  1.00  0.00     0.012 A 
HETATM   22  C   UNL     1       1.975  28.883  49.708  1.00  0.00     0.040 A 
HETATM   23  C   UNL     1       2.783  29.463  48.734  1.00  0.00     0.102 A 
HETATM   24  C   UNL     1       3.846  30.286  49.109  1.00  0.00     0.102 A 
HETATM   25  O   UNL     1       2.475  29.186  47.429  1.00  0.00    -0.346 OA
HETATM   26  C   UNL     1       4.071  30.569  50.456  1.00  0.00     0.048 A 
HETATM   27  O   UNL     1       4.699  30.871  48.211  1.00  0.00    -0.346 OA
HETATM   28  C   UNL     1       4.555  30.315  46.895  1.00  0.00     0.202 C 
HETATM   29  C   UNL     1       3.088  30.128  46.540  1.00  0.00     0.202 C 
ENDBRANCH  19  20
ENDBRANCH  16  19
ENDBRANCH  13  16
ENDBRANCH   9  10
ENDBRANCH   1   9
TORSDOF 5
ENDMDL
