MODEL 1
REMARK VINA RESULT:      -9.9      0.000      0.000
REMARK  6 active torsions:
REMARK  status: ('A' for Active; 'I' for Inactive)
REMARK    1  A    between atoms: C_4  and  C_5 
REMARK    2  A    between atoms: C_5  and  C_6 
REMARK    3  A    between atoms: C_6  and  N_7 
REMARK    4  A    between atoms: C_16  and  C_17 
REMARK    5  A    between atoms: C_24  and  C_25 
REMARK    6  A    between atoms: C_24  and  C_29 
ROOT
HETATM    1  N   UNL     1       6.325  26.282  53.623  1.00  0.00    -0.284 N 
HETATM    2  C   UNL     1       5.260  25.787  52.872  1.00  0.00     0.331 A 
HETATM    3  O   UNL     1       5.295  24.739  52.239  1.00  0.00    -0.246 OA
HETATM    4  N   UNL     1       4.133  26.549  52.869  1.00  0.00    -0.275 N 
HETATM    5  C   UNL     1       3.975  27.724  53.514  1.00  0.00     0.262 A 
HETATM    6  O   UNL     1       2.950  28.381  53.457  1.00  0.00    -0.267 OA
HETATM    7  C   UNL     1       5.113  28.214  54.299  1.00  0.00     0.100 A 
HETATM    8  C   UNL     1       6.241  27.488  54.298  1.00  0.00     0.128 A 
HETATM    9  N   UNL     1       7.331  27.956  54.987  1.00  0.00    -0.326 N 
HETATM   10  C   UNL     1       7.333  29.095  55.646  1.00  0.00     0.138 A 
HETATM   11  N   UNL     1       6.275  29.864  55.707  1.00  0.00    -0.345 N 
HETATM   12  H   UNL     1       6.330  30.746  56.220  1.00  0.00     0.163 HD
HETATM   13  C   UNL     1       4.926  29.503  55.068  1.00  0.00     0.264 A 
HETATM   14  H   UNL     1       3.358  26.199  52.317  1.00  0.00     0.173 HD
HETATM   15  H   UNL     1       8.214  27.452  55.002  1.00  0.00     0.169 HD
ENDROOT
BRANCH   1  16
HETATM   16  C   UNL     1       7.524  25.432  53.635  1.00  0.00     0.140 C 
BRANCH  16  17
HETATM   17  C   UNL     1       7.600  24.551  54.891  1.00  0.00     0.059 C 
BRANCH  17  18
HETATM   18  C   UNL     1       7.739  23.085  54.569  1.00  0.00    -0.057 A 
HETATM   19  C   UNL     1       7.971  22.665  53.249  1.00  0.00     0.007 A 
HETATM   20  C   UNL     1       8.118  21.309  52.951  1.00  0.00     0.001 A 
HETATM   21  C   UNL     1       8.054  20.360  53.967  1.00  0.00     0.000 A 
HETATM   22  C   UNL     1       7.846  20.766  55.283  1.00  0.00     0.001 A 
HETATM   23  C   UNL     1       7.690  22.121  55.585  1.00  0.00     0.007 A 
ENDBRANCH  17  18
ENDBRANCH  16  17
ENDBRANCH   1  16
BRANCH  13  24
HETATM   24  C   UNL     1       3.917  29.382  56.215  1.00  0.00     0.426 C 
HETATM   25  F   UNL     1       3.622  28.066  56.400  1.00  0.00    -0.168 F 
HETATM   26  F   UNL     1       4.481  29.807  57.372  1.00  0.00    -0.168 F 
HETATM   27  F   UNL     1       2.762  30.033  56.049  1.00  0.00    -0.168 F 
ENDBRANCH  13  24
BRANCH  13  28
HETATM   28  C   UNL     1       4.492  30.720  54.241  1.00  0.00     0.426 C 
HETATM   29  F   UNL     1       5.026  30.636  52.996  1.00  0.00    -0.168 F 
HETATM   30  F   UNL     1       3.178  30.924  54.127  1.00  0.00    -0.168 F 
HETATM   31  F   UNL     1       5.028  31.839  54.801  1.00  0.00    -0.168 F 
ENDBRANCH  13  28
BRANCH  10  32
HETATM   32  C   UNL     1       8.569  29.466  56.304  1.00  0.00     0.118 A 
HETATM   33  O   UNL     1       9.728  29.684  55.607  1.00  0.00    -0.319 OA
HETATM   34  C   UNL     1      10.693  29.999  56.507  1.00  0.00     0.142 A 
HETATM   35  C   UNL     1      10.178  29.989  57.781  1.00  0.00     0.027 A 
HETATM   36  C   UNL     1       8.807  29.646  57.654  1.00  0.00     0.043 A 
ENDBRANCH  10  32
TORSDOF 6
ENDMDL
MODEL 2
REMARK VINA RESULT:      -9.4      3.135      6.938
REMARK  6 active torsions:
REMARK  status: ('A' for Active; 'I' for Inactive)
REMARK    1  A    between atoms: C_4  and  C_5 
REMARK    2  A    between atoms: C_5  and  C_6 
REMARK    3  A    between atoms: C_6  and  N_7 
REMARK    4  A    between atoms: C_16  and  C_17 
REMARK    5  A    between atoms: C_24  and  C_25 
REMARK    6  A    between atoms: C_24  and  C_29 
ROOT
HETATM    1  N   UNL     1       6.725  27.595  55.877  1.00  0.00    -0.284 N 
HETATM    2  C   UNL     1       6.255  28.793  55.343  1.00  0.00     0.331 A 
HETATM    3  O   UNL     1       6.237  29.856  55.951  1.00  0.00    -0.246 OA
HETATM    4  N   UNL     1       5.793  28.732  54.064  1.00  0.00    -0.275 N 
HETATM    5  C   UNL     1       5.750  27.622  53.296  1.00  0.00     0.262 A 
HETATM    6  O   UNL     1       5.302  27.617  52.161  1.00  0.00    -0.267 OA
HETATM    7  C   UNL     1       6.258  26.379  53.885  1.00  0.00     0.100 A 
HETATM    8  C   UNL     1       6.697  26.414  55.152  1.00  0.00     0.128 A 
HETATM    9  N   UNL     1       7.130  25.251  55.736  1.00  0.00    -0.326 N 
HETATM   10  C   UNL     1       7.127  24.090  55.118  1.00  0.00     0.138 A 
HETATM   11  N   UNL     1       6.722  23.963  53.879  1.00  0.00    -0.345 N 
HETATM   12  H   UNL     1       6.727  23.037  53.447  1.00  0.00     0.163 HD
HETATM   13  C   UNL     1       6.262  25.144  53.012  1.00  0.00     0.264 A 
HETATM   14  H   UNL     1       5.441  29.598  53.673  1.00  0.00     0.173 HD
HETATM   15  H   UNL     1       7.455  25.222  56.699  1.00  0.00     0.169 HD
ENDROOT
BRANCH   1  16
HETATM   16  C   UNL     1       7.243  27.687  57.249  1.00  0.00     0.140 C 
BRANCH  16  17
HETATM   17  C   UNL     1       8.750  27.984  57.283  1.00  0.00     0.059 C 
BRANCH  17  18
HETATM   18  C   UNL     1       9.068  29.318  57.910  1.00  0.00    -0.057 A 
HETATM   19  C   UNL     1      10.162  30.074  57.461  1.00  0.00     0.007 A 
HETATM   20  C   UNL     1      10.447  31.317  58.028  1.00  0.00     0.001 A 
HETATM   21  C   UNL     1       9.634  31.829  59.035  1.00  0.00     0.000 A 
HETATM   22  C   UNL     1       8.532  31.097  59.474  1.00  0.00     0.001 A 
HETATM   23  C   UNL     1       8.249  29.850  58.916  1.00  0.00     0.007 A 
ENDBRANCH  17  18
ENDBRANCH  16  17
ENDBRANCH   1  16
BRANCH  13  24
HETATM   24  C   UNL     1       7.244  25.236  51.839  1.00  0.00     0.426 C 
HETATM   25  F   UNL     1       8.314  25.984  52.223  1.00  0.00    -0.168 F 
HETATM   26  F   UNL     1       7.731  24.005  51.549  1.00  0.00    -0.168 F 
HETATM   27  F   UNL     1       6.762  25.771  50.714  1.00  0.00    -0.168 F 
ENDBRANCH  13  24
BRANCH  13  28
HETATM   28  C   UNL     1       4.909  24.745  52.410  1.00  0.00     0.426 C 
HETATM   29  F   UNL     1       3.922  24.985  53.310  1.00  0.00    -0.168 F 
HETATM   30  F   UNL     1       4.578  25.325  51.253  1.00  0.00    -0.168 F 
HETATM   31  F   UNL     1       4.905  23.399  52.203  1.00  0.00    -0.168 F 
ENDBRANCH  13  28
BRANCH  10  32
HETATM   32  C   UNL     1       7.592  22.946  55.876  1.00  0.00     0.118 A 
HETATM   33  O   UNL     1       8.149  23.075  57.121  1.00  0.00    -0.319 OA
HETATM   34  C   UNL     1       8.487  21.832  57.548  1.00  0.00     0.142 A 
HETATM   35  C   UNL     1       8.155  20.896  56.599  1.00  0.00     0.027 A 
HETATM   36  C   UNL     1       7.576  21.611  55.519  1.00  0.00     0.043 A 
ENDBRANCH  10  32
TORSDOF 6
ENDMDL
MODEL 3
REMARK VINA RESULT:      -9.3      3.286      6.037
REMARK  6 active torsions:
REMARK  status: ('A' for Active; 'I' for Inactive)
REMARK    1  A    between atoms: C_4  and  C_5 
REMARK    2  A    between atoms: C_5  and  C_6 
REMARK    3  A    between atoms: C_6  and  N_7 
REMARK    4  A    between atoms: C_16  and  C_17 
REMARK    5  A    between atoms: C_24  and  C_25 
REMARK    6  A    between atoms: C_24  and  C_29 
ROOT
HETATM    1  N   UNL     1       6.040  27.403  52.322  1.00  0.00    -0.284 N 
HETATM    2  C   UNL     1       5.545  28.704  52.386  1.00  0.00     0.331 A 
HETATM    3  O   UNL     1       5.146  29.336  51.416  1.00  0.00    -0.246 OA
HETATM    4  N   UNL     1       5.526  29.271  53.623  1.00  0.00    -0.275 N 
HETATM    5  C   UNL     1       5.948  28.685  54.764  1.00  0.00     0.262 A 
HETATM    6  O   UNL     1       5.931  29.248  55.846  1.00  0.00    -0.267 OA
HETATM    7  C   UNL     1       6.456  27.313  54.663  1.00  0.00     0.100 A 
HETATM    8  C   UNL     1       6.504  26.745  53.449  1.00  0.00     0.128 A 
HETATM    9  N   UNL     1       7.023  25.480  53.329  1.00  0.00    -0.326 N 
HETATM   10  C   UNL     1       7.491  24.794  54.349  1.00  0.00     0.138 A 
HETATM   11  N   UNL     1       7.478  25.266  55.570  1.00  0.00    -0.345 N 
HETATM   12  H   UNL     1       7.865  24.699  56.327  1.00  0.00     0.163 HD
HETATM   13  C   UNL     1       6.880  26.630  55.945  1.00  0.00     0.264 A 
HETATM   14  H   UNL     1       5.176  30.221  53.675  1.00  0.00     0.173 HD
HETATM   15  H   UNL     1       7.097  25.013  52.429  1.00  0.00     0.169 HD
ENDROOT
BRANCH   1  16
HETATM   16  C   UNL     1       6.028  26.800  50.983  1.00  0.00     0.140 C 
BRANCH  16  17
HETATM   17  C   UNL     1       4.799  25.905  50.758  1.00  0.00     0.059 C 
BRANCH  17  18
HETATM   18  C   UNL     1       4.140  26.144  49.423  1.00  0.00    -0.057 A 
HETATM   19  C   UNL     1       3.551  25.082  48.719  1.00  0.00     0.007 A 
HETATM   20  C   UNL     1       2.924  25.304  47.492  1.00  0.00     0.001 A 
HETATM   21  C   UNL     1       2.861  26.590  46.963  1.00  0.00     0.000 A 
HETATM   22  C   UNL     1       3.423  27.656  47.662  1.00  0.00     0.001 A 
HETATM   23  C   UNL     1       4.059  27.437  48.886  1.00  0.00     0.007 A 
ENDBRANCH  17  18
ENDBRANCH  16  17
ENDBRANCH   1  16
BRANCH  13  24
HETATM   24  C   UNL     1       5.712  26.351  56.896  1.00  0.00     0.426 C 
HETATM   25  F   UNL     1       4.707  25.761  56.193  1.00  0.00    -0.168 F 
HETATM   26  F   UNL     1       6.090  25.451  57.837  1.00  0.00    -0.168 F 
HETATM   27  F   UNL     1       5.196  27.415  57.518  1.00  0.00    -0.168 F 
ENDBRANCH  13  24
BRANCH  13  28
HETATM   28  C   UNL     1       7.943  27.363  56.773  1.00  0.00     0.426 C 
HETATM   29  F   UNL     1       8.665  28.180  55.966  1.00  0.00    -0.168 F 
HETATM   30  F   UNL     1       7.502  28.074  57.813  1.00  0.00    -0.168 F 
HETATM   31  F   UNL     1       8.826  26.445  57.257  1.00  0.00    -0.168 F 
ENDBRANCH  13  28
BRANCH  10  32
HETATM   32  C   UNL     1       8.029  23.480  54.058  1.00  0.00     0.118 A 
HETATM   33  O   UNL     1       8.938  22.868  54.880  1.00  0.00    -0.319 OA
HETATM   34  C   UNL     1       9.247  21.669  54.325  1.00  0.00     0.142 A 
HETATM   35  C   UNL     1       8.551  21.492  53.154  1.00  0.00     0.027 A 
HETATM   36  C   UNL     1       7.763  22.658  52.979  1.00  0.00     0.043 A 
ENDBRANCH  10  32
TORSDOF 6
ENDMDL
MODEL 4
REMARK VINA RESULT:      -8.6      2.235      2.736
REMARK  6 active torsions:
REMARK  status: ('A' for Active; 'I' for Inactive)
REMARK    1  A    between atoms: C_4  and  C_5 
REMARK    2  A    between atoms: C_5  and  C_6 
REMARK    3  A    between atoms: C_6  and  N_7 
REMARK    4  A    between atoms: C_16  and  C_17 
REMARK    5  A    between atoms: C_24  and  C_25 
REMARK    6  A    between atoms: C_24  and  C_29 
ROOT
HETATM    1  N   UNL     1       7.043  25.981  53.046  1.00  0.00    -0.284 N 
HETATM    2  C   UNL     1       6.950  25.278  51.846  1.00  0.00     0.331 A 
HETATM    3  O   UNL     1       7.531  24.223  51.621  1.00  0.00    -0.246 OA
HETATM    4  N   UNL     1       6.156  25.836  50.892  1.00  0.00    -0.275 N 
HETATM    5  C   UNL     1       5.475  26.996  51.014  1.00  0.00     0.262 A 
HETATM    6  O   UNL     1       4.796  27.465  50.117  1.00  0.00    -0.267 OA
HETATM    7  C   UNL     1       5.590  27.708  52.291  1.00  0.00     0.100 A 
HETATM    8  C   UNL     1       6.386  27.185  53.237  1.00  0.00     0.128 A 
HETATM    9  N   UNL     1       6.544  27.863  54.419  1.00  0.00    -0.326 N 
HETATM   10  C   UNL     1       5.960  29.014  54.673  1.00  0.00     0.138 A 
HETATM   11  N   UNL     1       5.161  29.594  53.812  1.00  0.00    -0.345 N 
HETATM   12  H   UNL     1       4.742  30.495  54.051  1.00  0.00     0.163 HD
HETATM   13  C   UNL     1       4.788  28.979  52.455  1.00  0.00     0.264 A 
HETATM   14  H   UNL     1       6.091  25.334  50.014  1.00  0.00     0.173 HD
HETATM   15  H   UNL     1       7.149  27.518  55.160  1.00  0.00     0.169 HD
ENDROOT
BRANCH   1  16
HETATM   16  C   UNL     1       7.885  25.350  54.072  1.00  0.00     0.140 C 
BRANCH  16  17
HETATM   17  C   UNL     1       7.061  24.524  55.072  1.00  0.00     0.059 C 
BRANCH  17  18
HETATM   18  C   UNL     1       7.563  23.109  55.213  1.00  0.00    -0.057 A 
HETATM   19  C   UNL     1       7.628  22.261  54.096  1.00  0.00     0.007 A 
HETATM   20  C   UNL     1       8.109  20.957  54.220  1.00  0.00     0.001 A 
HETATM   21  C   UNL     1       8.549  20.490  55.456  1.00  0.00     0.000 A 
HETATM   22  C   UNL     1       8.510  21.329  56.567  1.00  0.00     0.001 A 
HETATM   23  C   UNL     1       8.021  22.632  56.449  1.00  0.00     0.007 A 
ENDBRANCH  17  18
ENDBRANCH  16  17
ENDBRANCH   1  16
BRANCH  13  24
HETATM   24  C   UNL     1       3.275  28.741  52.484  1.00  0.00     0.426 C 
HETATM   25  F   UNL     1       3.026  27.594  53.174  1.00  0.00    -0.168 F 
HETATM   26  F   UNL     1       2.665  29.734  53.175  1.00  0.00    -0.168 F 
HETATM   27  F   UNL     1       2.677  28.631  51.294  1.00  0.00    -0.168 F 
ENDBRANCH  13  24
BRANCH  13  28
HETATM   28  C   UNL     1       5.032  30.065  51.399  1.00  0.00     0.426 C 
HETATM   29  F   UNL     1       6.314  29.993  50.961  1.00  0.00    -0.168 F 
HETATM   30  F   UNL     1       4.219  30.058  50.340  1.00  0.00    -0.168 F 
HETATM   31  F   UNL     1       4.910  31.284  51.994  1.00  0.00    -0.168 F 
ENDBRANCH  13  28
BRANCH  10  32
HETATM   32  C   UNL     1       6.244  29.620  55.958  1.00  0.00     0.118 A 
HETATM   33  O   UNL     1       5.573  30.727  56.406  1.00  0.00    -0.319 OA
HETATM   34  C   UNL     1       6.079  31.047  57.623  1.00  0.00     0.142 A 
HETATM   35  C   UNL     1       7.070  30.163  57.974  1.00  0.00     0.027 A 
HETATM   36  C   UNL     1       7.180  29.240  56.903  1.00  0.00     0.043 A 
ENDBRANCH  10  32
TORSDOF 6
ENDMDL
MODEL 5
REMARK VINA RESULT:      -8.6      3.578      7.440
REMARK  6 active torsions:
REMARK  status: ('A' for Active; 'I' for Inactive)
REMARK    1  A    between atoms: C_4  and  C_5 
REMARK    2  A    between atoms: C_5  and  C_6 
REMARK    3  A    between atoms: C_6  and  N_7 
REMARK    4  A    between atoms: C_16  and  C_17 
REMARK    5  A    between atoms: C_24  and  C_25 
REMARK    6  A    between atoms: C_24  and  C_29 
ROOT
HETATM    1  N   UNL     1       7.033  28.450  55.985  1.00  0.00    -0.284 N 
HETATM    2  C   UNL     1       7.668  27.755  57.013  1.00  0.00     0.331 A 
HETATM    3  O   UNL     1       7.960  28.246  58.097  1.00  0.00    -0.246 OA
HETATM    4  N   UNL     1       7.966  26.453  56.752  1.00  0.00    -0.275 N 
HETATM    5  C   UNL     1       7.707  25.803  55.596  1.00  0.00     0.262 A 
HETATM    6  O   UNL     1       8.019  24.640  55.405  1.00  0.00    -0.267 OA
HETATM    7  C   UNL     1       7.034  26.562  54.538  1.00  0.00     0.100 A 
HETATM    8  C   UNL     1       6.751  27.853  54.768  1.00  0.00     0.128 A 
HETATM    9  N   UNL     1       6.165  28.591  53.771  1.00  0.00    -0.326 N 
HETATM   10  C   UNL     1       5.874  28.099  52.587  1.00  0.00     0.138 A 
HETATM   11  N   UNL     1       6.107  26.848  52.276  1.00  0.00    -0.345 N 
HETATM   12  H   UNL     1       5.875  26.517  51.338  1.00  0.00     0.163 HD
HETATM   13  C   UNL     1       6.693  25.826  53.261  1.00  0.00     0.264 A 
HETATM   14  H   UNL     1       8.436  25.944  57.491  1.00  0.00     0.173 HD
HETATM   15  H   UNL     1       5.948  29.577  53.889  1.00  0.00     0.169 HD
ENDROOT
BRANCH   1  16
HETATM   16  C   UNL     1       6.697  29.847  56.296  1.00  0.00     0.140 C 
BRANCH  16  17
HETATM   17  C   UNL     1       5.242  30.005  56.762  1.00  0.00     0.059 C 
BRANCH  17  18
HETATM   18  C   UNL     1       5.105  30.925  57.948  1.00  0.00    -0.057 A 
HETATM   19  C   UNL     1       6.236  31.542  58.505  1.00  0.00     0.007 A 
HETATM   20  C   UNL     1       6.110  32.409  59.592  1.00  0.00     0.001 A 
HETATM   21  C   UNL     1       4.853  32.685  60.122  1.00  0.00     0.000 A 
HETATM   22  C   UNL     1       3.720  32.095  59.564  1.00  0.00     0.001 A 
HETATM   23  C   UNL     1       3.843  31.221  58.483  1.00  0.00     0.007 A 
ENDBRANCH  17  18
ENDBRANCH  16  17
ENDBRANCH   1  16
BRANCH  13  24
HETATM   24  C   UNL     1       5.626  24.743  53.454  1.00  0.00     0.426 C 
HETATM   25  F   UNL     1       4.868  25.065  54.538  1.00  0.00    -0.168 F 
HETATM   26  F   UNL     1       4.780  24.735  52.394  1.00  0.00    -0.168 F 
HETATM   27  F   UNL     1       6.080  23.500  53.637  1.00  0.00    -0.168 F 
ENDBRANCH  13  24
BRANCH  13  28
HETATM   28  C   UNL     1       7.867  25.148  52.545  1.00  0.00     0.426 C 
HETATM   29  F   UNL     1       8.897  26.025  52.433  1.00  0.00    -0.168 F 
HETATM   30  F   UNL     1       8.327  24.020  53.091  1.00  0.00    -0.168 F 
HETATM   31  F   UNL     1       7.488  24.856  51.270  1.00  0.00    -0.168 F 
ENDBRANCH  13  28
BRANCH  10  32
HETATM   32  C   UNL     1       5.280  29.011  51.630  1.00  0.00     0.118 A 
HETATM   33  O   UNL     1       6.034  29.883  50.890  1.00  0.00    -0.319 OA
HETATM   34  C   UNL     1       5.184  30.596  50.108  1.00  0.00     0.142 A 
HETATM   35  C   UNL     1       3.888  30.198  50.328  1.00  0.00     0.027 A 
HETATM   36  C   UNL     1       3.945  29.175  51.309  1.00  0.00     0.043 A 
ENDBRANCH  10  32
TORSDOF 6
ENDMDL
MODEL 6
REMARK VINA RESULT:      -8.6      3.997      7.041
REMARK  6 active torsions:
REMARK  status: ('A' for Active; 'I' for Inactive)
REMARK    1  A    between atoms: C_4  and  C_5 
REMARK    2  A    between atoms: C_5  and  C_6 
REMARK    3  A    between atoms: C_6  and  N_7 
REMARK    4  A    between atoms: C_16  and  C_17 
REMARK    5  A    between atoms: C_24  and  C_25 
REMARK    6  A    between atoms: C_24  and  C_29 
ROOT
HETATM    1  N   UNL     1       4.459  28.195  50.645  1.00  0.00    -0.284 N 
HETATM    2  C   UNL     1       4.909  27.330  49.649  1.00  0.00     0.331 A 
HETATM    3  O   UNL     1       4.667  27.470  48.456  1.00  0.00    -0.246 OA
HETATM    4  N   UNL     1       5.657  26.275  50.073  1.00  0.00    -0.275 N 
HETATM    5  C   UNL     1       5.981  26.005  51.356  1.00  0.00     0.262 A 
HETATM    6  O   UNL     1       6.635  25.030  51.685  1.00  0.00    -0.267 OA
HETATM    7  C   UNL     1       5.498  26.938  52.379  1.00  0.00     0.100 A 
HETATM    8  C   UNL     1       4.740  27.972  51.983  1.00  0.00     0.128 A 
HETATM    9  N   UNL     1       4.238  28.828  52.931  1.00  0.00    -0.326 N 
HETATM   10  C   UNL     1       4.452  28.680  54.220  1.00  0.00     0.138 A 
HETATM   11  N   UNL     1       5.185  27.704  54.696  1.00  0.00    -0.345 N 
HETATM   12  H   UNL     1       5.312  27.624  55.707  1.00  0.00     0.163 HD
HETATM   13  C   UNL     1       5.901  26.673  53.812  1.00  0.00     0.264 A 
HETATM   14  H   UNL     1       5.979  25.637  49.355  1.00  0.00     0.173 HD
HETATM   15  H   UNL     1       3.644  29.615  52.684  1.00  0.00     0.169 HD
ENDROOT
BRANCH   1  16
HETATM   16  C   UNL     1       3.675  29.341  50.164  1.00  0.00     0.140 C 
BRANCH  16  17
HETATM   17  C   UNL     1       2.163  29.077  50.224  1.00  0.00     0.059 C 
BRANCH  17  18
HETATM   18  C   UNL     1       1.557  28.844  48.863  1.00  0.00    -0.057 A 
HETATM   19  C   UNL     1       1.274  27.541  48.423  1.00  0.00     0.007 A 
HETATM   20  C   UNL     1       0.696  27.324  47.171  1.00  0.00     0.001 A 
HETATM   21  C   UNL     1       0.377  28.404  46.353  1.00  0.00     0.000 A 
HETATM   22  C   UNL     1       0.633  29.703  46.787  1.00  0.00     0.001 A 
HETATM   23  C   UNL     1       1.219  29.924  48.035  1.00  0.00     0.007 A 
ENDBRANCH  17  18
ENDBRANCH  16  17
ENDBRANCH   1  16
BRANCH  13  24
HETATM   24  C   UNL     1       7.403  26.851  54.060  1.00  0.00     0.426 C 
HETATM   25  F   UNL     1       7.815  27.993  53.444  1.00  0.00    -0.168 F 
HETATM   26  F   UNL     1       7.633  27.034  55.383  1.00  0.00    -0.168 F 
HETATM   27  F   UNL     1       8.188  25.858  53.632  1.00  0.00    -0.168 F 
ENDBRANCH  13  24
BRANCH  13  28
HETATM   28  C   UNL     1       5.535  25.290  54.366  1.00  0.00     0.426 C 
HETATM   29  F   UNL     1       4.475  24.793  53.680  1.00  0.00    -0.168 F 
HETATM   30  F   UNL     1       6.507  24.374  54.369  1.00  0.00    -0.168 F 
HETATM   31  F   UNL     1       5.112  25.435  55.652  1.00  0.00    -0.168 F 
ENDBRANCH  13  28
BRANCH  10  32
HETATM   32  C   UNL     1       3.834  29.651  55.100  1.00  0.00     0.118 A 
HETATM   33  O   UNL     1       3.085  30.694  54.622  1.00  0.00    -0.319 OA
HETATM   34  C   UNL     1       2.664  31.417  55.690  1.00  0.00     0.142 A 
HETATM   35  C   UNL     1       3.128  30.859  56.856  1.00  0.00     0.027 A 
HETATM   36  C   UNL     1       3.882  29.718  56.480  1.00  0.00     0.043 A 
ENDBRANCH  10  32
TORSDOF 6
ENDMDL
MODEL 7
REMARK VINA RESULT:      -8.5      3.843      7.717
REMARK  6 active torsions:
REMARK  status: ('A' for Active; 'I' for Inactive)
REMARK    1  A    between atoms: C_4  and  C_5 
REMARK    2  A    between atoms: C_5  and  C_6 
REMARK    3  A    between atoms: C_6  and  N_7 
REMARK    4  A    between atoms: C_16  and  C_17 
REMARK    5  A    between atoms: C_24  and  C_25 
REMARK    6  A    between atoms: C_24  and  C_29 
ROOT
HETATM    1  N   UNL     1       4.120  29.243  53.799  1.00  0.00    -0.284 N 
HETATM    2  C   UNL     1       4.245  29.388  55.180  1.00  0.00     0.331 A 
HETATM    3  O   UNL     1       3.717  30.284  55.827  1.00  0.00    -0.246 OA
HETATM    4  N   UNL     1       5.012  28.455  55.806  1.00  0.00    -0.275 N 
HETATM    5  C   UNL     1       5.653  27.430  55.205  1.00  0.00     0.262 A 
HETATM    6  O   UNL     1       6.350  26.634  55.811  1.00  0.00    -0.267 OA
HETATM    7  C   UNL     1       5.496  27.303  53.752  1.00  0.00     0.100 A 
HETATM    8  C   UNL     1       4.762  28.226  53.113  1.00  0.00     0.128 A 
HETATM    9  N   UNL     1       4.644  28.150  51.748  1.00  0.00    -0.326 N 
HETATM   10  C   UNL     1       5.229  27.220  51.025  1.00  0.00     0.138 A 
HETATM   11  N   UNL     1       5.959  26.276  51.564  1.00  0.00    -0.345 N 
HETATM   12  H   UNL     1       6.403  25.583  50.959  1.00  0.00     0.163 HD
HETATM   13  C   UNL     1       6.167  26.127  53.079  1.00  0.00     0.264 A 
HETATM   14  H   UNL     1       5.114  28.560  56.809  1.00  0.00     0.173 HD
HETATM   15  H   UNL     1       4.114  28.835  51.216  1.00  0.00     0.169 HD
ENDROOT
BRANCH   1  16
HETATM   16  C   UNL     1       3.267  30.245  53.145  1.00  0.00     0.140 C 
BRANCH  16  17
HETATM   17  C   UNL     1       4.063  31.476  52.685  1.00  0.00     0.059 C 
BRANCH  17  18
HETATM   18  C   UNL     1       4.184  31.566  51.185  1.00  0.00    -0.057 A 
HETATM   19  C   UNL     1       5.395  31.951  50.590  1.00  0.00     0.007 A 
HETATM   20  C   UNL     1       5.515  32.018  49.201  1.00  0.00     0.001 A 
HETATM   21  C   UNL     1       4.434  31.683  48.390  1.00  0.00     0.000 A 
HETATM   22  C   UNL     1       3.233  31.279  48.969  1.00  0.00     0.001 A 
HETATM   23  C   UNL     1       3.106  31.220  50.358  1.00  0.00     0.007 A 
ENDBRANCH  17  18
ENDBRANCH  16  17
ENDBRANCH   1  16
BRANCH  13  24
HETATM   24  C   UNL     1       5.560  24.776  53.474  1.00  0.00     0.426 C 
HETATM   25  F   UNL     1       4.223  24.808  53.222  1.00  0.00    -0.168 F 
HETATM   26  F   UNL     1       6.067  23.796  52.687  1.00  0.00    -0.168 F 
HETATM   27  F   UNL     1       5.720  24.414  54.750  1.00  0.00    -0.168 F 
ENDBRANCH  13  24
BRANCH  13  28
HETATM   28  C   UNL     1       7.679  26.000  53.303  1.00  0.00     0.426 C 
HETATM   29  F   UNL     1       8.215  27.232  53.496  1.00  0.00    -0.168 F 
HETATM   30  F   UNL     1       8.068  25.206  54.304  1.00  0.00    -0.168 F 
HETATM   31  F   UNL     1       8.249  25.521  52.163  1.00  0.00    -0.168 F 
ENDBRANCH  13  28
BRANCH  10  32
HETATM   32  C   UNL     1       5.031  27.288  49.591  1.00  0.00     0.118 A 
HETATM   33  O   UNL     1       4.341  26.324  48.905  1.00  0.00    -0.319 OA
HETATM   34  C   UNL     1       4.346  26.674  47.594  1.00  0.00     0.142 A 
HETATM   35  C   UNL     1       5.030  27.852  47.418  1.00  0.00     0.027 A 
HETATM   36  C   UNL     1       5.473  28.253  48.704  1.00  0.00     0.043 A 
ENDBRANCH  10  32
TORSDOF 6
ENDMDL
MODEL 8
REMARK VINA RESULT:      -8.5      3.584      6.482
REMARK  6 active torsions:
REMARK  status: ('A' for Active; 'I' for Inactive)
REMARK    1  A    between atoms: C_4  and  C_5 
REMARK    2  A    between atoms: C_5  and  C_6 
REMARK    3  A    between atoms: C_6  and  N_7 
REMARK    4  A    between atoms: C_16  and  C_17 
REMARK    5  A    between atoms: C_24  and  C_25 
REMARK    6  A    between atoms: C_24  and  C_29 
ROOT
HETATM    1  N   UNL     1       4.919  27.566  52.728  1.00  0.00    -0.284 N 
HETATM    2  C   UNL     1       5.239  28.412  53.788  1.00  0.00     0.331 A 
HETATM    3  O   UNL     1       5.656  28.026  54.873  1.00  0.00    -0.246 OA
HETATM    4  N   UNL     1       5.058  29.741  53.561  1.00  0.00    -0.275 N 
HETATM    5  C   UNL     1       4.595  30.288  52.416  1.00  0.00     0.262 A 
HETATM    6  O   UNL     1       4.428  31.487  52.273  1.00  0.00    -0.267 OA
HETATM    7  C   UNL     1       4.274  29.371  51.318  1.00  0.00     0.100 A 
HETATM    8  C   UNL     1       4.424  28.054  51.530  1.00  0.00     0.128 A 
HETATM    9  N   UNL     1       4.082  27.179  50.531  1.00  0.00    -0.326 N 
HETATM   10  C   UNL     1       3.599  27.564  49.370  1.00  0.00     0.138 A 
HETATM   11  N   UNL     1       3.424  28.828  49.074  1.00  0.00    -0.345 N 
HETATM   12  H   UNL     1       3.033  29.076  48.163  1.00  0.00     0.163 HD
HETATM   13  C   UNL     1       3.805  29.979  50.015  1.00  0.00     0.264 A 
HETATM   14  H   UNL     1       5.280  30.361  54.331  1.00  0.00     0.173 HD
HETATM   15  H   UNL     1       4.161  26.172  50.648  1.00  0.00     0.169 HD
ENDROOT
BRANCH   1  16
HETATM   16  C   UNL     1       5.146  26.137  52.984  1.00  0.00     0.140 C 
BRANCH  16  17
HETATM   17  C   UNL     1       6.556  25.688  52.572  1.00  0.00     0.059 C 
BRANCH  17  18
HETATM   18  C   UNL     1       7.040  24.491  53.352  1.00  0.00    -0.057 A 
HETATM   19  C   UNL     1       6.795  24.394  54.731  1.00  0.00     0.007 A 
HETATM   20  C   UNL     1       7.225  23.279  55.452  1.00  0.00     0.001 A 
HETATM   21  C   UNL     1       7.887  22.241  54.803  1.00  0.00     0.000 A 
HETATM   22  C   UNL     1       8.117  22.316  53.430  1.00  0.00     0.001 A 
HETATM   23  C   UNL     1       7.695  23.434  52.707  1.00  0.00     0.007 A 
ENDBRANCH  17  18
ENDBRANCH  16  17
ENDBRANCH   1  16
BRANCH  13  24
HETATM   24  C   UNL     1       4.893  30.788  49.301  1.00  0.00     0.426 C 
HETATM   25  F   UNL     1       6.103  30.227  49.569  1.00  0.00    -0.168 F 
HETATM   26  F   UNL     1       4.727  30.697  47.958  1.00  0.00    -0.168 F 
HETATM   27  F   UNL     1       4.969  32.082  49.626  1.00  0.00    -0.168 F 
ENDBRANCH  13  24
BRANCH  13  28
HETATM   28  C   UNL     1       2.579  30.896  50.107  1.00  0.00     0.426 C 
HETATM   29  F   UNL     1       1.718  30.410  51.037  1.00  0.00    -0.168 F 
HETATM   30  F   UNL     1       2.815  32.182  50.377  1.00  0.00    -0.168 F 
HETATM   31  F   UNL     1       1.911  30.847  48.921  1.00  0.00    -0.168 F 
ENDBRANCH  13  28
BRANCH  10  32
HETATM   32  C   UNL     1       3.260  26.518  48.425  1.00  0.00     0.118 A 
HETATM   33  O   UNL     1       3.346  25.190  48.748  1.00  0.00    -0.319 OA
HETATM   34  C   UNL     1       2.976  24.479  47.653  1.00  0.00     0.142 A 
HETATM   35  C   UNL     1       2.650  25.327  46.622  1.00  0.00     0.027 A 
HETATM   36  C   UNL     1       2.831  26.644  47.117  1.00  0.00     0.043 A 
ENDBRANCH  10  32
TORSDOF 6
ENDMDL
MODEL 9
REMARK VINA RESULT:      -8.2      4.312      6.951
REMARK  6 active torsions:
REMARK  status: ('A' for Active; 'I' for Inactive)
REMARK    1  A    between atoms: C_4  and  C_5 
REMARK    2  A    between atoms: C_5  and  C_6 
REMARK    3  A    between atoms: C_6  and  N_7 
REMARK    4  A    between atoms: C_16  and  C_17 
REMARK    5  A    between atoms: C_24  and  C_25 
REMARK    6  A    between atoms: C_24  and  C_29 
ROOT
HETATM    1  N   UNL     1       3.270  29.553  51.742  1.00  0.00    -0.284 N 
HETATM    2  C   UNL     1       2.479  30.539  51.156  1.00  0.00     0.331 A 
HETATM    3  O   UNL     1       1.974  31.471  51.771  1.00  0.00    -0.246 OA
HETATM    4  N   UNL     1       2.277  30.418  49.816  1.00  0.00    -0.275 N 
HETATM    5  C   UNL     1       2.767  29.434  49.032  1.00  0.00     0.262 A 
HETATM    6  O   UNL     1       2.535  29.358  47.837  1.00  0.00    -0.267 OA
HETATM    7  C   UNL     1       3.601  28.416  49.678  1.00  0.00     0.100 A 
HETATM    8  C   UNL     1       3.793  28.505  51.003  1.00  0.00     0.128 A 
HETATM    9  N   UNL     1       4.530  27.534  51.633  1.00  0.00    -0.326 N 
HETATM   10  C   UNL     1       5.053  26.504  51.003  1.00  0.00     0.138 A 
HETATM   11  N   UNL     1       4.922  26.339  49.710  1.00  0.00    -0.345 N 
HETATM   12  H   UNL     1       5.335  25.516  49.269  1.00  0.00     0.163 HD
HETATM   13  C   UNL     1       4.197  27.340  48.798  1.00  0.00     0.264 A 
HETATM   14  H   UNL     1       1.695  31.127  49.385  1.00  0.00     0.173 HD
HETATM   15  H   UNL     1       4.690  27.546  52.637  1.00  0.00     0.169 HD
ENDROOT
BRANCH   1  16
HETATM   16  C   UNL     1       3.497  29.715  53.185  1.00  0.00     0.140 C 
BRANCH  16  17
HETATM   17  C   UNL     1       4.990  29.833  53.530  1.00  0.00     0.059 C 
BRANCH  17  18
HETATM   18  C   UNL     1       5.474  28.712  54.415  1.00  0.00    -0.057 A 
HETATM   19  C   UNL     1       6.785  28.225  54.295  1.00  0.00     0.007 A 
HETATM   20  C   UNL     1       7.242  27.201  55.126  1.00  0.00     0.001 A 
HETATM   21  C   UNL     1       6.402  26.665  56.098  1.00  0.00     0.000 A 
HETATM   22  C   UNL     1       5.106  27.155  56.242  1.00  0.00     0.001 A 
HETATM   23  C   UNL     1       4.643  28.174  55.407  1.00  0.00     0.007 A 
ENDBRANCH  17  18
ENDBRANCH  16  17
ENDBRANCH   1  16
BRANCH  13  24
HETATM   24  C   UNL     1       5.244  27.875  47.816  1.00  0.00     0.426 C 
HETATM   25  F   UNL     1       6.230  28.493  48.521  1.00  0.00    -0.168 F 
HETATM   26  F   UNL     1       5.838  26.842  47.168  1.00  0.00    -0.168 F 
HETATM   27  F   UNL     1       4.800  28.742  46.901  1.00  0.00    -0.168 F 
ENDBRANCH  13  24
BRANCH  13  28
HETATM   28  C   UNL     1       3.199  26.529  47.962  1.00  0.00     0.426 C 
HETATM   29  F   UNL     1       3.626  25.245  47.864  1.00  0.00    -0.168 F 
HETATM   30  F   UNL     1       1.933  26.524  48.387  1.00  0.00    -0.168 F 
HETATM   31  F   UNL     1       3.198  27.018  46.691  1.00  0.00    -0.168 F 
ENDBRANCH  13  28
BRANCH  10  32
HETATM   32  C   UNL     1       5.784  25.548  51.810  1.00  0.00     0.118 A 
HETATM   33  O   UNL     1       7.106  25.268  51.587  1.00  0.00    -0.319 OA
HETATM   34  C   UNL     1       7.484  24.334  52.496  1.00  0.00     0.142 A 
HETATM   35  C   UNL     1       6.427  24.004  53.308  1.00  0.00     0.027 A 
HETATM   36  C   UNL     1       5.328  24.786  52.870  1.00  0.00     0.043 A 
ENDBRANCH  10  32
TORSDOF 6
ENDMDL
MODEL 10
REMARK VINA RESULT:      -7.9      3.730      7.557
REMARK  6 active torsions:
REMARK  status: ('A' for Active; 'I' for Inactive)
REMARK    1  A    between atoms: C_4  and  C_5 
REMARK    2  A    between atoms: C_5  and  C_6 
REMARK    3  A    between atoms: C_6  and  N_7 
REMARK    4  A    between atoms: C_16  and  C_17 
REMARK    5  A    between atoms: C_24  and  C_25 
REMARK    6  A    between atoms: C_24  and  C_29 
ROOT
HETATM    1  N   UNL     1       5.792  28.695  55.399  1.00  0.00    -0.284 N 
HETATM    2  C   UNL     1       6.156  28.100  56.605  1.00  0.00     0.331 A 
HETATM    3  O   UNL     1       6.115  28.666  57.691  1.00  0.00    -0.246 OA
HETATM    4  N   UNL     1       6.581  26.810  56.525  1.00  0.00    -0.275 N 
HETATM    5  C   UNL     1       6.682  26.084  55.391  1.00  0.00     0.262 A 
HETATM    6  O   UNL     1       7.094  24.936  55.371  1.00  0.00    -0.267 OA
HETATM    7  C   UNL     1       6.285  26.737  54.140  1.00  0.00     0.100 A 
HETATM    8  C   UNL     1       5.884  28.017  54.195  1.00  0.00     0.128 A 
HETATM    9  N   UNL     1       5.556  28.660  53.028  1.00  0.00    -0.326 N 
HETATM   10  C   UNL     1       5.625  28.087  51.846  1.00  0.00     0.138 A 
HETATM   11  N   UNL     1       5.999  26.840  51.698  1.00  0.00    -0.345 N 
HETATM   12  H   UNL     1       6.050  26.444  50.757  1.00  0.00     0.163 HD
HETATM   13  C   UNL     1       6.345  25.914  52.873  1.00  0.00     0.264 A 
HETATM   14  H   UNL     1       6.857  26.374  57.397  1.00  0.00     0.173 HD
HETATM   15  H   UNL     1       5.264  29.633  53.015  1.00  0.00     0.169 HD
ENDROOT
BRANCH   1  16
HETATM   16  C   UNL     1       5.312  30.080  55.510  1.00  0.00     0.140 C 
BRANCH  16  17
HETATM   17  C   UNL     1       3.790  30.153  55.710  1.00  0.00     0.059 C 
BRANCH  17  18
HETATM   18  C   UNL     1       3.132  31.173  54.816  1.00  0.00    -0.057 A 
HETATM   19  C   UNL     1       3.414  31.202  53.441  1.00  0.00     0.007 A 
HETATM   20  C   UNL     1       2.792  32.134  52.607  1.00  0.00     0.001 A 
HETATM   21  C   UNL     1       1.869  33.034  53.133  1.00  0.00     0.000 A 
HETATM   22  C   UNL     1       1.566  33.001  54.492  1.00  0.00     0.001 A 
HETATM   23  C   UNL     1       2.192  32.076  55.331  1.00  0.00     0.007 A 
ENDBRANCH  17  18
ENDBRANCH  16  17
ENDBRANCH   1  16
BRANCH  13  24
HETATM   24  C   UNL     1       5.323  24.772  52.846  1.00  0.00     0.426 C 
HETATM   25  F   UNL     1       4.717  24.757  51.627  1.00  0.00    -0.168 F 
HETATM   26  F   UNL     1       5.960  23.581  52.962  1.00  0.00    -0.168 F 
HETATM   27  F   UNL     1       4.362  24.825  53.772  1.00  0.00    -0.168 F 
ENDBRANCH  13  24
BRANCH  13  28
HETATM   28  C   UNL     1       7.704  25.282  52.548  1.00  0.00     0.426 C 
HETATM   29  F   UNL     1       8.677  26.224  52.639  1.00  0.00    -0.168 F 
HETATM   30  F   UNL     1       8.062  24.228  53.287  1.00  0.00    -0.168 F 
HETATM   31  F   UNL     1       7.697  24.880  51.247  1.00  0.00    -0.168 F 
ENDBRANCH  13  28
BRANCH  10  32
HETATM   32  C   UNL     1       5.269  28.904  50.704  1.00  0.00     0.118 A 
HETATM   33  O   UNL     1       4.562  28.403  49.643  1.00  0.00    -0.319 OA
HETATM   34  C   UNL     1       4.406  29.409  48.746  1.00  0.00     0.142 A 
HETATM   35  C   UNL     1       5.001  30.557  49.208  1.00  0.00     0.027 A 
HETATM   36  C   UNL     1       5.559  30.236  50.472  1.00  0.00     0.043 A 
ENDBRANCH  10  32
TORSDOF 6
ENDMDL
